#------------------------------------------------------------------------------
#$Date: 2019-11-21 02:07:47 +0200 (Thu, 21 Nov 2019) $
#$Revision: 231092 $
#$URL: file:///home/coder/svn-repositories/cod/cif/1/55/29/1552944.cif $
#------------------------------------------------------------------------------
#
# This file is available in the Crystallography Open Database (COD),
# http://www.crystallography.net/
#
# All data on this site have been placed in the public domain by the
# contributors.
#
data_1552944
loop_
_publ_author_name
'Fan, Chun-Lin'
'Zhang, Yu-Bo'
'Chen, Ye'
'Xie, Pei'
'Wang, Guo-Cai'
'Tian, Hai-Yan'
'Li, Yao-Lan'
'Huang, Xiao-Jun'
'Zhang, Xiao-Qi'
'Li, Zhi-Yong'
'Liu, Jun-Shan'
'Ye, Wen-Cai'
'Chen, Wei-Min'
_publ_section_title
;
 Alopecuroides A--E, Matrine-Type Alkaloid Dimers from the Aerial Parts of
 Sophora alopecuroides
;
_journal_name_full               'Journal of Natural Products'
_journal_paper_doi               10.1021/acs.jnatprod.8b01081
_journal_year                    2019
_chemical_absolute_configuration ad
_chemical_formula_moiety         'C30 H44 N4 O2'
_chemical_formula_sum            'C30 H45 N4 O2'
_chemical_formula_weight         493.70
_space_group_crystal_system      triclinic
_space_group_IT_number           1
_space_group_name_Hall           'P 1'
_space_group_name_H-M_alt        'P 1'
_atom_sites_solution_hydrogens   geom
_atom_sites_solution_primary     dual
_audit_creation_date             2016-12-12
_audit_creation_method
;
Olex2 1.2
(compiled 2016.11.30 svn.r3356 for OlexSys, GUI svn.r5269)
;
_cell_angle_alpha                89.4830(10)
_cell_angle_beta                 87.316(2)
_cell_angle_gamma                77.462(2)
_cell_formula_units_Z            1
_cell_length_a                   6.06310(10)
_cell_length_b                   9.7279(2)
_cell_length_c                   11.3631(2)
_cell_measurement_reflns_used    19035
_cell_measurement_temperature    100.01(10)
_cell_measurement_theta_max      73.5660
_cell_measurement_theta_min      3.8740
_cell_volume                     653.51(2)
_computing_molecular_graphics    'Olex2 (Dolomanov et al., 2009)'
_computing_publication_material  'Olex2 (Dolomanov et al., 2009)'
_computing_structure_refinement  'ShelXL (Sheldrick, 2015)'
_computing_structure_solution    'ShelXT (Sheldrick, 2015)'
_diffrn_ambient_temperature      100.01(10)
_diffrn_measured_fraction_theta_full 1.000
_diffrn_measured_fraction_theta_max 0.990
_diffrn_measurement_device_type  'multiwire proportional'
_diffrn_measurement_method       'phi and omega scans'
_diffrn_radiation_monochromator  graphite
_diffrn_radiation_type           CuK\a
_diffrn_radiation_wavelength     1.54178
_diffrn_reflns_av_R_equivalents  0.0612
_diffrn_reflns_av_unetI/netI     0.0333
_diffrn_reflns_Laue_measured_fraction_full 1.000
_diffrn_reflns_Laue_measured_fraction_max 0.990
_diffrn_reflns_limit_h_max       7
_diffrn_reflns_limit_h_min       -7
_diffrn_reflns_limit_k_max       12
_diffrn_reflns_limit_k_min       -12
_diffrn_reflns_limit_l_max       14
_diffrn_reflns_limit_l_min       -14
_diffrn_reflns_number            25597
_diffrn_reflns_point_group_measured_fraction_full 0.949
_diffrn_reflns_point_group_measured_fraction_max 0.928
_diffrn_reflns_theta_full        67.679
_diffrn_reflns_theta_max         73.708
_diffrn_reflns_theta_min         3.894
_exptl_absorpt_coefficient_mu    0.616
_exptl_absorpt_correction_type   none
_exptl_crystal_density_diffrn    1.254
_exptl_crystal_description       block
_exptl_crystal_F_000             269
_exptl_crystal_size_max          0.25
_exptl_crystal_size_mid          0.2
_exptl_crystal_size_min          0.15
_refine_diff_density_max         0.346
_refine_diff_density_min         -0.264
_refine_diff_density_rms         0.044
_refine_ls_abs_structure_details
;
 Flack x determined using 2193 quotients [(I+)-(I-)]/[(I+)+(I-)]
 (Parsons, Flack and Wagner, Acta Cryst. B69 (2013) 249-259).
;
_refine_ls_abs_structure_Flack   0.16(12)
_refine_ls_extinction_method     none
_refine_ls_goodness_of_fit_ref   1.051
_refine_ls_hydrogen_treatment    constr
_refine_ls_matrix_type           full
_refine_ls_number_parameters     325
_refine_ls_number_reflns         4901
_refine_ls_number_restraints     3
_refine_ls_restrained_S_all      1.050
_refine_ls_R_factor_all          0.0408
_refine_ls_R_factor_gt           0.0403
_refine_ls_shift/su_max          0.000
_refine_ls_shift/su_mean         0.000
_refine_ls_structure_factor_coef Fsqd
_refine_ls_weighting_details
'w=1/[\s^2^(Fo^2^)+(0.0653P)^2^+0.1362P] where P=(Fo^2^+2Fc^2^)/3'
_refine_ls_weighting_scheme      calc
_refine_ls_wR_factor_gt          0.1063
_refine_ls_wR_factor_ref         0.1072
_reflns_Friedel_coverage         0.873
_reflns_Friedel_fraction_full    0.898
_reflns_Friedel_fraction_max     0.865
_reflns_number_gt                4818
_reflns_number_total             4901
_reflns_threshold_expression     'I > 2\s(I)'
_cod_data_source_file            1.cif
_cod_data_source_block           1
_cod_database_code               1552944
_shelx_space_group_comment
;
The symmetry employed for this shelxl refinement is uniquely defined
by the following loop, which should always be used as a source of
symmetry information in preference to the above space-group names.
They are only intended as comments.
;
_shelx_estimated_absorpt_t_max   0.913
_shelx_estimated_absorpt_t_min   0.861
_olex2_refinement_description
;
1. Fixed Uiso
 At 1.2 times of:
  All C(H) groups, All C(H,H) groups
2.a Ternary CH refined with riding coordinates:
 C007(H007), C00B(H00C), C00C(H00D), C00D(H00E), C00E(H00F), C00L(H00O),
 C00N(H00R), C00U(H0AA), C00W(H2AA)
2.b Secondary CH2 refined with riding coordinates:
 C008(H00A,H00B), C00H(H00G,H00H), C00I(H00I,H00J), C00J(H00K,H00L), C00K(H00M,
 H00N), C00M(H00P,H00Q), C00O(H00S,H00T), C00P(H00U,H00V), C00Q(H00W,H00X),
 C00R(H00Y,H), C00S(H00Z,HA), C00T(H00,HB), C00V(H1AA,HC), C00X(H3AA,HD),
 C00Y(H4AA,HE), C00Z(H5AA,HF), C010(H01A,H01B)
2.c Aromatic/amide H refined with riding coordinates:
 C009(H009)
;
_shelx_res_file
;
    1.res created by SHELXL-2014/7

TITL 1_a.res in P1
REM Old TITL 1_a.res in P1
REM SHELXT solution in P1
REM R1 0.099, Rweak 0.022, Alpha 0.000, Orientation as input
REM Flack x = 0.197 ( 0.130 ) from Parsons' quotients
REM Formula found by SHELXT: C30 N4 O2
CELL 1.54178 6.0631 9.7279 11.3631 89.483 87.316 77.462
ZERR 1 0.0001 0.0002 0.0002 0.001 0.002 0.002
LATT -1
SFAC C H N O
UNIT 30 45 4 2

L.S. 100
PLAN  20
SIZE 0.25 0.2 0.15
BOND $H
list 4
fmap 2
acta
REM <olex2.extras>
REM <HklSrc "%.\\1.hkl">
REM </olex2.extras>

WGHT    0.065300    0.136200
FVAR       1.24995
O001  4    0.182904    0.284589    0.993260    11.00000    0.02707    0.03264 =
         0.02972    0.00440    0.00706   -0.00054
N002  3    0.640397    0.531248    0.357621    11.00000    0.01856    0.01756 =
         0.01689   -0.00379   -0.00271   -0.00497
O003  4    0.056462    0.781530    0.006954    11.00000    0.04630    0.02530 =
         0.03737   -0.00129   -0.02181   -0.00081
N004  3    0.805038    0.145981    0.619392    11.00000    0.01392    0.01607 =
         0.02142   -0.00193   -0.00190   -0.00025
N005  3    0.408930    0.324320    0.838717    11.00000    0.02054    0.01835 =
         0.02058   -0.00326   -0.00221   -0.00072
N006  3    0.288861    0.768697    0.157840    11.00000    0.02448    0.01798 =
         0.02640   -0.00438   -0.00818   -0.00058
C007  1    0.591606    0.555852    0.142231    11.00000    0.02169    0.02030 =
         0.01725   -0.00202   -0.00096   -0.00158
AFIX  13
H007  2    0.650315    0.597027    0.071613    11.00000   -1.20000
AFIX   0
C008  1    0.337411    0.614497    0.154104    11.00000    0.02378    0.01736 =
         0.02685   -0.00498   -0.00706   -0.00084
AFIX  23
H00A  2    0.265221    0.583705    0.087796    11.00000   -1.20000
H00B  2    0.276330    0.578813    0.225638    11.00000   -1.20000
AFIX   0
C009  1    0.830753    0.218661    0.514191    11.00000    0.01363    0.01835 =
         0.02040   -0.00501    0.00067   -0.00380
AFIX  43
H009  2    0.976814    0.209373    0.481575    11.00000   -1.20000
AFIX   0
C00A  1    0.210535    0.352392    0.904228    11.00000    0.02226    0.02113 =
         0.02222   -0.00564   -0.00103   -0.00461
C00B  1    0.704616    0.600323    0.248453    11.00000    0.01559    0.02191 =
         0.02050   -0.00121   -0.00065   -0.00489
AFIX  13
H00C  2    0.868739    0.570269    0.234568    11.00000   -1.20000
AFIX   0
C00C  1    0.712016    0.375260    0.344712    11.00000    0.01284    0.02047 =
         0.01956   -0.00370   -0.00118   -0.00137
AFIX  13
H00D  2    0.875612    0.351410    0.327005    11.00000   -1.20000
AFIX   0
C00D  1    0.403401    0.270729    0.629650    11.00000    0.01162    0.01857 =
         0.02166   -0.00234   -0.00086   -0.00223
AFIX  13
H00E  2    0.250957    0.254253    0.645424    11.00000   -1.20000
AFIX   0
C00E  1    0.440050    0.381383    0.719830    11.00000    0.01636    0.01766 =
         0.02055   -0.00265   -0.00001   -0.00291
AFIX  13
H00F  2    0.597292    0.391193    0.709639    11.00000   -1.20000
AFIX   0
C00F  1    0.139420    0.840642    0.083002    11.00000    0.02341    0.02201 =
         0.02681    0.00159   -0.00500   -0.00281
C00G  1    0.663228    0.300162    0.456786    11.00000    0.01603    0.01853 =
         0.01879   -0.00478   -0.00095   -0.00300
C00H  1    0.595171    0.324803    0.241926    11.00000    0.02143    0.01645 =
         0.02024   -0.00623   -0.00331   -0.00200
AFIX  23
H00G  2    0.645644    0.223561    0.233500    11.00000   -1.20000
H00H  2    0.432930    0.345833    0.258491    11.00000   -1.20000
AFIX   0
C00I  1    0.648128    0.395959    0.127609    11.00000    0.02388    0.02252 =
         0.01750   -0.00559   -0.00082    0.00070
AFIX  23
H00I  2    0.560789    0.369731    0.065477    11.00000   -1.20000
H00J  2    0.807269    0.364333    0.105019    11.00000   -1.20000
AFIX   0
C00J  1    0.286729    0.527920    0.708556    11.00000    0.02818    0.01612 =
         0.02634   -0.00156    0.00069   -0.00027
AFIX  23
H00K  2    0.336628    0.593333    0.759699    11.00000   -1.20000
H00L  2    0.297516    0.560886    0.628112    11.00000   -1.20000
AFIX   0
C00K  1    0.750763    0.575489    0.458060    11.00000    0.02291    0.02378 =
         0.02060   -0.00180   -0.00718   -0.00765
AFIX  23
H00M  2    0.913463    0.546054    0.445278    11.00000   -1.20000
H00N  2    0.707520    0.529178    0.528691    11.00000   -1.20000
AFIX   0
C00L  1    0.555340    0.079005    0.776951    11.00000    0.01722    0.01645 =
         0.02245   -0.00247   -0.00148   -0.00282
AFIX  13
H00O  2    0.404976    0.058482    0.790649    11.00000   -1.20000
AFIX   0
C00M  1    0.025885    0.476359    0.869416    11.00000    0.01876    0.02337 =
         0.02766   -0.00613    0.00029   -0.00164
AFIX  23
H00P  2    0.029283    0.555341    0.920287    11.00000   -1.20000
H00Q  2   -0.119376    0.451302    0.883828    11.00000   -1.20000
AFIX   0
C00N  1    0.573134    0.130381    0.649252    11.00000    0.01657    0.01614 =
         0.01968   -0.00289   -0.00271   -0.00218
AFIX  13
H00R  2    0.538115    0.059335    0.596841    11.00000   -1.20000
AFIX   0
C00O  1    0.975031    0.013865    0.631809    11.00000    0.01687    0.01752 =
         0.02510   -0.00470   -0.00169   -0.00086
AFIX  23
H00S  2    1.124334    0.030339    0.611558    11.00000   -1.20000
H00T  2    0.945718   -0.055921    0.577681    11.00000   -1.20000
AFIX   0
C00P  1    0.969119   -0.041864    0.756944    11.00000    0.02088    0.01938 =
         0.02853    0.00060   -0.00392    0.00066
AFIX  23
H00U  2    1.017868    0.022250    0.809827    11.00000   -1.20000
H00V  2    1.073293   -0.132618    0.761333    11.00000   -1.20000
AFIX   0
C00Q  1    0.576221    0.195347    0.862902    11.00000    0.02086    0.01920 =
         0.01935   -0.00246   -0.00316   -0.00203
AFIX  23
H00W  2    0.552157    0.165017    0.943135    11.00000   -1.20000
H00X  2    0.727180    0.213703    0.854777    11.00000   -1.20000
AFIX   0
C00R  1    0.042254    0.524017    0.741870    11.00000    0.02246    0.02242 =
         0.02773   -0.00210   -0.00148    0.00356
AFIX  23
H00Y  2   -0.008909    0.459303    0.690555    11.00000   -1.20000
H     2   -0.053565    0.616882    0.732582    11.00000   -1.20000
AFIX   0
C00S  1    0.731168   -0.057524    0.795967    11.00000    0.02541    0.01667 =
         0.02465    0.00034   -0.00300   -0.00222
AFIX  23
H00Z  2    0.728241   -0.082610    0.878750    11.00000   -1.20000
HA    2    0.692591   -0.133058    0.751620    11.00000   -1.20000
AFIX   0
C00T  1    0.420872    0.315683    0.500398    11.00000    0.01736    0.02272 =
         0.01951   -0.00241   -0.00269   -0.00252
AFIX  23
H00   2    0.347846    0.258457    0.452217    11.00000   -1.20000
HB    2    0.341994    0.413119    0.492483    11.00000   -1.20000
AFIX   0
C00U  1    0.645320    0.762437    0.258159    11.00000    0.02675    0.02170 =
         0.02190    0.00062   -0.00338   -0.00939
AFIX  13
H0AA  2    0.717142    0.798396    0.188902    11.00000   -1.20000
AFIX   0
C00V  1    0.687886    0.733980    0.476413    11.00000    0.03469    0.02323 =
         0.02398   -0.00485   -0.00818   -0.01046
AFIX  23
H1AA  2    0.766221    0.759236    0.542705    11.00000   -1.20000
HC    2    0.526497    0.763427    0.494108    11.00000   -1.20000
AFIX   0
C00W  1    0.390939    0.827823    0.255750    11.00000    0.02833    0.02127 =
         0.02539   -0.00604   -0.00563   -0.00347
AFIX  13
H2AA  2    0.317652    0.805896    0.330151    11.00000   -1.20000
AFIX   0
C00X  1    0.752221    0.808883    0.366047    11.00000    0.02794    0.02466 =
         0.03057   -0.00042   -0.00869   -0.01295
AFIX  23
H3AA  2    0.915478    0.787771    0.353698    11.00000   -1.20000
HD    2    0.701537    0.909860    0.376431    11.00000   -1.20000
AFIX   0
C00Y  1    0.119931    1.056151    0.211667    11.00000    0.05040    0.02011 =
         0.03843   -0.00288   -0.00464    0.00057
AFIX  23
H4AA  2    0.103360    1.157490    0.207373    11.00000   -1.20000
HE    2    0.011573    1.035683    0.271149    11.00000   -1.20000
AFIX   0
C00Z  1    0.075237    0.999961    0.093791    11.00000    0.03746    0.02013 =
         0.03574    0.00123   -0.00854    0.00034
AFIX  23
H5AA  2    0.158845    1.040406    0.032797    11.00000   -1.20000
HF    2   -0.084417    1.031131    0.079677    11.00000   -1.20000
AFIX   0
C010  1    0.354824    0.988453    0.244287    11.00000    0.04321    0.02336 =
         0.03675   -0.00698   -0.00831   -0.00532
AFIX  23
H01A  2    0.385430    1.027321    0.318577    11.00000   -1.20000
H01B  2    0.461637    1.010687    0.184758    11.00000   -1.20000
AFIX   0
HKLF 4

REM  1_a.res in P1
REM R1 =  0.0403 for    4818 Fo > 4sig(Fo)  and  0.0408 for all    4901 data
REM    325 parameters refined using      3 restraints

END

WGHT      0.0653      0.1362

REM Highest difference peak  0.346,  deepest hole -0.264,  1-sigma level  0.044
Q1    1   0.2287  0.9745  0.3041  11.00000  0.05    0.35
Q2    1   0.2745  1.0557  0.1798  11.00000  0.05    0.30
Q3    1   0.4242  0.3545  0.7834  11.00000  0.05    0.29
Q4    1   0.5690  0.1030  0.7126  11.00000  0.05    0.27
Q5    1   0.4181  0.2835  0.5623  11.00000  0.05    0.25
Q6    1   0.6900  0.3386  0.4048  11.00000  0.05    0.24
Q7    1   0.9752 -0.0111  0.6992  11.00000  0.05    0.24
Q8    1   0.4806  0.1997  0.6405  11.00000  0.05    0.23
Q9    1   0.8154  0.1832  0.5685  11.00000  0.05    0.23
Q10   1   0.0339  0.4970  0.8055  11.00000  0.05    0.21
Q11   1   0.6824  0.5621  0.3016  11.00000  0.05    0.20
Q12   1   0.6261  0.3634  0.1906  11.00000  0.05    0.19
Q13   1   0.7242  0.7578  0.4172  11.00000  0.05    0.18
Q14   1   0.8932  0.0851  0.6313  11.00000  0.05    0.17
Q15   1   0.7082  0.2293  0.4831  11.00000  0.05    0.17
Q16   1   0.9923  0.2139  0.5216  11.00000  0.05    0.17
Q17   1   0.8375 -0.0616  0.7698  11.00000  0.05    0.16
Q18   1   0.6495  0.0136  0.7904  11.00000  0.05    0.16
Q19   1   0.2723  0.3183  0.8407  11.00000  0.05    0.16
Q20   1   0.1916  0.8126  0.0055  11.00000  0.05    0.16
;
_shelx_res_checksum              82819
_shelx_hkl_file
;
   0   0   1  115.58    4.74
   0   0  -1  112.13    4.82
   0   0   2 1652.76   52.10
   0   0   2 1727.47   54.00
   0   0  -2 1849.38   52.86
   0   0  -2 1671.27   54.26
   0   0  -3  282.26   13.67
   0   0   3  314.57   13.62
   0   0  -3  346.77   11.89
   0   0  -3  364.07   11.69
   0   0   3  333.91   11.28
   0   0   3  289.44   11.46
   0   0   4  102.38    5.13
   0   0  -4  108.05    5.95
   0   0  -4  111.25    5.17
   0   0   4   88.56   10.57
   0   0  -4  113.29    8.74
   0   0  -4  118.10    9.08
   0   0   4  100.32    8.89
   0   0   4  106.86    6.12
   0   0  -4  102.13    6.02
   0   0  -4  107.06    9.68
   0   0  -4  102.22    8.22
   0   0  -4   98.94    7.33
   0   0   4   92.65    6.92
   0   0  -4  108.02    6.49
   0   0   4  100.65    5.19
   0   0  -4  110.39    8.82
   0   0  -4  106.90    5.39
   0   0  -4  116.67    8.52
   0   0   4  104.07    4.94
   0   0  -4  114.82    7.76
   0   0   4   87.66    5.21
   0   0  -5  236.71   13.37
   0   0  -5  240.27   14.65
   0   0  -5  208.33   10.30
   0   0  -5  210.71    8.92
   0   0  -5  237.16   15.19
   0   0  -5  214.89   12.75
   0   0  -5  237.11   15.14
   0   0  -5  205.60   10.95
   0   0   5  215.29    9.61
   0   0  -5  224.08   16.27
   0   0  -5  232.50   14.36
   0   0  -5  214.04   10.68
   0   0   5  186.99    9.71
   0   0   5  224.38   10.83
   0   0   5  208.39    8.99
   0   0   5  213.94   12.54
   0   0  -5  222.90    9.57
   0   0   5  224.62   15.70
   0   0   5  204.47    9.32
   0   0   6  146.72   12.99
   0   0  -6  143.65    9.05
   0   0  -6  125.77   13.67
   0   0  -6  141.36    9.27
   0   0   6  137.41    7.77
   0   0   6  140.02    7.92
   0   0   6  126.76    7.13
   0   0   6  162.33    9.53
   0   0  -6  149.77   12.95
   0   0   6  149.80   10.99
   0   0  -6  153.57   13.12
   0   0  -6  152.82    8.84
   0   0  -6  147.49   12.12
   0   0   6  138.68   13.46
   0   0  -6  138.99   13.98
   0   0  -6  145.21    7.71
   0   0  -6  172.23   11.85
   0   0  -6  157.11    7.18
   0   0  -6  156.47   11.56
   0   0  -6  142.22   12.11
   0   0   6  119.79    8.01
   0   0   7   83.31   10.52
   0   0   7   76.99    6.01
   0   0  -7   77.64    6.59
   0   0   7   68.44    6.38
   0   0  -7   72.95   11.33
   0   0  -7   85.37    5.92
   0   0   7   88.84    7.37
   0   0  -7   88.24   10.84
   0   0  -7   75.15    6.93
   0   0  -7   98.77    9.77
   0   0  -7   72.84    6.91
   0   0   7   76.73    6.06
   0   0  -7   83.58    9.89
   0   0   7   81.03    8.55
   0   0   7   78.54    5.67
   0   0  -7   73.58   10.90
   0   0  -7   69.78    9.16
   0   0   7   67.64   10.26
   0   0  -7   81.09   10.34
   0   0  -8 1432.66   54.42
   0   0  -8 1485.34   52.94
   0   0   8 1376.87   66.30
   0   0  -8 1589.42   63.13
   0   0   8 1395.93   53.62
   0   0  -8 1506.20   62.71
   0   0  -8 1597.58   65.63
   0   0  -8 1532.47   64.75
   0   0  -8 1486.18   54.44
   0   0  -8 1573.85   50.75
   0   0   8 1505.37   52.06
   0   0   8 1438.25   58.41
   0   0   8 1578.52   66.31
   0   0  -8 1355.86   68.01
   0   0   8 1583.54   55.00
   0   0   8 1442.64   50.79
   0   0   8 1498.60   51.97
   0   0  -8 1418.98   67.57
   0   0  -9   93.37    9.46
   0   0   9   63.56   11.54
   0   0  -9   85.77   12.32
   0   0  -9   80.85    8.46
   0   0   9   82.41    8.51
   0   0  -9   70.01    7.97
   0   0   9   84.28    8.53
   0   0   9   87.20    5.90
   0   0  -9   88.33    6.22
   0   0   9   80.20    7.37
   0   0   9   77.44    5.57
   0   0  -9   78.68   13.00
   0   0  -9   78.59    6.45
   0   0   9   86.19   12.78
   0   0   9   83.09    7.16
   0   0   9   85.08    5.83
   0   0  -9   83.30    7.87
   0   0  -9   83.00    6.21
   0   0  -9   75.94   10.81
   0   0  -9   92.06   11.90
   0   0  -9   79.52    8.05
   0   0  -9   68.11   12.54
   0   0  -9   84.78    6.37
   0   0  -9   87.27    8.69
   0   0   9   83.45    7.17
   0   0  -9   84.77    6.69
   0   0  -9   72.24   11.00
   0   0   9   86.55    7.74
   0   0   9   70.23    9.62
   0   0  10  158.82   12.90
   0   0 -10  168.05   10.08
   0   0  10  178.84    9.31
   0   0 -10  155.09    9.06
   0   0 -10  156.91   10.02
   0   0 -10  158.29   12.74
   0   0  10  153.18   11.45
   0   0  10  152.00   11.01
   0   0 -10  164.69    9.73
   0   0  10  157.52    8.89
   0   0 -10  169.17   13.43
   0   0  10  167.29    9.23
   0   0 -10  166.86    9.72
   0   0  10  156.05   10.73
   0   0 -10  145.42   12.35
   0   0 -10  170.36   12.71
   0   0 -10  158.44   12.03
   0   0 -11  228.71   15.62
   0   0  11  270.34   11.99
   0   0  11  246.61   11.89
   0   0 -11  223.71   15.76
   0   0 -11  234.29   12.71
   0   0 -11  231.78   11.57
   0   0 -11  239.75   12.15
   0   0  11  244.83   13.91
   0   0 -11  254.14   12.54
   0   0 -11  228.44   15.83
   0   0  11  203.96   11.03
   0   0 -11  249.88   15.54
   0   0 -11  237.53   14.88
   0   0 -11  242.43   12.42
   0   0  11  220.59   14.50
   0   0 -12    6.85    2.13
   0   0 -12    6.75    1.73
   0   0  12    6.74    1.41
   0   0 -12    8.32    1.82
   0   0  12    5.49    1.33
   0   0 -12    8.37    1.63
   0   0  12    4.76    1.71
   0   0 -12    6.08    1.86
   0   0 -12    6.81    1.54
   0   0 -12    5.78    1.97
   0   0 -12    7.09    1.51
   0   0  13   79.79    4.98
   0   0 -13   76.05    5.11
   0   0 -13   74.96    6.09
   0   0 -13   74.18    5.94
   0   0 -13   77.11    4.51
   0   0 -13   76.59    5.34
   0   0  13   84.87    6.01
   0   0 -13   72.02    6.40
   0   0  13   66.06    4.26
   0   0  13   56.97    6.38
   0   0  14   30.72    3.40
   0   0 -14   37.81    3.17
   0   0 -14   34.10    2.67
   0   0  14   42.29    3.15
   0   0 -14   38.03    2.71
   0   0 -14   37.23    3.06
   0   1 -14   32.93    2.55
   0   1 -14   33.08    2.85
   0   1 -14   37.54    2.95
   0  -1  13   33.92    2.96
   0   1 -13   37.90    4.05
   0   1 -13   39.00    3.21
   0   1 -13   36.58    4.35
   0   1 -13   38.29    3.53
   0   1 -13   41.32    3.51
   0   1 -13   35.69    4.08
   0  -1  13   47.84    4.22
   0  -1  13   43.32    3.34
   0   1 -12   66.85    4.77
   0   1 -12   69.07    5.61
   0   1 -12   67.37    5.24
   0   1 -12   66.55    7.10
   0  -1  12   74.40    5.16
   0   1 -12   66.84    5.25
   0  -1  12   60.40    4.74
   0   1 -12   64.66    6.45
   0   1 -12   62.29    5.06
   0   1 -12   59.69    6.34
   0  -1  12   65.94    6.02
   0  -1  11   31.43    4.84
   0   1 -11   32.60    4.87
   0   1 -11   33.18    3.76
   0   1 -11   29.13    3.74
   0   1 -11   28.63    5.06
   0  -1  11   32.11    4.68
   0  -1  11   33.12    4.35
   0  -1  11   33.94    3.64
   0   1 -11   32.08    3.78
   0   1 -11   30.62    4.93
   0   1 -11   30.78    3.88
   0  -1  11   28.67    3.35
   0   1 -11   32.50    5.43
   0   1 -11   29.75    3.33
   0   1 -10  470.01   18.68
   0   1 -10  398.81   23.66
   0   1 -10  461.50   24.53
   0   1 -10  454.78   19.80
   0   1 -10  423.28   22.91
   0  -1  10  431.42   23.95
   0   1 -10  433.48   23.06
   0   1 -10  435.89   19.66
   0  -1  10  437.79   20.64
   0   1 -10  423.92   22.48
   0  -1  10  464.40   22.28
   0  -1  10  440.77   18.30
   0   1 -10  421.22   23.42
   0   1 -10  433.96   19.10
   0  -1  10  471.59   18.46
   0  -1  10  479.53   22.65
   0   1 -10  465.54   19.20
   0   1  -9  353.04   18.40
   0   1  -9  351.77   15.48
   0   1  -9  349.31   16.39
   0   1  -9  345.28   19.64
   0  -1   9  329.13   27.89
   0   1  -9  373.96   20.97
   0   1  -9  343.61   15.73
   0  -1   9  389.35   28.38
   0   1  -9  358.18   19.85
   0  -1   9  339.91   14.68
   0  -1   9  368.49   23.40
   0  -1   9  346.32   18.07
   0  -1   9  364.29   14.88
   0   1  -9  328.46   28.52
   0  -1   9  376.81   20.05
   0   1  -9  319.58   20.09
   0   1  -9  311.75   28.57
   0   1  -9  347.43   26.40
   0  -1   9  365.49   18.24
   0   1  -9  376.37   27.32
   0   1  -9  360.89   25.29
   0  -1   9  319.83   19.17
   0  -1   9  337.14   16.91
   0   1  -9  353.58   19.41
   0   1  -9  346.59   19.28
   0   1  -9  350.08   16.29
   0   1  -9  344.51   25.20
   0   1  -8  121.02   14.04
   0   1  -8  110.88   12.93
   0   1  -8  114.09   12.73
   0   1  -8  123.20   10.14
   0   1  -8  115.63    9.51
   0  -1   8  130.12   12.09
   0   1  -8   94.86   14.39
   0  -1   8  123.24    7.81
   0   1  -8  127.42   10.07
   0   1  -8  116.17    7.69
   0   1  -8  118.10    9.01
   0  -1   8  120.75   15.02
   0   1  -8  139.44   12.99
   0  -1   8  115.41    9.45
   0  -1   8  128.58    8.97
   0  -1   8  132.04   14.73
   0   1  -8  112.18   15.33
   0  -1   8  134.44   10.20
   0   1  -8  115.42    9.51
   0   1  -8  118.46   10.74
   0  -1   8  118.80    8.56
   0   1  -8  128.27   14.40
   0   1  -8  127.69   10.81
   0  -1   7  409.19   21.97
   0   1  -7  372.97   18.62
   0  -1   7  437.93   19.50
   0  -1   7  328.61   17.32
   0  -1   7  388.30   15.82
   0   1  -7  414.94   16.46
   0   1  -7  393.35   24.24
   0   1  -7  364.76   18.35
   0   1  -7  384.95   17.82
   0  -1   7  378.66   16.80
   0   1  -7  392.85   23.96
   0   1  -7  425.91   23.21
   0   1  -7  423.86   17.89
   0   1  -7  414.35   25.53
   0   1  -7  350.85   26.43
   0  -1   7  384.25   17.20
   0   1  -7  392.83   25.11
   0  -1   7  373.89   25.96
   0   1  -6  802.71   35.37
   0  -1   6  696.02   42.99
   0   1  -6  804.97   28.81
   0   1  -6  801.13   28.99
   0   1  -6  790.94   27.31
   0  -1   6  773.07   37.64
   0   1  -6  754.51   29.71
   0   1  -6  776.45   33.48
   0   1  -6  756.77   29.29
   0   1  -6  815.41   26.73
   0  -1   6  787.04   32.58
   0   1  -6  823.34   37.01
   0  -1   6  868.27   30.22
   0  -1   6  750.36   26.29
   0   1  -6  785.78   36.64
   0  -1   6  762.35   27.87
   0  -1   6  663.27   27.93
   0  -1   6  719.72   27.20
   0   1  -6  809.66   36.25
   0   1  -6  776.38   35.30
   0   1  -6  717.62   38.12
   0   1  -5 2209.74   74.86
   0   1  -5 2105.37   69.13
   0   1  -5 2437.59   68.17
   0  -1   5 2331.00   77.96
   0   1  -5 2423.61   77.17
   0   1  -5 2122.66   78.36
   0   1  -5 2340.40   75.92
   0   1  -5 2197.49   66.91
   0   1  -5 2286.51   76.55
   0   1  -5 1952.42   71.75
   0  -1   5 2130.58   65.67
   0  -1   5 1734.34   66.69
   0   1  -5 2268.65   74.77
   0  -1   5 2287.02   69.07
   0  -1   5 2062.73   71.18
   0  -1   5 2089.95   84.58
   0  -1   5 2035.77   66.43
   0  -1   5 2089.54   66.82
   0   1  -5 2036.05   68.23
   0   1  -5 2099.63   67.96
   0  -1   4 1501.97   51.06
   0  -1   4 1272.04   42.30
   0  -1   4 1357.29   41.55
   0   1  -4 1331.29   44.51
   0  -1   4 1292.86   45.94
   0   1  -4 1406.88   42.87
   0  -1   4 1167.32   42.32
   0   1  -4 1360.01   43.69
   0   1  -4 1357.71   48.51
   0   1  -4 1452.96   49.41
   0   1  -4 1386.92   46.89
   0  -1   4 1481.32   44.32
   0  -1   4 1283.79   42.10
   0   1  -4 1383.31   49.49
   0   1  -4 1302.75   43.65
   0  -1   4 1329.87   55.77
   0   1  -4 1393.32   48.39
   0   1  -4 1333.83   51.34
   0   1  -4 1466.95   49.93
   0   1  -3  308.47   11.47
   0   1  -3  319.45   14.07
   0   1  -3  300.91   12.17
   0  -1   3  324.53   10.51
   0  -1   3  316.72   12.31
   0  -1   3  341.76   10.79
   0   1  -2  267.24    9.00
   0  -1   2  220.47   10.11
   0   1  -2  269.90    9.48
   0  -1   2  245.51    9.36
   0   1  -2  226.35    9.18
   0   1  -1 2704.11   76.69
   0   1  -1 2738.65   76.55
   0   1  -1 2627.96   76.58
   0   1  -1 2894.18   76.71
   0  -1   1 2384.55   76.79
   0  -1   1 2215.95   75.18
   0   1  -1 2631.73   76.15
   0   1  -1 2331.03   74.61
   0  -1   1 2326.39   74.57
   0  -1   1 2247.94   75.77
   0  -1   1 3110.49   78.82
   0   1   0  707.32   22.17
   0  -1   0  758.79   22.35
   0   1   0  723.03   23.04
   0   1   0  696.32   23.25
   0   1   0  711.11   23.43
   0   1   0  697.67   23.34
   0   1   1 3943.82  122.05
   0  -1  -1 4231.87  123.49
   0   1   1 4250.48  123.11
   0   1   2 1357.78   42.44
   0  -1  -2 1375.88   40.39
   0  -1  -2 1380.47   43.04
   0   1   2 1386.26   40.15
   0  -1  -3 1040.86   37.35
   0  -1  -3 1139.93   33.98
   0  -1  -3 1075.91   34.47
   0   1   3 1093.76   36.90
   0   1   3 1170.52   33.48
   0   1   4  148.65    6.82
   0  -1  -4  163.64   10.39
   0  -1  -4  139.44   11.73
   0  -1  -4  135.35    9.22
   0   1   4  136.99   11.16
   0   1   4  158.67    9.30
   0  -1  -4  160.09    6.66
   0  -1  -4  149.63   10.22
   0  -1  -4  146.77   11.67
   0  -1  -4  151.42    7.65
   0   1   4  155.25    6.94
   0   1   4  154.26   11.13
   0   1   4  142.28    6.78
   0   1   4  161.40    5.96
   0  -1  -4  146.03    8.25
   0  -1  -4  147.93   10.67
   0  -1  -4  171.46    9.75
   0  -1  -4  153.36    7.97
   0  -1  -4  147.08   10.60
   0   1   4  127.84    6.95
   0  -1  -4  152.56    7.13
   0  -1  -5  249.67   11.79
   0  -1  -5  294.75   17.18
   0  -1  -5  273.15   15.97
   0  -1  -5  270.74   10.34
   0   1   5  236.81   13.77
   0  -1  -5  259.44   17.83
   0  -1  -5  254.09   12.76
   0   1   5  277.24   17.22
   0  -1  -5  295.73   14.98
   0   1   5  238.48   11.40
   0  -1  -5  253.89   12.29
   0  -1  -5  253.22   18.30
   0   1   5  240.57   10.61
   0  -1  -5  210.90   13.66
   0  -1  -5  266.34   16.48
   0   1   5  242.88   17.27
   0   1   5  257.97   11.02
   0  -1  -5  258.94   11.06
   0  -1  -5  298.14   16.30
   0   1   5  244.69   10.85
   0  -1  -6   88.52    8.64
   0  -1  -6   95.04    7.59
   0   1   6  117.77   11.77
   0  -1  -6   92.38   11.65
   0  -1  -6   96.74    6.97
   0   1   6   95.27    6.13
   0   1   6   91.20    6.82
   0  -1  -6  104.12   10.66
   0  -1  -6  115.71   10.41
   0  -1  -6  101.94    7.51
   0   1   6   89.72   10.95
   0   1   6   91.24    8.57
   0  -1  -6  117.12    9.57
   0   1   6  105.98    7.54
   0   1   6  100.99    6.42
   0  -1  -6  105.98   10.74
   0  -1  -6   93.91   11.22
   0  -1  -6  104.81   10.23
   0   1   6   95.24    6.32
   0  -1  -6  100.66    6.37
   0  -1  -6  115.49    5.82
   0  -1  -7  675.82   34.11
   0  -1  -7  672.64   32.47
   0   1   7  578.09   25.40
   0  -1  -7  630.64   24.01
   0  -1  -7  585.85   35.99
   0   1   7  601.41   23.83
   0  -1  -7  649.70   33.46
   0  -1  -7  651.84   32.32
   0   1   7  679.58   35.19
   0   1   7  637.74   24.58
   0  -1  -7  632.85   26.53
   0  -1  -7  634.23   25.61
   0  -1  -7  502.93   25.60
   0   1   7  607.12   29.45
   0   1   7  599.13   35.23
   0  -1  -7  600.25   29.51
   0   1   7  650.65   24.54
   0   1   7  653.22   26.64
   0  -1  -7  657.15   36.62
   0  -1  -8  238.51   12.21
   0  -1  -8  234.65   14.64
   0   1   8  239.62   17.34
   0  -1  -8  228.75   22.54
   0   1   8  214.11   13.80
   0  -1  -8  232.46   14.97
   0  -1  -8  242.67   20.30
   0  -1  -8  237.87   14.89
   0  -1  -8  247.72   19.33
   0   1   8  238.48   12.92
   0   1   8  232.36   10.84
   0   1   8  236.21   13.20
   0   1   8  239.34   20.85
   0   1   8  275.06   13.61
   0  -1  -8  240.86   14.60
   0  -1  -8  220.35   21.20
   0   1   8  261.47   15.27
   0  -1  -8  239.44   13.99
   0  -1  -8  256.63   12.74
   0  -1  -8  240.86   11.73
   0   1   8  226.07   12.69
   0  -1  -8  241.24   19.94
   0  -1  -8  251.07   19.22
   0   1   8  214.95   21.17
   0  -1  -8  238.07   15.61
   0  -1  -9  382.38   21.57
   0   1   9  432.62   30.99
   0  -1  -9  410.15   17.60
   0  -1  -9  419.65   21.92
   0  -1  -9  381.89   31.62
   0   1   9  410.05   20.28
   0  -1  -9  429.23   21.25
   0   1   9  406.10   21.67
   0  -1  -9  440.08   29.99
   0  -1  -9  412.13   18.70
   0   1   9  399.87   19.48
   0  -1  -9  443.83   19.39
   0  -1  -9  412.69   22.62
   0  -1  -9  422.05   23.02
   0   1   9  424.24   17.31
   0  -1  -9  422.38   18.17
   0   1   9  431.99   17.64
   0   1   9  410.77   25.57
   0   1   9  412.15   20.05
   0   1   9  445.22   22.75
   0  -1  -9  410.97   31.64
   0   1   9  421.33   17.05
   0   1   9  408.71   16.89
   0  -1  -9  427.07   18.53
   0  -1  -9  432.65   18.17
   0  -1  -9  405.42   27.37
   0  -1  -9  448.10   29.87
   0   1   9  368.94   30.67
   0  -1  -9  418.33   17.17
   0  -1  -9  416.23   27.39
   0   1   9  440.25   19.99
   0  -1  -9  433.61   21.82
   0  -1 -10   11.63    3.23
   0   1  10   14.82    3.02
   0   1  10   16.83    2.58
   0   1  10   11.95    2.69
   0  -1 -10   13.78    2.26
   0  -1 -10   18.16    3.76
   0   1  10   17.97    2.61
   0  -1 -10   17.82    3.93
   0  -1 -10   16.26    2.66
   0  -1 -10   10.10    3.10
   0   1  10   15.25    2.34
   0   1  10   15.05    2.28
   0  -1 -10   17.40    2.81
   0  -1 -10   15.03    2.60
   0  -1 -10   13.22    3.52
   0   1  10   10.86    2.82
   0  -1 -10   12.90    2.46
   0  -1 -10   17.53    3.00
   0  -1 -11   -0.02    1.13
   0  -1 -11    1.83    1.10
   0   1  11    3.68    1.36
   0  -1 -11    3.92    2.23
   0  -1 -11    1.82    0.87
   0  -1 -11    1.45    0.73
   0   1  11    0.54    0.47
   0  -1 -11    2.93    1.79
   0   1  11    1.03    0.56
   0  -1 -11    2.49    0.80
   0  -1 -11    1.05    1.06
   0  -1 -11    2.37    1.05
   0   1  11    2.18    0.89
   0  -1 -11    2.85    1.58
   0   1  11    2.08    0.84
   0   1  12    1.36    0.72
   0   1  12    0.94    0.93
   0   1  12    2.01    0.96
   0   1  12    0.18    0.56
   0  -1 -12    1.40    0.80
   0  -1 -12    1.03    0.84
   0  -1 -12    1.40    1.27
   0  -1 -12    0.19    0.49
   0  -1 -12    0.41    0.37
   0   1  12    0.05    0.87
   0  -1 -12   -0.12    0.93
   0  -1 -13   33.40    2.87
   0  -1 -13   32.06    3.17
   0   1  13   36.10    3.76
   0   1  13   40.76    3.37
   0  -1 -13   33.09    3.29
   0  -1 -13   39.26    4.10
   0  -1 -13   35.07    3.96
   0   1  13   25.03    4.00
   0  -1 -14   27.53    2.27
   0  -1 -14   29.84    2.64
   0  -1 -14   26.47    2.52
   0   1  14   29.78    2.57
   0   1  14   25.71    2.08
   0   1  14   26.20    3.04
   0  -1 -14   24.12    2.13
   0   2 -13   25.57    2.44
   0  -2  13   28.59    2.34
   0  -2  13   23.03    2.34
   0   2 -13   22.92    3.08
   0   2 -13   24.05    2.46
   0   2 -13   25.59    2.58
   0   2 -13   25.25    3.16
   0   2 -13   26.78    2.80
   0  -2  13   28.52    3.01
   0   2 -13   21.23    3.23
   0   2 -12   93.72    7.72
   0   2 -12   84.62    7.53
   0   2 -12  102.09    6.38
   0   2 -12   89.59    8.19
   0   2 -12   92.68    6.27
   0   2 -12   89.76    5.45
   0  -2  12   98.42    7.17
   0  -2  12  101.19    5.93
   0   2 -12   92.18    6.52
   0   2 -12   92.77    6.36
   0  -2  12   89.96    5.92
   0  -2  11   35.14    4.48
   0   2 -11   40.00    5.53
   0  -2  11   31.93    4.79
   0  -2  11   36.13    3.56
   0   2 -11   31.70    4.79
   0   2 -11   36.42    4.18
   0   2 -11   31.18    3.86
   0   2 -11   30.77    3.71
   0   2 -11   29.75    3.22
   0   2 -11   35.02    3.74
   0  -2  11   32.09    3.52
   0  -2  11   28.92    4.54
   0   2 -11   33.86    5.49
   0   2 -11   34.65    5.42
   0  -2  10   42.53    6.54
   0   2 -10   42.36    6.03
   0   2 -10   45.66    6.43
   0   2 -10   38.49    6.30
   0   2 -10   43.46    4.36
   0   2 -10   44.30    4.77
   0   2 -10   43.10    4.55
   0  -2  10   48.35    5.96
   0   2 -10   43.74    5.98
   0   2 -10   49.86    6.94
   0   2 -10   47.00    4.30
   0  -2  10   44.73    4.25
   0  -2  10   52.10    4.35
   0  -2  10   46.21    5.89
   0   2 -10   49.59    5.06
   0  -2  10   36.54    4.65
   0  -2   9    1.80    1.18
   0   2  -9    5.01    2.97
   0  -2   9    1.16    1.19
   0   2  -9    1.71    0.89
   0   2  -9    3.56    1.54
   0   2  -9    2.36    1.28
   0   2  -9    1.31    1.23
   0   2  -9    3.70    2.31
   0   2  -9    2.29    1.97
   0  -2   9    2.76    1.25
   0  -2   9    1.24    0.99
   0   2  -9    1.39    1.76
   0   2  -9    1.26    1.36
   0   2  -9    4.86    3.30
   0   2  -9    1.30    0.66
   0  -2   9    2.62    1.40
   0   2  -9    1.85    0.83
   0  -2   9    2.09    1.41
   0  -2   9    1.10    1.14
   0   2  -9    3.49    2.75
   0  -2   9    0.66    1.17
   0   2  -9    3.12    1.16
   0  -2   9   -0.17    1.00
   0   2  -9    3.60    1.76
   0   2  -9    1.66    0.86
   0   2  -9    1.27    2.99
   0  -2   9    1.47    0.91
   0   2  -9    1.41    1.09
   0  -2   9    1.92    0.82
   0  -2   9    2.52    0.84
   0  -2   8    1.28    1.15
   0  -2   8    1.12    0.42
   0   2  -8    3.40    2.52
   0   2  -8   -0.07    0.84
   0  -2   8    0.03    0.36
   0   2  -8    2.40    1.67
   0   2  -8    0.04    0.40
   0   2  -8   -0.87    0.33
   0   2  -8    0.37    0.65
   0   2  -8    1.20    1.19
   0  -2   8    2.95    1.30
   0   2  -8   -0.03    0.30
   0   2  -8   -0.73    1.39
   0   2  -8   -1.15    1.44
   0  -2   8    0.11    1.82
   0   2  -8    1.45    1.22
   0  -2   8    0.30    2.19
   0  -2   8    0.25    0.86
   0  -2   8    0.72    0.92
   0  -2   8    0.40    0.89
   0   2  -8    0.17    0.21
   0   2  -8   -1.93    2.04
   0   2  -8    3.49    2.10
   0   2  -8    1.16    1.11
   0   2  -8   -5.02    2.69
   0   2  -8    0.14    0.31
   0  -2   8    0.37    0.48
   0   2  -8    1.55    1.45
   0  -2   7   52.64    6.98
   0  -2   7   51.57    5.01
   0   2  -7   53.63    8.58
   0  -2   7   49.06   10.84
   0   2  -7   53.71    5.44
   0   2  -7   48.13    5.46
   0   2  -7   45.76    7.49
   0   2  -7   48.98    5.54
   0   2  -7   54.69    7.63
   0  -2   7   45.10    8.47
   0   2  -7   67.45    5.78
   0  -2   7   52.68    4.84
   0   2  -7   45.74    8.96
   0   2  -7   46.12    7.82
   0  -2   7   55.77    5.93
   0   2  -7   55.95    8.74
   0   2  -7   52.74    8.02
   0  -2   7   46.83    5.23
   0   2  -6  795.04   38.35
   0   2  -6  981.71   42.40
   0   2  -6  895.07   45.34
   0   2  -6 1042.60   44.06
   0   2  -6 1032.48   34.90
   0  -2   6  968.34   38.83
   0  -2   6 1067.77   36.27
   0   2  -6  950.48   34.61
   0   2  -6  932.05   35.21
   0   2  -6  991.26   43.69
   0  -2   6  820.44   33.67
   0   2  -6  983.25   33.20
   0   2  -6  953.03   35.72
   0  -2   6  997.50   53.31
   0   2  -6 1006.24   42.85
   0  -2   6 1050.98   45.79
   0  -2   6  958.79   33.23
   0  -2   6  960.70   33.77
   0   2  -6 1019.68   42.34
   0   2  -5  903.81   37.87
   0  -2   5  866.53   45.22
   0   2  -5  912.09   37.45
   0   2  -5  861.86   37.60
   0  -2   5  988.61   39.99
   0  -2   5  981.63   31.98
   0  -2   5  817.52   29.00
   0   2  -5  853.24   36.50
   0   2  -5  851.81   31.76
   0  -2   5  872.61   27.86
   0   2  -5  966.74   31.23
   0   2  -5  832.04   39.63
   0   2  -5  884.24   29.73
   0   2  -5  807.16   30.82
   0  -2   5  891.20   34.20
   0  -2   5  709.70   29.36
   0   2  -5  882.31   30.75
   0   2  -5  865.53   30.78
   0   2  -5  860.02   34.98
   0   2  -5  868.39   36.34
   0  -2   5  848.98   29.55
   0   2  -4  873.16   33.90
   0  -2   4  745.44   27.10
   0   2  -4  903.51   28.29
   0   2  -4  909.98   28.94
   0   2  -4  885.56   34.08
   0  -2   4  841.72   40.46
   0   2  -4  806.31   28.51
   0  -2   4  844.73   31.29
   0   2  -4  785.75   28.31
   0  -2   4  745.72   27.26
   0  -2   4  927.97   26.72
   0   2  -4  759.90   28.46
   0   2  -4  871.28   34.39
   0  -2   4  891.31   29.29
   0   2  -4  814.70   27.31
   0   2  -4  782.00   29.48
   0   2  -4  783.58   31.69
   0   2  -4  815.82   32.94
   0   2  -4  834.53   34.20
   0   2  -4  807.14   33.14
   0  -2   4  600.14   33.27
   0  -2   4  784.26   26.85
   0  -2   4  823.39   25.85
   0  -2   3 1047.30   41.43
   0   2  -3  953.09   34.67
   0   2  -3 1003.72   31.10
   0  -2   3  862.09   29.77
   0   2  -3 1031.78   31.44
   0  -2   3  837.24   29.73
   0   2  -3  937.12   31.27
   0  -2   3  921.41   33.14
   0   2  -3  892.81   33.76
   0  -2   3  944.90   31.37
   0   2  -3 1060.32   35.86
   0   2  -3 1006.88   35.92
   0  -2   3  727.77   35.27
   0   2  -3  951.85   34.92
   0   2  -3  921.61   31.13
   0  -2   3 1092.06   30.39
   0   2  -3 1009.63   35.51
   0   2  -3  909.98   31.00
   0   2  -3  945.56   35.58
   0   2  -3  984.01   30.41
   0  -2   3  861.41   29.47
   0   2  -2  581.02   22.57
   0  -2   2  557.72   20.09
   0   2  -2  620.59   23.16
   0   2  -2  640.23   23.35
   0  -2   2  602.50   18.99
   0   2  -2  610.68   20.34
   0   2  -2  593.27   23.39
   0  -2   2  520.87   23.59
   0   2  -2  552.15   20.01
   0   2  -2  602.84   23.43
   0  -2   2  707.25   27.06
   0   2  -1    5.42    0.79
   0   2  -1    4.91    1.23
   0  -2   1    6.80    0.65
   0  -2   1    4.87    0.89
   0   2  -1    5.07    0.84
   0  -2   1    6.48    1.01
   0   2   0  434.23   13.35
   0   2   0  375.38   13.39
   0  -2   0  394.99   13.70
   0   2   0  384.38   15.42
   0   2   0  374.42   15.47
   0   2   0  387.71   14.99
   0  -2  -1 1649.49   49.81
   0   2   1 1679.23   49.38
   0   2   1 1585.77   47.84
   0  -2  -2 5528.78  171.54
   0   2   2 5510.65  169.00
   0   2   2 5933.41  171.21
   0  -2  -2 5879.81  168.81
   0   2   2 5229.03  168.19
   0   2   2 5066.83  168.44
   0  -2  -3  486.13   22.52
   0  -2  -3  472.41   17.87
   0   2   3  449.21   16.92
   0  -2  -3  468.05   18.83
   0  -2  -3  486.37   20.27
   0   2   3  535.58   20.08
   0  -2  -3  528.79   17.03
   0  -2  -3  499.10   20.62
   0   2   3  622.38   17.69
   0   2   3  480.17   16.37
   0   2   3  423.28   22.19
   0  -2  -3  495.71   17.55
   0  -2  -3  492.95   20.55
   0   2   3  423.52   21.46
   0   2   3  455.46   17.00
   0  -2  -3  451.01   22.49
   0  -2  -3  506.31   21.34
   0   2   3  436.19   22.15
   0  -2  -3  484.10   18.20
   0  -2  -4    6.86    2.33
   0  -2  -4    4.37    2.14
   0  -2  -4    8.57    1.70
   0   2   4    8.90    1.28
   0   2   4    5.46    2.22
   0  -2  -4    7.87    2.06
   0   2   4    7.27    1.33
   0   2   4   14.06    2.63
   0  -2  -4   11.29    2.68
   0  -2  -4    7.16    1.52
   0  -2  -4    5.40    2.08
   0   2   4    7.49    1.22
   0  -2  -4    7.47    1.39
   0  -2  -4    7.53    1.18
   0  -2  -4    6.57    2.12
   0   2   4    8.02    2.36
   0  -2  -4    7.63    1.77
   0   2   4    8.60    1.26
   0   2   4   11.49    1.29
   0  -2  -4    7.13    2.52
   0   2   5   93.90    5.90
   0   2   5   96.86    8.17
   0  -2  -5   91.83    7.23
   0  -2  -5  106.61    9.27
   0   2   5   86.49    6.10
   0  -2  -5   97.76   10.54
   0  -2  -5   91.24    6.42
   0   2   5   95.52    9.86
   0  -2  -5   97.66    6.91
   0  -2  -5  106.05    5.59
   0  -2  -5   83.91    7.92
   0  -2  -5   99.95    9.75
   0  -2  -5  100.51    9.02
   0   2   5  117.61    5.74
   0   2   5   92.76    5.82
   0  -2  -5   95.61    6.03
   0  -2  -5   85.16   10.11
   0  -2  -5  108.32    9.77
   0   2   5   90.92   10.23
   0   2   5   94.32    5.57
   0  -2  -6  194.61   17.28
   0  -2  -6  220.66    9.51
   0   2   6  227.72   17.32
   0  -2  -6  197.91   11.17
   0  -2  -6  195.60   10.24
   0  -2  -6  204.14   15.84
   0   2   6  191.17   17.00
   0  -2  -6  193.25   16.70
   0   2   6  199.36    9.87
   0  -2  -6  170.66   13.16
   0  -2  -6  198.12   12.24
   0  -2  -6  208.17   14.88
   0   2   6  188.66   10.11
   0  -2  -6  206.81   15.01
   0  -2  -6  217.32   15.92
   0   2   6  197.55   10.95
   0  -2  -6  199.07   11.68
   0   2   6  200.85   13.67
   0   2   6  197.60   10.26
   0  -2  -7  167.36   11.38
   0   2   7  170.65   16.44
   0   2   7  183.32   11.66
   0  -2  -7  193.16   15.18
   0   2   7  178.54   10.33
   0  -2  -7  164.17   11.85
   0  -2  -7  185.96   15.21
   0   2   7  171.94   10.81
   0  -2  -7  174.34   17.07
   0  -2  -7  173.57   11.01
   0  -2  -7  184.90   15.92
   0  -2  -7  186.78   10.27
   0   2   7  170.02   10.12
   0  -2  -7  163.73   17.15
   0  -2  -7  191.69   16.35
   0   2   7  166.30   13.40
   0  -2  -7  142.14   12.76
   0   2   7  158.74   16.80
   0   2   8  209.06   13.81
   0   2   8  202.02   16.05
   0  -2  -8  216.41   17.84
   0  -2  -8  207.56   20.95
   0  -2  -8  197.76   12.91
   0  -2  -8  196.43   14.04
   0   2   8  215.79   12.42
   0  -2  -8  203.68   13.11
   0  -2  -8  198.24   13.51
   0  -2  -8  218.90   17.67
   0  -2  -8  207.05   11.26
   0  -2  -8  206.81   13.55
   0  -2  -8  219.18   18.71
   0  -2  -8  220.97   11.05
   0   2   8  184.43    9.71
   0   2   8  190.94    9.78
   0  -2  -8  204.58   20.21
   0   2   8  209.39   10.51
   0   2   8  175.03   19.38
   0   2   8  200.73   12.11
   0  -2  -8  214.16   10.32
   0  -2  -8  212.90   11.99
   0  -2  -8  213.53   14.56
   0   2   8  209.20   19.76
   0  -2  -8  204.06   10.54
   0  -2  -8  193.22   15.69
   0   2   8  185.65   11.54
   0  -2  -9  158.41   15.67
   0  -2  -9  156.20    8.71
   0   2   9  137.24   16.82
   0  -2  -9  146.36   12.28
   0  -2  -9  156.60   10.33
   0   2   9  154.68   10.52
   0  -2  -9  137.75   17.37
   0   2   9  151.96    8.64
   0  -2  -9  151.11   15.27
   0   2   9  146.74   10.52
   0  -2  -9  145.88    9.48
   0   2   9  165.09   12.62
   0   2   9  125.11   17.01
   0  -2  -9  149.38   12.60
   0  -2  -9  138.22   11.57
   0   2   9  161.81    9.18
   0  -2  -9  142.68   15.97
   0   2   9  119.06   16.48
   0  -2  -9  136.14   17.78
   0  -2  -9  148.91    9.22
   0  -2  -9  152.78    9.01
   0   2   9  148.84   10.91
   0   2   9  130.13   13.52
   0  -2  -9  138.01   11.01
   0  -2  -9  157.97   11.61
   0  -2  -9  151.27   11.66
   0   2   9  136.61    8.26
   0  -2 -10    6.36    1.69
   0   2  10    7.82    2.26
   0   2  10    9.17    2.44
   0  -2 -10    3.83    1.99
   0  -2 -10    7.68    2.35
   0  -2 -10    6.72    2.32
   0   2  10    6.82    1.55
   0  -2 -10    8.24    2.36
   0  -2 -10    5.28    1.96
   0   2  10    6.36    2.16
   0  -2 -10    7.45    1.82
   0  -2 -10    7.79    2.06
   0   2  10    8.79    1.92
   0   2  10    7.08    1.72
   0  -2 -10    8.00    1.73
   0  -2 -11   34.10    5.86
   0  -2 -11   38.06    4.22
   0   2  11   38.71    3.94
   0   2  11   39.35    4.87
   0  -2 -11   39.46    5.28
   0   2  11   32.79    4.86
   0  -2 -11   31.91    5.33
   0   2  11   39.99    4.21
   0   2  11   40.47    4.10
   0  -2 -11   36.89    3.76
   0  -2 -11   40.00    5.53
   0   2  11   28.48    5.49
   0  -2 -11   40.18    5.79
   0  -2 -11   37.05    3.94
   0  -2 -11   36.19    4.30
   0  -2 -12   92.67    6.56
   0  -2 -12  102.40    8.13
   0   2  12  105.03    7.59
   0  -2 -12   95.54    5.83
   0   2  12  105.50    6.56
   0  -2 -12   86.80    6.51
   0  -2 -12   90.06    8.21
   0  -2 -12   99.90    7.86
   0  -2 -12   93.36    6.15
   0   2  12   82.92    8.68
   0   2  12   98.90    6.48
   0  -2 -13   23.13    3.04
   0   2  13   20.54    2.25
   0   2  13   19.87    3.42
   0  -2 -13   23.92    3.05
   0   2  13   22.84    2.85
   0  -2 -13   19.45    2.12
   0   2  13   23.40    2.46
   0  -2 -13   19.66    2.43
   0  -2 -13   21.03    2.45
   0   3 -13   36.74    3.96
   0   3 -13   42.31    3.36
   0   3 -13   40.11    3.16
   0   3 -13   39.84    3.85
   0  -3  13   43.25    3.12
   0   3 -13   43.45    3.11
   0   3 -13   41.06    3.82
   0  -3  13   39.58    2.64
   0   3 -13   39.29    3.00
   0   3 -12   43.37    3.69
   0   3 -12   41.91    3.86
   0  -3  12   43.74    4.13
   0   3 -12   37.06    3.72
   0   3 -12   36.72    4.48
   0   3 -12   41.56    3.99
   0   3 -12   41.41    4.88
   0   3 -12   34.77    4.67
   0  -3  12   38.20    3.50
   0  -3  11    8.37    2.09
   0   3 -11   10.63    3.07
   0   3 -11    7.47    2.56
   0   3 -11    8.14    2.14
   0   3 -11    9.54    1.83
   0   3 -11    8.46    1.92
   0  -3  11    9.04    2.49
   0   3 -11    8.75    2.54
   0   3 -11    9.88    2.95
   0  -3  11    7.56    1.44
   0   3 -11    9.83    2.00
   0  -3  11    9.12    1.80
   0  -3  11   10.22    2.64
   0   3 -11    8.97    1.91
   0  -3  10    9.86    2.74
   0   3 -10   11.07    3.08
   0  -3  10    8.44    2.15
   0  -3  10   11.51    2.04
   0   3 -10    9.84    2.82
   0  -3  10    7.96    1.67
   0   3 -10    8.92    2.73
   0  -3  10   11.32    2.76
   0  -3  10    7.32    2.60
   0   3 -10    6.44    1.81
   0   3 -10    9.94    2.15
   0   3 -10    9.22    3.48
   0   3 -10    7.50    1.89
   0   3 -10    7.68    2.50
   0   3 -10   10.75    3.03
   0   3 -10    7.44    1.65
   0   3  -9   46.75    6.57
   0   3  -9   44.70    4.56
   0   3  -9   51.83    6.69
   0  -3   9   52.42    4.43
   0  -3   9   54.86    7.04
   0   3  -9   51.77    4.61
   0   3  -9   39.81    5.42
   0   3  -9   51.83    6.63
   0   3  -9   46.48    6.19
   0   3  -9   44.84    7.99
   0  -3   9   53.46    6.17
   0  -3   9   52.12    5.20
   0  -3   9   44.79    4.88
   0  -3   9   57.47    6.21
   0   3  -9   46.73    4.81
   0   3  -9   48.49    5.03
   0   3  -9   44.18    6.60
   0  -3   9   49.89    4.43
   0  -3   9   51.47    6.61
   0  -3   8    1.86    1.15
   0  -3   8    2.07    0.81
   0  -3   8    2.95    2.45
   0  -3   8    2.65    1.40
   0  -3   8    1.70    0.76
   0   3  -8    4.18    2.63
   0   3  -8    1.36    0.85
   0   3  -8    3.84    1.31
   0   3  -8    1.16    1.35
   0   3  -8    1.81    0.91
   0  -3   8    2.13    1.02
   0   3  -8   -1.82    1.68
   0   3  -8    3.81    1.68
   0  -3   8    2.77    1.35
   0  -3   8   -0.33    2.06
   0   3  -8    2.47    1.00
   0  -3   8    2.45    0.72
   0   3  -8    2.66    2.41
   0   3  -8    1.17    0.70
   0   3  -8    2.96    1.70
   0  -3   8    3.17    1.38
   0  -3   8    3.21    1.18
   0   3  -8   -0.87    2.96
   0   3  -8    4.04    2.33
   0   3  -8    4.11    3.28
   0   3  -8    2.77    1.82
   0   3  -8    2.71    1.16
   0   3  -8    2.40    1.62
   0  -3   7    0.58    0.29
   0  -3   7    0.61    0.65
   0   3  -7   -0.52    1.85
   0  -3   7    5.19    2.84
   0  -3   7    0.08    0.92
   0   3  -7   -0.24    0.54
   0  -3   7    2.86    1.14
   0   3  -7    1.41    1.18
   0   3  -7    0.78    0.88
   0  -3   7    1.38    1.65
   0   3  -7    0.66    0.72
   0  -3   7    1.10    0.81
   0   3  -7    1.63    1.76
   0   3  -7   -3.48    2.17
   0   3  -7    0.88    2.28
   0   3  -7    2.67    2.87
   0   3  -7    1.51    1.51
   0   3  -7   -0.24    0.64
   0  -3   6  232.45   14.87
   0   3  -6  191.97   11.50
   0   3  -6  202.66   15.58
   0   3  -6  189.79   17.79
   0   3  -6  212.38   11.55
   0   3  -6  213.56   10.34
   0  -3   6  177.47   10.59
   0  -3   6  201.09   10.56
   0  -3   6  210.02   22.30
   0   3  -6  190.68   16.21
   0   3  -6  183.17   14.49
   0   3  -6  186.44   11.01
   0  -3   6  211.16   17.73
   0   3  -6  234.68   11.82
   0  -3   6  203.23   10.18
   0   3  -6  198.97   16.03
   0   3  -6  201.81   11.96
   0  -3   6  232.77   12.57
   0   3  -6  214.59   16.87
   0   3  -6  195.92   15.73
   0   3  -5   56.72    7.07
   0  -3   5   56.23    4.06
   0  -3   5   52.27    6.00
   0   3  -5   55.68    7.34
   0  -3   5   57.37   10.28
   0   3  -5   56.71    6.83
   0  -3   5   52.23    4.24
   0   3  -5   56.33    4.11
   0   3  -5   55.44    7.22
   0   3  -5   56.30    7.54
   0   3  -5   51.95    4.76
   0   3  -5   52.64    7.42
   0   3  -5   46.54    4.97
   0   3  -5   55.47    4.97
   0  -3   5   56.70    5.19
   0  -3   5   43.02    4.10
   0   3  -5   51.48    4.89
   0   3  -5   54.54    4.83
   0  -3   4  386.63   13.06
   0  -3   4  277.95   12.07
   0   3  -4  305.74   17.92
   0   3  -4  289.43   12.04
   0   3  -4  320.01   17.87
   0  -3   4  280.95   11.94
   0   3  -4  310.62   17.58
   0   3  -4  313.91   17.96
   0   3  -4  342.78   13.56
   0   3  -4  297.00   16.37
   0   3  -4  313.42   13.32
   0  -3   4  335.04   23.21
   0  -3   4  287.54   11.54
   0  -3   4  335.94   14.05
   0   3  -4  278.00   13.15
   0   3  -4  298.61   16.88
   0   3  -4  310.05   17.34
   0  -3   4  243.18   17.92
   0   3  -4  276.08   13.04
   0   3  -4  258.45   12.85
   0  -3   3  533.70   18.94
   0   3  -3  642.43   25.51
   0   3  -3  575.83   24.31
   0  -3   3  500.93   25.81
   0   3  -3  591.67   24.91
   0   3  -3  561.29   25.18
   0  -3   3  521.48   18.91
   0   3  -3  526.78   23.48
   0   3  -3  558.96   20.43
   0  -3   3  541.98   18.55
   0   3  -3  573.18   24.46
   0  -3   3  582.63   20.94
   0   3  -3  513.88   20.31
   0  -3   3  663.46   31.04
   0   3  -3  569.95   20.69
   0   3  -3  592.67   25.39
   0   3  -3  539.33   20.50
   0   3  -3  628.50   21.29
   0   3  -2   91.87    5.67
   0  -3   2   72.87    3.82
   0  -3   2   71.21    6.16
   0  -3   2   96.86    8.78
   0   3  -2   92.30    7.12
   0   3  -2   82.51    6.56
   0   3  -2   89.57    5.20
   0   3  -2   78.01    6.88
   0  -3   2   89.45    5.56
   0   3  -2   80.94    4.85
   0  -3   2   80.98    5.08
   0   3  -2   73.17    4.81
   0  -3   2   78.18    3.79
   0   3  -2   73.88    6.28
   0  -3   2   76.97    7.23
   0   3  -2   85.06    6.85
   0   3  -2   83.51    7.03
   0   3  -1  231.90    9.78
   0  -3   1  219.21    9.53
   0  -3   1  233.95    7.53
   0   3  -1  211.18   11.29
   0  -3   1  207.39    9.51
   0   3  -1  188.62    8.25
   0   3  -1  198.37    8.77
   0   3  -1  205.82   11.41
   0   3  -1  195.61   10.68
   0   3  -1  220.20   11.51
   0   3  -1  207.85   11.60
   0  -3   1  213.28    9.17
   0  -3   1  218.91   12.11
   0   3  -1  176.52   10.57
   0  -3   1  259.81   13.46
   0  -3   1  204.97   10.69
   0   3  -1  200.05    9.07
   0   3   0  111.44    5.75
   0  -3   0  119.97    6.49
   0   3   0  123.68    7.91
   0  -3   0  118.19    7.47
   0   3   0  111.75    7.78
   0  -3   0  137.74    4.41
   0  -3   0  133.38    8.42
   0   3   0  113.92    7.76
   0  -3   0  113.63    6.07
   0  -3   0  111.63    5.96
   0   3   0  114.81    6.07
   0   3   0  116.76    6.10
   0   3   0  110.39    7.26
   0  -3   0  118.77    6.92
   0  -3   0  150.33    9.00
   0  -3   0  127.70    7.38
   0   3   0  124.57    5.59
   0  -3   0  132.97    7.49
   0   3   0  111.60    7.96
   0  -3  -1  223.51    9.75
   0  -3  -1  269.88   13.11
   0   3   1  209.70   11.83
   0   3   1  223.71    9.48
   0   3   1  203.76    8.61
   0   3   1  243.54    9.82
   0   3   1  222.76   11.41
   0   3   1  196.38   11.90
   0   3   1  209.20    9.02
   0  -3  -1  264.07   12.76
   0  -3  -1  256.00   11.33
   0  -3  -1  226.29   11.36
   0  -3  -1  224.97   10.68
   0   3   1  210.64   12.13
   0   3   1  219.98   10.43
   0  -3  -1  232.31   11.08
   0  -3  -1  217.22    9.28
   0  -3  -2   99.41    7.20
   0   3   2   97.53    6.52
   0   3   2   92.46    8.08
   0  -3  -2  105.87    8.02
   0   3   2   94.72    5.28
   0   3   2   80.32    4.79
   0   3   2   86.33    7.79
   0   3   2  121.03    5.88
   0  -3  -2   92.68    6.74
   0  -3  -2   94.11    5.18
   0  -3  -2  105.97    8.28
   0  -3  -2   86.14    5.38
   0  -3  -2   99.71    6.85
   0   3   2  106.38    5.59
   0   3   2   87.61    7.61
   0  -3  -2  100.08    6.88
   0  -3  -2   93.08    6.35
   0  -3  -3  131.98    7.65
   0   3   3  124.68   10.93
   0  -3  -3  144.45    9.54
   0  -3  -3  145.29    8.84
   0  -3  -3  147.17    9.62
   0  -3  -3  154.99    9.74
   0  -3  -3  151.56   11.08
   0  -3  -3  144.57   11.11
   0   3   3  135.06   10.78
   0   3   3  157.78    9.46
   0  -3  -3  145.10    7.71
   0  -3  -3  138.31    7.75
   0   3   3  140.49   11.41
   0   3   3  139.85    7.37
   0  -3  -3  156.57   10.31
   0   3   3  175.85    7.86
   0   3   3  130.31    6.98
   0  -3  -3  145.91    7.17
   0  -3  -4  227.71   16.09
   0   3   4  232.36   16.03
   0  -3  -4  246.90   14.24
   0  -3  -4  255.58   14.32
   0   3   4  224.98   16.49
   0  -3  -4  213.59   11.19
   0   3   4  244.65   13.66
   0   3   4  201.12   15.79
   0  -3  -4  223.99   10.99
   0  -3  -4  224.77   12.59
   0  -3  -4  240.31   10.40
   0   3   4  272.29   10.99
   0  -3  -4  248.68   14.86
   0   3   4  211.21   10.42
   0  -3  -4  210.59   13.26
   0  -3  -4  225.15   11.45
   0   3   4  224.41   10.02
   0  -3  -4  226.79   15.48
   0  -3  -5   84.69    5.46
   0  -3  -5   83.81    9.72
   0  -3  -5   86.69    8.47
   0  -3  -5   83.19    6.44
   0   3   5  103.42    5.93
   0   3   5   77.49    5.73
   0   3   5   76.51    7.66
   0  -3  -5   84.49    7.43
   0  -3  -5   88.34    9.00
   0  -3  -5   85.79   10.14
   0  -3  -5   79.54    6.42
   0  -3  -5   81.48    6.03
   0   3   5   83.27   10.26
   0  -3  -5   65.16    7.34
   0   3   5   75.98    9.92
   0   3   5   84.37    9.89
   0  -3  -5   87.25    8.60
   0   3   5   83.76    5.57
   0  -3  -6  146.96   10.77
   0  -3  -6  138.82   12.02
   0   3   6  139.70    8.28
   0   3   6  127.94   14.14
   0   3   6  128.77    8.51
   0  -3  -6  131.14    8.55
   0  -3  -6  114.96   10.83
   0   3   6  119.65   13.11
   0  -3  -6  122.35   13.60
   0   3   6  126.80   14.24
   0  -3  -6  135.09    9.43
   0  -3  -6  136.35   12.63
   0  -3  -6  150.23    7.95
   0  -3  -6  141.54   12.14
   0  -3  -6  134.86    9.24
   0  -3  -6  141.35   14.06
   0   3   6  141.65   11.61
   0  -3  -7   60.04   10.17
   0   3   7   65.60    6.24
   0   3   7   75.21    6.24
   0  -3  -7   69.27    8.95
   0  -3  -7   70.41    7.03
   0  -3  -7   72.59    6.39
   0  -3  -7   67.98    7.66
   0   3   7   65.98   10.98
   0  -3  -7   69.15   10.49
   0  -3  -7   75.06    9.87
   0  -3  -7   58.10    8.03
   0  -3  -7   75.96    5.59
   0   3   7   73.59   11.29
   0   3   7   64.70    8.25
   0  -3  -7   70.35    6.92
   0   3   7   64.47   10.34
   0  -3  -7   70.83    9.14
   0  -3  -8   48.88    8.61
   0  -3  -8   63.02    6.79
   0  -3  -8   61.65    5.21
   0   3   8   59.06    4.82
   0  -3  -8   53.73    6.59
   0  -3  -8   59.19    4.97
   0   3   8   34.96    6.05
   0  -3  -8   61.77    7.80
   0  -3  -8   54.31   10.46
   0   3   8   54.19    4.71
   0   3   8   42.29    9.45
   0  -3  -8   50.82    6.66
   0   3   8   45.88    9.79
   0  -3  -8   63.96    9.24
   0  -3  -8   57.11    6.58
   0   3   8   63.53    6.10
   0   3   8   58.74    5.12
   0  -3  -8   55.37   10.15
   0  -3  -8   49.82    6.15
   0   3   8   59.94    8.60
   0   3   8   52.45    6.62
   0   3   8   54.23    6.10
   0   3   8   57.97   10.42
   0  -3  -8   55.81    8.63
   0  -3  -8   50.11    7.71
   0   3   8   47.96    5.07
   0  -3  -8   53.19    5.83
   0  -3  -8   56.76    5.18
   0  -3  -8   52.81    5.16
   0   3   8   54.14    5.66
   0   3   9   29.97    3.93
   0   3   9   38.95    4.29
   0   3   9   38.66    3.98
   0  -3  -9   34.73    5.19
   0  -3  -9   33.14    4.11
   0  -3  -9   37.38    4.01
   0  -3  -9   31.83    5.37
   0  -3  -9   38.83    5.36
   0   3   9   23.85    5.05
   0   3   9   28.80    4.81
   0  -3  -9   36.37    6.19
   0  -3  -9   31.69    4.11
   0   3   9   33.90    3.79
   0  -3  -9   35.96    4.06
   0   3   9   36.78    4.82
   0  -3  -9   40.06    5.67
   0  -3  -9   34.83    4.80
   0  -3 -10  120.46    8.32
   0  -3 -10  117.58   11.68
   0   3  10  125.39   10.73
   0   3  10  114.51    7.76
   0  -3 -10  121.78    9.56
   0  -3 -10  109.91    8.19
   0   3  10  127.35    8.34
   0  -3 -10  115.52    9.87
   0   3  10   86.57   10.25
   0  -3 -10  126.88   10.02
   0  -3 -10  112.32    7.81
   0  -3 -10  106.57   10.26
   0   3  10  105.79    8.67
   0  -3 -10  122.64    7.80
   0   3  10  121.97    7.84
   0   3  11   13.25    3.67
   0  -3 -11   21.29    3.83
   0   3  11   21.14    3.01
   0  -3 -11   17.08    2.61
   0  -3 -11   16.51    2.43
   0   3  11   17.54    2.71
   0   3  11   17.57    3.08
   0  -3 -11   17.02    2.80
   0   3  11   16.09    2.51
   0  -3 -11   17.90    2.94
   0  -3 -11   16.57    3.91
   0  -3 -11   19.16    3.47
   0  -3 -12   57.56    4.85
   0   3  12   59.07    4.65
   0  -3 -12   70.26    6.12
   0  -3 -12   57.80    4.40
   0   3  12   46.02    6.10
   0  -3 -12   65.61    6.01
   0   3  12   61.84    5.43
   0   3  12   64.60    5.01
   0   3  12   66.79    4.84
   0  -3 -12   58.38    4.87
   0  -3 -12   62.26    4.72
   0  -3 -13   16.97    2.36
   0   3  13   12.23    2.55
   0  -3 -13   17.79    2.46
   0   3  13   18.87    2.13
   0   3  13   17.11    1.98
   0  -3 -13   16.04    1.98
   0  -3 -13   17.25    1.91
   0   3  13   19.61    2.37
   0  -3 -13   17.72    2.12
   0   4 -13   14.63    2.03
   0  -4  13   15.38    1.46
   0  -4  13   17.08    1.68
   0   4 -13   14.53    1.90
   0   4 -13   16.18    1.81
   0   4 -13   17.03    1.82
   0   4 -13   13.26    2.01
   0   4 -12    8.73    2.12
   0  -4  12   10.65    1.66
   0   4 -12    9.46    1.71
   0   4 -12    9.66    2.09
   0   4 -12   10.33    1.80
   0   4 -12   10.33    1.74
   0   4 -12   11.23    1.66
   0  -4  12    7.71    1.19
   0   4 -12    8.09    1.85
   0   4 -11   51.34    6.18
   0   4 -11   55.20    4.79
   0   4 -11   55.73    4.83
   0   4 -11   50.04    5.88
   0   4 -11   47.02    5.55
   0   4 -11   48.82    4.73
   0  -4  11   50.12    4.07
   0   4 -11   43.33    5.86
   0   4 -11   56.97    4.45
   0  -4  11   55.68    4.46
   0   4 -10    2.48    1.57
   0  -4  10    2.88    1.05
   0  -4  10    4.11    1.10
   0   4 -10    3.04    1.98
   0  -4  10    4.75    1.97
   0   4 -10    5.64    2.92
   0   4 -10    2.82    1.12
   0   4 -10    4.24    1.38
   0   4 -10    5.30    1.60
   0   4 -10    4.15    1.39
   0   4 -10    3.52    1.55
   0   4 -10    2.69    1.32
   0   4 -10    3.69    1.92
   0  -4  10    1.72    1.39
   0  -4   9  103.54    8.86
   0   4  -9   95.21    9.56
   0   4  -9   91.10    6.28
   0   4  -9   95.54    9.26
   0   4  -9   88.17    9.38
   0   4  -9   86.30    6.78
   0   4  -9   87.40    8.83
   0   4  -9   91.22    6.72
   0  -4   9   96.42    6.55
   0   4  -9   87.19    7.06
   0  -4   9   94.91    6.28
   0  -4   9   93.69    9.45
   0   4  -9   85.54    8.59
   0  -4   9   97.58    8.24
   0  -4   9   88.10    7.07
   0   4  -9  100.77   12.43
   0  -4   8   50.35    5.75
   0   4  -8   45.73    5.96
   0   4  -8   39.56    8.23
   0  -4   8   59.37    6.93
   0  -4   8   46.58    3.97
   0   4  -8   40.64    5.64
   0   4  -8   41.48    7.71
   0   4  -8   27.84    6.43
   0  -4   8   49.75    5.43
   0   4  -8   40.52    7.81
   0  -4   8   26.60    9.84
   0   4  -8   45.72    8.35
   0   4  -8   45.87    6.54
   0   4  -8   39.81    5.27
   0   4  -8   43.48    8.70
   0   4  -8   43.76    5.99
   0  -4   8   41.70    4.10
   0  -4   8   46.77    4.73
   0   4  -8   39.71    4.21
   0   4  -8   30.88    8.29
   0  -4   8   45.48    4.22
   0   4  -8   45.08    6.38
   0   4  -8   44.42    4.67
   0  -4   8   42.54    5.85
   0  -4   8   42.23    9.15
   0   4  -8   51.72    4.96
   0   4  -8   44.70    4.56
   0  -4   7    6.39    2.09
   0   4  -7    8.02    3.69
   0  -4   7    5.34    1.53
   0   4  -7    5.13    1.68
   0   4  -7    6.47    1.58
   0  -4   7    7.33    1.92
   0   4  -7    8.79    3.37
   0  -4   7    5.27    3.49
   0   4  -7    5.55    1.89
   0   4  -7    4.59    1.49
   0   4  -7    2.95    1.48
   0   4  -7    4.76    2.39
   0  -4   7    5.90    1.99
   0   4  -7    4.68    2.37
   0  -4   7    7.98    1.56
   0  -4   7    6.93    1.71
   0   4  -7    5.79    1.91
   0   4  -7    5.21    1.79
   0   4  -7    5.47    1.56
   0  -4   7    6.14    1.25
   0   4  -7    7.72    1.93
   0   4  -7    3.92    1.98
   0  -4   7    1.02    2.13
   0   4  -7    5.92    1.47
   0   4  -7    5.69    2.66
   0  -4   7    6.98    1.57
   0   4  -7    5.84    3.24
   0   4  -6   34.24    6.33
   0   4  -6   40.42    4.89
   0  -4   6   43.47    4.12
   0  -4   6   46.67    5.39
   0   4  -6   34.66    6.51
   0  -4   6   42.13    7.99
   0   4  -6   39.81    4.69
   0   4  -6   43.92    5.21
   0   4  -6   46.53    4.93
   0   4  -6   34.30    6.55
   0  -4   6   45.65   10.91
   0   4  -6   46.33    7.15
   0   4  -6   34.55    6.80
   0  -4   6   34.52    4.22
   0   4  -6   37.78    4.71
   0   4  -6   34.75    6.73
   0  -4   6   37.76    4.16
   0   4  -6   38.39    7.82
   0   4  -5   93.58    7.22
   0  -4   5   83.24    6.32
   0   4  -5   85.20   10.12
   0   4  -5   87.46    6.86
   0   4  -5  101.33   10.85
   0   4  -5   92.97   10.09
   0   4  -5   96.74    7.41
   0  -4   5   74.37   10.70
   0  -4   5  102.85    6.03
   0   4  -5  102.99    7.19
   0   4  -5  103.93   10.79
   0   4  -5   93.61    7.72
   0  -4   5   92.69   13.79
   0   4  -5   94.18    9.83
   0   4  -5  103.39   10.11
   0   4  -5   96.01   10.34
   0  -4   5   97.10    7.59
   0  -4   5   94.06    6.25
   0  -4   4  143.81   13.92
   0   4  -4  157.74   12.32
   0  -4   4  195.13   18.45
   0   4  -4  157.99    9.31
   0   4  -4  149.51    9.14
   0   4  -4  165.32    9.27
   0   4  -4  154.12    9.47
   0  -4   4  161.04    7.63
   0   4  -4  166.92   12.43
   0   4  -4  172.89   13.51
   0  -4   4  153.21    8.07
   0   4  -4  172.98   13.18
   0  -4   4  154.33    8.05
   0  -4   4  192.09    9.51
   0   4  -4  163.68   13.32
   0   4  -4  159.99   12.63
   0   4  -4  170.14    8.39
   0  -4   4  182.29   10.18
   0   4  -4  183.25    9.94
   0   4  -4  174.37   13.23
   0   4  -3   48.71    6.01
   0  -4   3   51.56    3.23
   0   4  -3   49.90    4.56
   0   4  -3   52.95    4.56
   0  -4   3   45.18    6.76
   0   4  -3   52.49    6.63
   0   4  -3   55.63    4.96
   0  -4   3   49.78    3.51
   0   4  -3   55.95    6.61
   0  -4   3   50.21    3.56
   0   4  -3   49.93    6.29
   0   4  -3   55.45    6.74
   0  -4   3   56.19    8.36
   0   4  -3   55.10    6.47
   0  -4   3   55.91    4.83
   0   4  -3   56.56    4.59
   0   4  -3   54.32    6.30
   0   4  -2  170.12   11.59
   0   4  -2  205.80   12.66
   0   4  -2  174.05    9.30
   0   4  -2  192.74   12.76
   0  -4   2  169.10    7.43
   0   4  -2  184.85   12.55
   0  -4   2  166.19   11.30
   0   4  -2  191.62   11.99
   0   4  -2  204.18    9.61
   0   4  -2  207.38   10.69
   0  -4   2  175.37   13.04
   0  -4   2  204.87    9.82
   0  -4   2  221.11   15.67
   0   4  -2  192.37   12.40
   0  -4   2  202.93   10.32
   0  -4   2  166.16    7.32
   0   4  -2  195.32    9.25
   0   4  -1  693.03   28.29
   0   4  -1  694.53   27.93
   0  -4   1  688.64   23.96
   0   4  -1  735.99   28.31
   0  -4   1  695.20   24.58
   0  -4   1  855.08   31.89
   0   4  -1  692.14   28.42
   0   4  -1  632.43   23.71
   0   4  -1  594.72   22.16
   0   4  -1  659.20   26.81
   0  -4   1  655.14   26.48
   0  -4   1  691.78   28.92
   0  -4   1  562.65   20.83
   0   4  -1  692.91   23.45
   0  -4   1  671.46   20.95
   0   4  -1  582.11   26.49
   0   4  -1  752.45   25.14
   0   4   0 3618.11  113.54
   0   4   0 3219.93  105.86
   0   4   0 3485.67  107.55
   0   4   0 3442.75  113.56
   0  -4   0 3509.38  108.62
   0  -4   0 4359.21  116.47
   0   4   0 3435.54  108.16
   0  -4   0 3816.80  114.25
   0  -4   0 3354.06  109.75
   0  -4   0 3245.56  111.22
   0  -4   0 3410.48  108.89
   0  -4   0 3659.01  111.39
   0   4   0 3495.54  106.68
   0   4   0 3730.18  109.01
   0  -4   0 3853.88  111.58
   0   4   0 3446.02  112.91
   0   4   0 3698.77  112.76
   0   4   0 3499.49  111.86
   0   4   1 1097.54   37.68
   0   4   1 1145.95   38.07
   0   4   1 1076.01   42.59
   0   4   1 1075.51   43.02
   0  -4  -1 1035.82   37.53
   0   4   1 1089.46   42.37
   0  -4  -1 1072.94   39.63
   0   4   1 1097.92   39.58
   0   4   1  989.39   36.20
   0  -4  -1 1319.38   43.75
   0  -4  -1 1397.06   44.81
   0   4   1 1151.64   41.62
   0  -4  -1 1232.40   40.96
   0  -4  -1 1130.24   40.44
   0  -4  -1 1112.07   40.96
   0   4   1 1105.05   37.23
   0  -4  -1 1083.01   38.34
   0   4   1 1279.02   36.79
   0   4   2  120.29   10.30
   0   4   2  114.11    9.02
   0  -4  -2  132.15   10.09
   0   4   2   97.55    9.36
   0  -4  -2  102.70    8.06
   0  -4  -2  109.76    6.55
   0   4   2  124.33    7.13
   0   4   2  114.21    6.76
   0   4   2  110.41    9.63
   0  -4  -2  109.63    7.95
   0  -4  -2  102.86    6.90
   0   4   2  112.94    8.03
   0  -4  -2  132.34    8.84
   0  -4  -2  127.18   10.14
   0   4   2  102.64    6.10
   0   4   2  104.70    6.36
   0  -4  -2  116.82    8.84
   0   4   3   36.54    3.67
   0  -4  -3   46.78    5.38
   0  -4  -3   43.19    5.54
   0  -4  -3   46.99    6.29
   0  -4  -3   43.74    5.29
   0   4   3   42.36    6.30
   0   4   3   45.63    5.21
   0   4   3   47.46    4.22
   0   4   3   40.43    3.77
   0  -4  -3   41.35    4.14
   0  -4  -3   52.25    6.76
   0  -4  -3   35.94    4.52
   0   4   3   46.45    6.89
   0   4   3   43.66    3.84
   0  -4  -3   41.48    3.78
   0   4   3   45.14    6.79
   0  -4  -3   35.71    4.86
   0   4   4  515.74   19.79
   0  -4  -4  532.05   25.63
   0  -4  -4  512.27   21.04
   0   4   4  484.83   27.33
   0   4   4  463.80   19.96
   0   4   4  518.66   28.80
   0  -4  -4  491.92   23.07
   0  -4  -4  533.23   27.97
   0  -4  -4  544.24   24.76
   0  -4  -4  442.88   23.44
   0   4   4  577.46   21.01
   0  -4  -4  506.76   19.95
   0  -4  -4  568.76   28.00
   0   4   4  501.01   23.83
   0   4   4  488.36   28.41
   0  -4  -4  554.04   24.85
   0  -4  -5  125.79    8.60
   0  -4  -5  128.53   13.07
   0   4   5  137.20    8.22
   0  -4  -5  142.62   11.52
   0   4   5  123.63   13.15
   0  -4  -5  135.87   11.94
   0   4   5  118.80    8.13
   0  -4  -5  129.70   10.96
   0  -4  -5  139.04   13.28
   0  -4  -5  132.32    7.87
   0   4   5  121.22   10.54
   0   4   5  121.90   13.67
   0  -4  -5  121.78   10.02
   0  -4  -5  103.44    9.98
   0   4   5  121.27   13.42
   0  -4  -6  116.60    9.23
   0  -4  -6  104.05   10.72
   0  -4  -6  116.08   13.55
   0   4   6  118.53   13.85
   0   4   6  112.09   14.04
   0  -4  -6  135.46   12.23
   0  -4  -6  126.97   10.84
   0  -4  -6  138.76    8.35
   0  -4  -6  131.54   12.07
   0  -4  -6  142.30   14.43
   0  -4  -6  116.47   12.18
   0   4   6  116.81   14.33
   0  -4  -6  125.84    9.02
   0   4   6  139.67    8.44
   0   4   6  120.02   11.36
   0   4   6  122.16    8.96
   0   4   7   17.55    4.45
   0  -4  -7   27.13    5.71
   0  -4  -7   20.39    3.07
   0   4   7   20.52    3.26
   0  -4  -7   22.24    3.01
   0  -4  -7   23.88    4.70
   0   4   7   21.53    2.72
   0   4   7   21.51    3.84
   0   4   7   22.07    2.85
   0   4   7   13.36    4.35
   0  -4  -7   24.54    3.90
   0  -4  -7   17.89    3.61
   0  -4  -7   20.60    4.87
   0  -4  -7   20.74    4.82
   0  -4  -7   23.14    5.85
   0   4   7   26.16    6.72
   0  -4  -7   24.72    3.24
   0   4   7   19.72    2.78
   0   4   7   19.95    2.86
   0   4   7   10.21    2.92
   0   4   7   29.44    7.62
   0  -4  -7   21.25    3.80
   0  -4  -7   20.66    2.93
   0  -4  -7   23.62    3.25
   0   4   7   23.73    3.53
   0  -4  -7   20.85    3.68
   0  -4  -7   22.47    3.82
   0  -4  -7   25.33    5.87
   0  -4  -7   22.65    6.27
   0  -4  -8  203.92   15.55
   0  -4  -8  185.74   18.89
   0   4   8  159.44   15.24
   0   4   8  181.19   10.49
   0  -4  -8  195.10   20.06
   0   4   8  188.01    9.85
   0  -4  -8  204.25   11.00
   0   4   8  175.16   11.17
   0  -4  -8  214.90   13.38
   0  -4  -8  192.70   11.05
   0  -4  -8  209.82   11.19
   0  -4  -8  134.68   13.99
   0   4   8  132.79   12.92
   0  -4  -8  202.33   18.11
   0   4   8  175.32   19.24
   0   4   8  167.56   19.61
   0   4   8  150.03   11.94
   0  -4  -8  210.64   10.89
   0   4   8  152.06   10.53
   0  -4  -8  180.67   12.55
   0  -4  -8  210.24   17.37
   0   4   8  166.94    9.83
   0  -4  -8  174.80   16.11
   0   4   8  148.49   18.80
   0  -4  -8  189.73   12.45
   0  -4  -9  128.92    8.61
   0   4   9  128.70   11.06
   0  -4  -9  135.53   10.64
   0  -4  -9  132.34    9.00
   0  -4  -9  153.68   10.98
   0   4   9  138.22    9.72
   0   4   9  105.87   11.43
   0  -4  -9  135.10    8.64
   0   4   9  127.14    8.07
   0  -4  -9  132.33   10.49
   0   4   9  113.92    8.90
   0   4   9  137.31    8.68
   0   4   9  139.06    9.00
   0  -4  -9  132.69    8.87
   0  -4  -9  130.35   12.78
   0  -4 -10  107.05    7.35
   0  -4 -10   92.78    7.27
   0  -4 -10  107.81    7.47
   0  -4 -10  101.69    8.83
   0   4  10   77.12    9.43
   0  -4 -10   99.78    7.47
   0  -4 -10   97.72    8.87
   0  -4 -10  116.83    9.29
   0   4  10  116.05    7.91
   0  -4 -10  100.17   10.95
   0   4  10   99.02    6.87
   0   4  10  103.33    8.12
   0   4  10  102.33    7.32
   0   4  10  102.33    7.86
   0  -4 -11  130.23    9.16
   0   4  11  117.89    8.15
   0  -4 -11  114.11    7.25
   0   4  11  116.72    7.54
   0   4  11   98.98    9.92
   0   4  11  117.44    7.20
   0   4  11  126.24    7.99
   0  -4 -11  107.80    7.45
   0  -4 -11  116.05    7.43
   0  -4 -11  104.96    7.37
   0  -4 -11  128.61    9.28
   0  -4 -12   58.55    4.29
   0   4  12   53.26    4.08
   0   4  12   52.16    6.09
   0   4  12   65.88    4.91
   0  -4 -12   58.65    5.31
   0   4  12   60.05    4.52
   0  -4 -12   51.86    4.31
   0  -4 -12   72.75    5.74
   0  -4 -12   57.34    4.37
   0   4  12   58.80    4.73
   0  -4 -12   54.42    4.38
   0  -4 -13  100.49    5.58
   0  -4 -13   79.41    4.34
   0   4  13   75.86    5.70
   0  -4 -13   76.09    4.31
   0  -4 -13   74.25    4.29
   0  -4 -13   92.78    5.48
   0   4  13   91.30    4.86
   0   4  13   78.35    4.19
   0  -4 -13   80.18    4.50
   0   4  13   80.98    6.21
   0   5 -12   38.54    3.17
   0  -5  12   35.55    2.75
   0  -5  12   37.98    2.87
   0   5 -12   29.35    3.36
   0   5 -12   34.32    3.05
   0  -5  12   27.79    2.31
   0   5 -12   30.05    3.60
   0   5 -12   31.23    3.35
   0   5 -12   33.29    3.03
   0   5 -11    5.88    1.35
   0   5 -11    7.16    1.53
   0   5 -11    6.47    1.93
   0   5 -11    6.18    2.05
   0  -5  11    4.42    1.07
   0  -5  11    7.66    1.39
   0   5 -11    4.98    1.27
   0   5 -11    5.36    1.71
   0   5 -11    5.97    1.98
   0   5 -11    7.21    1.35
   0   5 -10   55.12    6.44
   0   5 -10   57.06    6.33
   0   5 -10   57.57    5.06
   0   5 -10   61.83    7.06
   0   5 -10   59.49    5.45
   0  -5  10   61.72    4.89
   0   5 -10   55.15    6.74
   0   5 -10   55.82    5.05
   0   5 -10   64.02    4.73
   0  -5  10   68.28    4.96
   0  -5   9  156.30    8.39
   0   5  -9  131.39   10.76
   0   5  -9  145.27    9.37
   0  -5   9  138.84    8.18
   0   5  -9  138.65   11.93
   0   5  -9  141.01    8.83
   0   5  -9  141.02   11.82
   0   5  -9  160.29   16.28
   0   5  -9  148.12   11.61
   0  -5   9  165.28   11.50
   0   5  -9  146.64   11.75
   0   5  -9  153.65    8.35
   0  -5   9  157.56    8.84
   0  -5   9  152.04    9.46
   0   5  -9  137.66    8.85
   0   5  -9  155.37    9.50
   0  -5   8   68.52    5.46
   0   5  -8   63.14    7.65
   0  -5   8   65.91    5.44
   0  -5   8   81.04    6.96
   0   5  -8   67.22    8.04
   0  -5   8   73.02    7.10
   0  -5   8   65.26    4.90
   0   5  -8   66.95    7.49
   0  -5   8   64.08    7.42
   0   5  -8   61.41    9.83
   0   5  -8   61.04    7.23
   0   5  -8   65.40    5.93
   0   5  -8   67.72    6.00
   0  -5   8   74.33    6.10
   0   5  -8   63.03    5.44
   0   5  -8   68.30    7.39
   0  -5   7    4.07    1.15
   0  -5   7    5.12    1.72
   0   5  -7    5.29    2.30
   0  -5   7    6.95    1.91
   0  -5   7    2.89    1.48
   0  -5   7    4.73    1.40
   0   5  -7    9.25    3.83
   0  -5   7   12.24    6.94
   0   5  -7    4.95    1.93
   0   5  -7    4.90    2.14
   0   5  -7    2.43    1.81
   0   5  -7    5.79    2.28
   0   5  -7    2.80    1.89
   0   5  -7    6.06    2.44
   0  -5   7    5.60    1.38
   0   5  -7    5.60    2.00
   0   5  -7    6.22    1.90
   0  -5   7    6.81    3.48
   0  -5   7    4.63    1.32
   0  -5   7    5.54    2.28
   0   5  -7    2.11    3.03
   0   5  -7    7.52    4.25
   0  -5   7    5.16    1.19
   0   5  -7    3.62    1.23
   0   5  -7    2.62    1.62
   0   5  -7    9.03    4.41
   0   5  -7    4.63    1.39
   0   5  -7    9.44    3.40
   0   5  -6   23.76    3.68
   0   5  -6   21.99    5.40
   0  -5   6   22.84    2.68
   0   5  -6   24.21    4.43
   0  -5   6   25.45    6.30
   0   5  -6   21.82    3.02
   0  -5   6   22.00    2.93
   0  -5   6   21.31    2.94
   0   5  -6   21.87    3.94
   0  -5   6   18.06    6.92
   0  -5   6   20.98    2.27
   0   5  -6   25.02    3.95
   0  -5   6   19.87    3.35
   0   5  -6   26.47    6.18
   0   5  -6   21.93    3.04
   0  -5   6   23.35    2.99
   0  -5   6   28.99    4.48
   0   5  -6   22.92    5.74
   0   5  -6   21.48    3.94
   0   5  -6   22.58    3.80
   0  -5   6   23.29    2.90
   0   5  -6   22.68    5.33
   0   5  -6   19.74    3.66
   0   5  -6   21.36    5.39
   0   5  -6   20.45    5.63
   0   5  -6   14.26    5.19
   0  -5   6   21.69    3.30
   0   5  -5   41.88    7.36
   0   5  -5   36.39    6.62
   0  -5   5   38.92    4.00
   0  -5   5   31.60    7.18
   0  -5   5   39.33    9.57
   0   5  -5   38.15    4.93
   0   5  -5   39.69    6.88
   0  -5   5   51.40    5.71
   0   5  -5   36.20    4.54
   0  -5   5   34.52    4.08
   0   5  -5   36.84    6.49
   0   5  -5   51.20    5.23
   0   5  -5   34.72    6.49
   0   5  -5   39.93    4.79
   0   5  -5   41.04    6.94
   0   5  -5   40.36    7.36
   0   5  -4    9.68    2.21
   0  -5   4   10.68    1.90
   0   5  -4   10.72    3.32
   0  -5   4   11.55    2.33
   0   5  -4    9.00    3.16
   0   5  -4    8.94    2.17
   0   5  -4    7.32    2.93
   0  -5   4    7.33    1.58
   0   5  -4    9.33    3.37
   0   5  -4    5.60    2.21
   0   5  -4    8.34    3.20
   0   5  -4   10.31    2.25
   0   5  -4    7.39    2.07
   0  -5   4   10.57    2.27
   0  -5   4   13.54    4.85
   0  -5   4    6.84    2.95
   0   5  -4   15.84    2.71
   0   5  -4    8.63    3.01
   0   5  -3   36.36    5.72
   0   5  -3   39.64    6.23
   0  -5   3   33.44    3.11
   0   5  -3   40.29    4.31
   0   5  -3   36.25    5.88
   0   5  -3   35.30    6.08
   0   5  -3   39.68    6.15
   0   5  -3   37.23    6.16
   0  -5   3   45.28    4.78
   0   5  -3   39.46    4.16
   0  -5   3   39.87    3.32
   0   5  -3   48.64    5.20
   0  -5   3   29.95    6.22
   0   5  -3   40.09    4.56
   0  -5   3   53.38    9.21
   0   5  -3   35.04    5.54
   0   5  -2   16.18    2.51
   0  -5   2   12.58    1.61
   0   5  -2   17.88    3.06
   0   5  -2   15.40    2.51
   0   5  -2   17.40    3.71
   0   5  -2   14.22    3.31
   0   5  -2   15.76    3.65
   0   5  -2   17.20    3.92
   0   5  -2   12.65    3.54
   0  -5   2   16.50    2.66
   0  -5   2   13.91    3.37
   0   5  -2   13.40    2.49
   0  -5   2   18.98    4.85
   0  -5   2   16.65    4.20
   0   5  -2   16.68    3.77
   0  -5   2   16.66    2.97
   0   5  -1  571.07   27.91
   0  -5   1  686.86   31.94
   0   5  -1  582.20   28.56
   0  -5   1  604.66   24.37
   0   5  -1  621.99   25.59
   0   5  -1  556.25   23.42
   0  -5   1  560.31   26.45
   0   5  -1  591.38   27.20
   0   5  -1  516.64   26.47
   0  -5   1  615.92   23.67
   0   5  -1  626.26   28.58
   0   5  -1  619.29   23.09
   0   5  -1  589.97   28.44
   0  -5   1  695.32   27.33
   0  -5   1  576.94   28.99
   0  -5   0 1486.82   54.96
   0   5   0 1553.38   58.51
   0   5   0 1422.20   49.29
   0   5   0 1572.86   51.06
   0   5   0 1487.16   51.66
   0   5   0 1583.32   58.27
   0   5   0 1592.03   58.06
   0   5   0 1405.54   55.50
   0   5   0 1533.39   56.23
   0  -5   0 1903.86   62.07
   0   5   0 1521.14   57.42
   0   5   0 1766.69   54.07
   0  -5   0 1487.85   52.20
   0  -5   0 1697.87   55.89
   0  -5   0 1643.46   58.97
   0  -5   0 1446.56   52.40
   0  -5  -1 1339.29   48.14
   0  -5  -1 1199.05   46.45
   0   5   1 1319.44   47.24
   0   5   1 1272.96   43.89
   0  -5  -1 1286.74   48.00
   0  -5  -1 1202.94   48.20
   0   5   1 1264.64   50.79
   0  -5  -1 1577.97   53.63
   0  -5  -1 1493.67   52.36
   0   5   1 1286.52   49.33
   0  -5  -1 1242.65   44.55
   0   5   1 1308.81   51.80
   0  -5  -1 1227.30   45.28
   0   5   1 1257.08   50.72
   0   5   1 1357.24   45.69
   0   5   1 1235.19   44.21
   0   5   1 1376.07   49.41
   0   5   1 1326.70   42.44
   0  -5  -2  725.59   29.62
   0  -5  -2  818.49   34.02
   0   5   2  642.51   25.29
   0   5   2  778.28   24.45
   0   5   2  639.37   31.81
   0   5   2  666.39   32.78
   0  -5  -2  670.95   30.02
   0   5   2  733.65   27.14
   0   5   2  730.74   30.35
   0   5   2  662.18   30.69
   0  -5  -2  610.49   26.31
   0   5   2  650.55   25.63
   0  -5  -2  626.78   25.69
   0  -5  -2  784.23   33.08
   0   5   2  620.15   24.73
   0  -5  -2  586.84   28.32
   0   5   2  647.02   32.69
   0   5   2  671.44   28.61
   0  -5  -2  623.99   28.05
   0   5   3   17.29    3.03
   0  -5  -3   13.43    3.22
   0  -5  -3   16.32    4.04
   0  -5  -3   10.15    2.76
   0   5   3   14.49    3.27
   0  -5  -3   13.89    2.75
   0  -5  -3   17.75    4.39
   0   5   3   15.04    3.78
   0  -5  -3   14.18    2.48
   0   5   3    9.72    3.33
   0   5   3   16.78    2.74
   0   5   3   14.80    4.20
   0   5   3   11.40    3.81
   0  -5  -3   15.66    3.44
   0   5   3   15.14    2.58
   0   5   3   12.85    2.32
   0  -5  -3   11.66    3.17
   0  -5  -4  143.20   12.26
   0   5   4  123.42   10.83
   0   5   4  146.40    9.47
   0  -5  -4  143.80   11.64
   0  -5  -4  178.28   15.23
   0  -5  -4  129.30    9.36
   0   5   4  132.50   14.13
   0   5   4  119.72   13.46
   0   5   4  133.04   13.68
   0  -5  -4  129.09    8.45
   0   5   4  106.42    8.07
   0   5   4  130.11    8.32
   0  -5  -4  155.65   13.84
   0  -5  -4  121.78   10.39
   0   5   4  133.26   12.59
   0  -5  -4  106.17   10.25
   0  -5  -5  130.62   12.15
   0  -5  -5  142.51   11.90
   0  -5  -5  177.97   13.87
   0  -5  -5  152.55    9.65
   0  -5  -5  166.65   14.19
   0   5   5  151.04   15.79
   0   5   5  151.76   16.28
   0  -5  -5  151.78   10.62
   0  -5  -5  175.51   16.11
   0   5   5  141.80   15.85
   0   5   5  122.16    9.36
   0  -5  -5  176.58   15.85
   0   5   5  141.22   12.43
   0   5   5  168.76   10.47
   0   5   6   45.84    4.39
   0   5   6   49.36    5.33
   0   5   6   38.65    8.57
   0   5   6   39.02    5.20
   0  -5  -6   49.07    7.96
   0   5   6   56.42    9.92
   0   5   6   39.08    4.05
   0   5   6   40.79    6.35
   0  -5  -6   42.37    4.36
   0   5   6   54.38    7.95
   0  -5  -6   51.42    4.81
   0  -5  -6   48.04    5.82
   0   5   6   45.67    4.57
   0  -5  -6   55.40    8.00
   0  -5  -6   63.02    8.49
   0  -5  -6   50.50    7.13
   0  -5  -6   49.95    4.82
   0   5   6   40.50    8.85
   0  -5  -6   47.03    4.67
   0  -5  -6   50.64    5.65
   0  -5  -6   56.21    9.57
   0  -5  -6   48.25    5.19
   0  -5  -6   48.94    5.73
   0  -5  -6   51.20    8.96
   0  -5  -6   53.00    4.02
   0   5   6   55.37    5.70
   0  -5  -6   31.24    5.96
   0  -5  -7  115.00   11.66
   0  -5  -7  136.97   14.24
   0   5   7  126.95    8.39
   0   5   7  113.38    8.92
   0   5   7  119.04   12.69
   0   5   7  119.20    7.93
   0  -5  -7  121.87   14.67
   0  -5  -7  145.39   10.21
   0   5   7  110.52   14.92
   0  -5  -7  129.11    9.93
   0  -5  -7  120.76    8.23
   0  -5  -7  118.77    8.19
   0   5   7  105.58    7.43
   0  -5  -7  124.97   12.99
   0  -5  -7  122.90   10.18
   0  -5  -7  132.12    8.52
   0  -5  -7  133.18    9.27
   0   5   7  121.58   16.27
   0   5   7  136.33   17.13
   0  -5  -7  142.06   13.66
   0   5   7  109.32   11.26
   0   5   7  102.09    9.46
   0  -5  -7  136.29   15.92
   0  -5  -7  116.35    8.12
   0  -5  -7   98.63   11.52
   0   5   8   18.89    3.50
   0  -5  -8   19.88    4.69
   0  -5  -8   18.94    3.03
   0  -5  -8   24.10    4.17
   0  -5  -8   24.91    4.12
   0   5   8   20.09    4.15
   0  -5  -8   22.05    4.29
   0   5   8   22.19    3.31
   0  -5  -8   24.40    3.53
   0   5   8   17.46    4.28
   0  -5  -8   18.61    3.03
   0   5   8   19.50    2.90
   0  -5  -8   21.84    3.33
   0   5   8   20.02    3.08
   0   5   8   22.30    3.01
   0  -5  -9  145.83   11.72
   0  -5  -9  158.25    9.71
   0  -5  -9  152.23   14.11
   0  -5  -9  152.73    9.70
   0   5   9  173.69   10.38
   0   5   9  154.36    9.65
   0   5   9  128.62   12.62
   0   5   9  164.92    9.06
   0  -5  -9  170.19   11.52
   0   5   9  152.71   10.51
   0   5   9  167.54   10.11
   0   5   9  151.18   12.47
   0  -5  -9  156.71   11.37
   0  -5  -9  145.94    9.46
   0  -5  -9  148.40    9.52
   0   5   9  148.24    8.98
   0   5  10   86.09    6.63
   0   5  10   87.42    6.72
   0   5  10   72.64    8.61
   0  -5 -10   71.97    6.05
   0   5  10   85.96    6.56
   0   5  10   86.24    5.88
   0  -5 -10   81.94    6.34
   0  -5 -10   86.83    7.70
   0  -5 -10   79.68    6.28
   0  -5 -10   75.55    6.13
   0  -5 -10   90.24    7.67
   0   5  10   69.87    6.47
   0  -5 -11   71.17    5.46
   0  -5 -11   89.71    7.04
   0   5  11   70.01    4.95
   0   5  11   78.94    5.95
   0   5  11   88.58    6.16
   0  -5 -11   92.57    7.00
   0  -5 -11   74.00    5.53
   0   5  11   80.81    6.05
   0  -5 -11   78.28    5.67
   0   5  11   72.69    7.91
   0  -5 -11   79.48    5.66
   0   5  11   85.19    5.88
   0   5  12    4.43    1.44
   0  -5 -12    2.12    0.63
   0  -5 -12    2.13    0.65
   0   5  12    4.27    1.10
   0  -5 -12    4.33    1.24
   0  -5 -12    4.08    0.97
   0  -5 -12    2.15    0.61
   0   5  12    2.92    0.94
   0  -5 -12    3.21    0.91
   0  -5 -12    2.59    0.89
   0   5  12    2.72    1.13
   0   5  12    2.22    0.60
   0   6 -12   70.12    4.00
   0  -6  12   60.21    3.37
   0   6 -12   60.19    3.78
   0   6 -11   26.12    2.77
   0  -6  11   20.91    2.20
   0   6 -11   17.48    2.97
   0   6 -11   22.09    2.49
   0   6 -11   23.74    3.15
   0   6 -11   21.01    3.10
   0  -6  11   20.41    2.08
   0   6 -11   20.03    2.93
   0   6 -11   24.09    2.76
   0   6 -10   24.63    3.70
   0   6 -10   19.69    3.54
   0   6 -10   23.75    2.97
   0  -6  10   21.09    2.60
   0   6 -10   22.90    2.86
   0   6 -10   22.37    3.63
   0  -6  10   23.81    2.59
   0   6 -10   28.98    3.26
   0   6 -10   22.00    3.00
   0   6 -10   18.41    3.54
   0  -6   9   25.54    3.12
   0   6  -9   22.55    3.10
   0  -6   9   24.63    2.74
   0   6  -9   25.27    4.16
   0   6  -9   23.74    4.21
   0   6  -9   27.13    4.53
   0   6  -9   21.77    5.85
   0  -6   9   25.75    4.15
   0   6  -9   23.79    3.16
   0   6  -9   22.65    4.39
   0   6  -9   24.01    4.39
   0   6  -9   27.79    3.64
   0   6  -9   24.71    3.39
   0  -6   9   24.08    2.89
   0  -6   8   40.58    4.34
   0   6  -8   35.40    5.70
   0   6  -8   37.30    5.42
   0  -6   8   37.14    5.03
   0  -6   8   43.14    3.72
   0   6  -8   37.16    4.42
   0  -6   8   35.73    3.65
   0   6  -8   38.07    4.49
   0   6  -8   33.66    3.90
   0   6  -8   42.86    5.87
   0  -6   8   37.65    3.91
   0  -6   8   39.64    4.08
   0   6  -8   38.21    7.69
   0   6  -8   39.04    5.65
   0   6  -8   42.95    6.07
   0   6  -7   14.36    3.55
   0   6  -7   16.32    4.01
   0  -6   7   15.85    2.56
   0   6  -7   14.89    2.76
   0  -6   7   14.92    2.98
   0   6  -7   14.26    3.53
   0   6  -7   14.26    3.33
   0  -6   7   15.02    2.61
   0   6  -7   14.80    3.65
   0   6  -7   13.88    2.60
   0   6  -7    9.85    4.11
   0  -6   7   11.13    1.95
   0  -6   7   13.20    2.29
   0  -6   7   12.70    2.97
   0   6  -7   11.12    2.19
   0   6  -6  150.32   16.13
   0   6  -6  184.01   13.59
   0  -6   6  242.94   14.61
   0   6  -6  177.00   17.66
   0   6  -6  182.63   13.07
   0   6  -6  182.89   16.91
   0   6  -6  223.65   13.14
   0   6  -6  164.81    9.50
   0  -6   6  189.16   24.42
   0  -6   6  193.05    9.90
   0   6  -6  185.51   12.49
   0   6  -6  164.74   12.41
   0  -6   6  185.29   10.06
   0   6  -6  182.37   13.08
   0   6  -6  183.05   10.62
   0   6  -6  170.08   11.95
   0   6  -6  158.52   15.97
   0   6  -6  159.56   16.96
   0  -6   6  184.99   11.24
   0  -6   6  193.90    9.60
   0   6  -6  154.58   18.66
   0   6  -6  163.16   16.44
   0  -6   6  175.06   10.14
   0   6  -6  174.85   10.32
   0  -6   6  196.09   19.77
   0   6  -5  852.07   34.26
   0   6  -5  773.79   33.65
   0   6  -5  812.87   34.89
   0   6  -5  822.80   42.22
   0   6  -5  779.75   31.32
   0   6  -5  910.04   36.71
   0   6  -5  829.09   42.34
   0   6  -5  784.64   35.00
   0  -6   5 1126.35   37.96
   0   6  -5  897.21   42.70
   0  -6   5  942.22   56.59
   0   6  -5 1079.14   35.91
   0  -6   5  887.84   29.92
   0  -6   5  668.53   43.92
   0   6  -5  793.20   42.67
   0   6  -5  877.02   35.82
   0  -6   5  894.67   32.30
   0   6  -5  785.99   42.61
   0   6  -5  774.57   40.62
   0   6  -5  757.28   40.94
   0  -6   5  850.44   31.38
   0  -6   5  890.95   31.19
   0  -6   4  239.91   14.54
   0  -6   4  287.33   12.93
   0   6  -4  253.18   15.32
   0  -6   4  269.69   11.21
   0   6  -4  354.70   16.05
   0   6  -4  288.75   16.33
   0   6  -4  247.56   19.31
   0  -6   4  265.96   12.21
   0   6  -4  263.43   14.45
   0   6  -4  254.30   19.52
   0   6  -4  270.37   19.46
   0  -6   4  267.33   12.66
   0   6  -4  253.97   14.62
   0   6  -4  250.56   15.01
   0   6  -4  224.07   18.05
   0   6  -4  296.87   16.24
   0   6  -4  226.55   12.24
   0  -6   4  368.71   17.24
   0   6  -4  260.08   15.31
   0  -6   4  207.05   20.31
   0   6  -4  241.86   19.59
   0   6  -4  230.38   19.29
   0  -6   4  307.82   28.01
   0   6  -4  224.32   18.37
   0  -6   3  268.88   23.77
   0   6  -3  286.82   14.10
   0  -6   3  300.05   15.18
   0   6  -3  263.19   15.42
   0   6  -3  221.64   17.66
   0   6  -3  248.35   13.35
   0   6  -3  201.19   17.45
   0   6  -3  221.18   17.07
   0   6  -3  245.01   18.29
   0   6  -3  223.67   13.93
   0   6  -3  229.96   17.35
   0   6  -3  220.29   18.10
   0   6  -3  236.30   17.84
   0  -6   3  189.52   18.46
   0   6  -2   51.52    7.86
   0  -6   2   54.61    7.14
   0   6  -2   45.85    7.16
   0   6  -2   42.58    6.66
   0   6  -2   44.35    5.33
   0   6  -2   52.52    7.68
   0  -6   2   55.41    6.19
   0   6  -2   44.13    7.26
   0  -6   2   42.29    8.35
   0  -6   2   42.61    6.72
   0  -6   2   41.49    7.46
   0   6  -2   50.93    5.14
   0   6  -2   48.29    5.05
   0   6  -2   49.55    7.15
   0   6  -2   52.54    6.27
   0  -6   2   49.74    5.48
   0   6  -1    0.79    1.27
   0  -6   1    1.81    1.03
   0  -6   1    2.11    1.90
   0  -6   1    2.40    1.30
   0  -6   1    5.31    2.76
   0   6  -1    2.67    1.23
   0   6  -1    2.40    1.23
   0   6  -1    4.43    2.51
   0   6  -1    2.64    1.18
   0   6  -1    1.86    1.00
   0   6  -1    2.59    1.42
   0   6  -1    2.98    2.11
   0   6  -1    1.47    0.80
   0   6  -1    2.37    1.79
   0  -6   1    2.84    1.52
   0   6   0   50.35    6.32
   0  -6   0   42.74    5.30
   0   6   0   49.30    6.85
   0   6   0   53.98    7.76
   0  -6   0   57.14    8.24
   0  -6   0   51.33    5.79
   0   6   0   50.85    6.24
   0   6   0   52.26    5.12
   0   6   0   52.54    7.65
   0   6   0   55.88    8.32
   0   6   0   47.71    7.40
   0  -6   0   48.12    6.58
   0  -6   0   56.07    7.02
   0  -6   0   52.60    8.40
   0   6   0   48.29    7.06
   0   6   0   47.76    5.31
   0   6   1  119.64   10.11
   0   6   1  111.03    7.94
   0   6   1  110.56   12.03
   0  -6  -1   94.15    9.55
   0  -6  -1  108.32    8.57
   0   6   1  120.22   11.42
   0   6   1   96.31    9.80
   0   6   1  113.93   11.81
   0   6   1  105.75    8.14
   0  -6  -1  129.09   12.86
   0   6   1  104.27   11.37
   0  -6  -1  114.28   10.37
   0  -6  -1  100.89    8.58
   0   6   1  119.88    9.46
   0  -6  -1  119.36   12.09
   0  -6  -2   99.91    8.18
   0  -6  -2  129.22   12.61
   0   6   2  112.54   12.23
   0   6   2  102.93    7.88
   0  -6  -2   90.51    8.97
   0   6   2  114.74   10.42
   0  -6  -2  143.96   13.50
   0   6   2  100.70    7.95
   0  -6  -2  117.15   10.52
   0   6   2  116.15   11.46
   0   6   2  103.36    9.74
   0   6   2  112.94   12.69
   0  -6  -2   97.06    8.46
   0   6   2  117.01    9.40
   0  -6  -2   92.56    9.63
   0  -6  -2  108.93   10.77
   0   6   2  112.40   12.26
   0  -6  -3  117.08   11.58
   0  -6  -3  116.04    9.56
   0   6   3  144.53   10.66
   0   6   3  127.30   12.81
   0   6   3  124.43   13.71
   0   6   3  131.60   14.14
   0  -6  -3  149.86   14.10
   0   6   3  127.50    9.00
   0   6   3  128.35   11.53
   0   6   3  132.02    9.24
   0  -6  -3   96.78   10.32
   0   6   3  125.99    8.78
   0  -6  -3  124.74    9.24
   0  -6  -3  155.43   14.63
   0  -6  -3   92.65    9.64
   0  -6  -3  134.29   11.64
   0   6   3  126.65   14.12
   0   6   4   89.54    7.75
   0  -6  -4   71.86    8.98
   0  -6  -4   88.72    5.82
   0   6   4   80.34    8.74
   0  -6  -4  100.22    7.76
   0   6   4  100.74    8.90
   0   6   4   86.06    7.15
   0  -6  -4   87.18    9.44
   0   6   4   90.14   12.44
   0   6   4   71.59    5.91
   0   6   4   88.86    9.87
   0  -6  -4   90.87    7.54
   0   6   4   76.30    6.92
   0  -6  -4   89.23    6.58
   0   6   4   97.13   12.78
   0  -6  -4  104.15   12.53
   0  -6  -4  101.05   11.89
   0   6   4   81.19    8.19
   0   6   4   90.75   11.20
   0  -6  -4   87.33    6.59
   0   6   4  100.55   12.61
   0  -6  -4  104.96   10.54
   0  -6  -4   88.02    8.37
   0  -6  -4   91.22   10.50
   0  -6  -4   78.67    7.46
   0   6   5   71.68   11.63
   0  -6  -5   47.50    7.79
   0   6   5   66.02   11.22
   0  -6  -5   62.32    8.18
   0   6   5   56.81    5.23
   0   6   5   61.48    5.30
   0  -6  -5   68.76    5.03
   0  -6  -5   79.37   11.34
   0   6   5   69.39   10.31
   0   6   5   64.30    8.67
   0  -6  -5   60.22    5.50
   0   6   5   57.51    7.26
   0   6   5   60.25    6.22
   0  -6  -5   72.15    9.60
   0   6   5   67.61    5.63
   0  -6  -5   73.29    6.97
   0  -6  -5   73.28    6.91
   0   6   5   63.12    8.00
   0   6   5   64.56    6.94
   0   6   5   73.56    7.61
   0  -6  -5   69.50    6.61
   0  -6  -5   84.97   11.49
   0   6   5   60.84   10.85
   0  -6  -5   66.02    5.77
   0  -6  -5   82.57    9.73
   0  -6  -5   56.08    5.17
   0  -6  -5   61.09    7.07
   0   6   6  398.44   30.44
   0   6   6  423.98   20.79
   0  -6  -6  274.97   21.43
   0  -6  -6  370.29   20.46
   0   6   6  391.35   27.21
   0  -6  -6  365.49   18.78
   0  -6  -6  364.48   15.21
   0  -6  -6  405.03   25.75
   0  -6  -6  387.34   18.99
   0  -6  -6  349.61   16.65
   0   6   6  343.57   23.38
   0  -6  -6  336.06   16.29
   0  -6  -6  358.88   16.93
   0   6   6  383.54   29.14
   0   6   6  336.86   19.47
   0   6   6  352.24   16.35
   0   6   6  319.72   15.99
   0  -6  -6  436.51   28.83
   0   6   6  332.73   21.17
   0  -6  -6  414.47   19.20
   0  -6  -6  415.38   28.74
   0  -6  -6  352.29   22.57
   0   6   6  367.01   29.54
   0  -6  -6  346.34   16.14
   0   6   6  368.62   16.82
   0  -6  -6  428.09   25.12
   0   6   6  339.28   18.06
   0  -6  -7   96.29    7.16
   0   6   7   94.01    7.21
   0  -6  -7   94.78    7.37
   0   6   7   92.26    8.27
   0  -6  -7   98.91    6.29
   0  -6  -7  108.71    9.01
   0  -6  -7   95.08    7.31
   0   6   7   92.50    9.26
   0  -6  -7  110.75    8.91
   0  -6  -7   91.34    9.32
   0  -6  -7   96.17    7.52
   0   6   7   93.55   10.32
   0  -6  -7   89.38    8.19
   0   6   7   83.89    6.84
   0   6   7  101.67    7.63
   0  -6  -7   97.31   11.19
   0  -6  -8  294.35   20.78
   0  -6  -8  313.73   16.89
   0  -6  -8  274.61   14.33
   0   6   8  271.39   19.02
   0  -6  -8  337.00   17.08
   0  -6  -8  286.41   14.66
   0   6   8  280.57   16.07
   0   6   8  283.14   14.29
   0  -6  -8  295.05   14.95
   0   6   8  304.71   14.86
   0  -6  -8  319.49   18.85
   0   6   8  305.24   18.65
   0   6   8  319.93   15.26
   0  -6  -8  285.72   14.32
   0   6   9   71.04    8.10
   0  -6  -9   76.64    7.20
   0  -6  -9   73.94    6.17
   0   6   9   71.79    6.85
   0  -6  -9   75.21    6.31
   0   6   9   71.63    5.83
   0  -6  -9   86.04    7.39
   0   6   9   78.55    6.38
   0   6   9   68.82    8.49
   0  -6  -9   68.51    5.82
   0   6   9   82.06    6.58
   0  -6  -9   71.51    9.28
   0  -6  -9   62.98    5.50
   0  -6 -10   57.80    5.58
   0  -6 -10   46.65    4.24
   0  -6 -10   50.49    4.60
   0   6  10   45.80    5.91
   0   6  10   52.99    4.84
   0  -6 -10   48.27    4.56
   0   6  10   52.73    6.70
   0   6  10   48.24    4.65
   0  -6 -10   53.62    4.60
   0  -6 -10   57.26    5.66
   0   6  10   47.71    5.03
   0   6  11   14.78    2.28
   0  -6 -11   11.99    1.78
   0   6  11   12.28    2.78
   0  -6 -11   13.87    1.87
   0  -6 -11   13.37    2.01
   0   6  11   15.12    2.17
   0   6  11   13.30    2.73
   0   6  11   13.60    2.11
   0  -6 -11   16.21    2.50
   0  -6 -11   13.14    1.96
   0  -6 -11   15.67    2.52
   0  -6 -12   19.86    2.22
   0   6  12   16.20    2.46
   0   6  12   18.08    1.95
   0   6  12   16.32    2.32
   0  -6 -12   15.38    1.70
   0   6  12   15.97    1.82
   0  -6 -12   19.08    2.14
   0   7 -11   69.16    4.38
   0  -7  11   64.84    3.65
   0  -7  11   63.37    3.70
   0   7 -10   28.88    2.95
   0  -7  10   30.78    2.71
   0   7 -10   29.22    3.20
   0   7 -10   25.86    3.55
   0   7 -10   24.05    3.50
   0  -7  10   30.87    2.86
   0   7 -10   25.04    3.33
   0   7 -10   33.46    3.23
   0   7 -10   24.63    3.34
   0   7 -10   31.98    2.96
   0  -7   9    1.09    0.57
   0   7  -9    0.72    0.30
   0  -7   9    1.15    0.76
   0   7  -9    0.70    0.60
   0   7  -9    1.75    1.24
   0   7  -9   -0.01    1.01
   0   7  -9    1.14    0.71
   0   7  -9   -0.19    0.69
   0   7  -9    0.74    0.63
   0  -7   9    0.60    0.32
   0   7  -9   -0.21    0.50
   0  -7   8   28.35    3.14
   0   7  -8   26.63    4.31
   0   7  -8   34.08    4.05
   0  -7   8   33.19    3.55
   0   7  -8   34.29    5.10
   0   7  -8   27.95    3.77
   0   7  -8   36.08    3.87
   0   7  -8   30.20    4.73
   0   7  -8   27.20    6.73
   0   7  -8   33.75    3.70
   0  -7   8   28.06    3.33
   0   7  -8   28.15    4.80
   0  -7   7   34.15    3.72
   0  -7   7   30.88    3.67
   0   7  -7   28.72    4.70
   0   7  -7   47.11    4.97
   0   7  -7   27.86    4.84
   0   7  -7   30.24    5.25
   0   7  -7   35.75    7.59
   0  -7   7   36.81    3.77
   0   7  -7   33.37    5.21
   0   7  -7   31.88    3.71
   0   7  -7   32.02    5.02
   0   7  -7   31.80    4.05
   0   7  -6  417.43   22.29
   0  -7   6  383.09   16.35
   0   7  -6  366.95   20.44
   0   7  -6  390.53   17.89
   0   7  -6  399.43   20.63
   0  -7   6  393.22   17.50
   0  -7   6  390.16   17.17
   0   7  -6  433.22   28.35
   0   7  -6  401.06   21.86
   0   7  -6  409.45   21.56
   0   7  -6  380.51   18.09
   0   7  -6  384.46   16.75
   0   7  -5  379.05   17.95
   0  -7   5  412.42   16.45
   0  -7   5  402.53   17.75
   0   7  -5  414.83   27.50
   0   7  -5  401.73   20.30
   0  -7   5  410.59   17.41
   0   7  -5  403.19   21.31
   0   7  -5  431.47   22.35
   0   7  -5  378.03   17.61
   0   7  -5  365.80   21.38
   0   7  -5  374.59   20.59
   0   7  -4  154.94   10.70
   0   7  -4  119.93   10.66
   0   7  -4  109.31   13.42
   0   7  -4  103.79   13.20
   0  -7   4  148.22   20.65
   0   7  -4  116.48    9.79
   0   7  -4  114.43   13.19
   0  -7   4  178.62   14.94
   0  -7   4   99.95    9.15
   0   7  -4  111.41    9.13
   0   7  -4  119.58   10.51
   0   7  -4  118.28   10.04
   0   7  -4  123.80   10.27
   0   7  -4  124.40   14.14
   0   7  -4  120.25    8.29
   0  -7   4   91.70   13.81
   0   7  -4  116.62   13.25
   0  -7   4  119.07    7.96
   0   7  -4  134.37   11.20
   0  -7   4  154.76   11.38
   0   7  -4  102.77   12.63
   0  -7   4  116.39    7.68
   0  -7   4  115.62    6.70
   0   7  -4  102.06    7.73
   0   7  -4  113.01   13.76
   0  -7   4  125.52    7.76
   0   7  -3  437.68   19.57
   0  -7   3  394.87   20.11
   0   7  -3  321.20   24.35
   0   7  -3  367.95   19.25
   0   7  -3  352.20   24.55
   0  -7   3  460.65   25.10
   0  -7   3  347.57   14.99
   0  -7   3  350.76   15.81
   0   7  -3  326.40   15.72
   0   7  -3  314.93   23.29
   0   7  -3  397.88   20.37
   0   7  -3  381.37   20.86
   0   7  -3  323.88   15.93
   0  -7   3  263.62   24.29
   0   7  -3  341.11   15.91
   0   7  -3  332.90   19.21
   0   7  -3  315.43   18.01
   0  -7   3  297.93   17.38
   0  -7   3  340.27   15.46
   0   7  -3  340.81   23.46
   0   7  -3  344.62   17.49
   0   7  -3  319.46   24.34
   0  -7   3  336.26   13.69
   0   7  -3  325.97   23.83
   0  -7   3  376.69   32.10
   0   7  -3  332.36   23.44
   0  -7   2  126.96    8.08
   0   7  -2  131.32   13.85
   0   7  -2  116.92    8.14
   0   7  -2  121.24   13.89
   0   7  -2  139.82   11.71
   0   7  -2  134.98   14.06
   0   7  -2  120.16    8.15
   0   7  -2  135.65    9.43
   0   7  -2  125.88   10.09
   0   7  -2  124.86   12.90
   0   7  -2  150.92   10.34
   0  -7   2  162.55   14.05
   0  -7   2  119.42   16.32
   0   7  -2  116.70   10.15
   0   7  -2  112.64   13.48
   0   7  -2  136.98   10.82
   0  -7   2  103.64   13.85
   0  -7   2  116.20    9.32
   0   7  -2  118.58   12.90
   0  -7   2  124.81    7.78
   0  -7   2  124.84    7.33
   0   7  -1    4.94    2.70
   0   7  -1    5.27    2.13
   0  -7   1    4.37    1.14
   0  -7   1    4.55    2.86
   0   7  -1    2.37    1.81
   0  -7   1    3.97    1.09
   0  -7   1    6.53    1.97
   0   7  -1    6.17    2.27
   0  -7   1    4.06    1.22
   0   7  -1    7.80    1.92
   0  -7   1    4.39    3.17
   0  -7   1    9.25    3.30
   0   7  -1    4.99    1.93
   0   7  -1    6.13    2.03
   0   7  -1    2.45    1.05
   0   7  -1    6.24    2.71
   0   7  -1    5.79    2.90
   0   7  -1    4.24    1.37
   0   7  -1    5.69    2.72
   0   7  -1    6.93    2.98
   0  -7   1    5.18    1.55
   0   7  -1    5.83    2.26
   0  -7   1    2.64    1.21
   0  -7   1    4.33    1.68
   0   7   0    2.36    0.58
   0   7   0    7.02    2.70
   0  -7   0    3.98    1.39
   0   7   0    3.33    1.00
   0  -7   0    2.15    1.66
   0  -7   0    3.90    2.41
   0   7   0    2.65    1.75
   0   7   0    1.86    0.92
   0   7   0    8.29    2.35
   0  -7   0    4.50    1.17
   0   7   0    1.38    0.57
   0  -7   0    0.50    1.19
   0   7   0    4.58    2.96
   0  -7   0    4.39    1.20
   0  -7   0    9.88    4.19
   0   7   0    3.00    1.57
   0  -7   0    5.35    2.10
   0   7   0    3.63    1.60
   0   7   0    2.47    1.81
   0  -7   0    3.34    1.66
   0  -7   0    2.56    0.91
   0  -7   0    4.04    1.24
   0   7   0    3.88    1.45
   0   7   0    1.78    1.43
   0   7   0    2.58    2.04
   0  -7  -1  276.88   22.06
   0   7   1  260.28   15.32
   0  -7  -1  244.71   11.97
   0  -7  -1  245.95   17.95
   0  -7  -1  241.12   15.28
   0  -7  -1  235.89   13.51
   0   7   1  291.94   18.42
   0   7   1  247.20   12.78
   0  -7  -1  248.89   20.39
   0  -7  -1  239.17   11.12
   0   7   1  262.95   20.74
   0  -7  -1  230.99   12.14
   0   7   1  261.75   20.58
   0  -7  -1  218.98   10.36
   0  -7  -1  218.54   14.82
   0  -7  -1  231.55   12.04
   0   7   1  244.93   19.06
   0   7   1  236.67   14.47
   0   7   1  266.86   16.12
   0   7   1  227.07   16.92
   0  -7  -1  245.63   13.75
   0  -7  -1  233.48   17.48
   0   7   1  187.48   11.45
   0   7   1  240.42   20.52
   0   7   1  264.62   21.03
   0   7   1  271.88   17.65
   0   7   1  244.16   13.38
   0   7   1  257.80   14.47
   0   7   1  234.96   12.14
   0   7   2  709.30   30.87
   0   7   2  813.38   42.73
   0  -7  -2  716.59   28.24
   0   7   2  834.26   42.44
   0   7   2  784.79   31.37
   0   7   2  780.54   33.67
   0   7   2  824.32   41.86
   0  -7  -2  665.47   27.66
   0   7   2  780.22   41.21
   0  -7  -2  766.40   27.71
   0  -7  -2  806.01   30.63
   0   7   2  712.61   28.56
   0   7   2  715.11   29.79
   0  -7  -2  750.83   32.30
   0  -7  -2  713.17   26.17
   0   7   2  788.14   39.33
   0  -7  -2  737.61   36.33
   0   7   2  796.73   36.34
   0  -7  -2  727.40   32.68
   0  -7  -2  712.17   25.50
   0  -7  -2  887.70   43.01
   0   7   2  749.63   32.29
   0  -7  -2  763.85   30.38
   0   7   2  886.38   36.49
   0  -7  -2  712.49   35.58
   0  -7  -2  785.99   40.57
   0   7   2  686.27   27.92
   0  -7  -3  895.94   41.03
   0  -7  -3  911.46   34.75
   0  -7  -3  848.67   31.50
   0  -7  -3  978.15   46.28
   0   7   3  907.33   37.38
   0  -7  -3  882.52   36.50
   0  -7  -3  822.86   41.30
   0   7   3  848.37   32.74
   0   7   3  805.62   32.18
   0   7   3  955.75   45.33
   0   7   3  949.96   47.68
   0   7   3  931.15   38.85
   0   7   3  964.75   49.12
   0   7   3  860.76   34.54
   0  -7  -3  808.07   32.08
   0  -7  -3  834.06   40.74
   0   7   3  936.54   47.17
   0  -7  -3  970.12   35.16
   0  -7  -3  853.93   37.27
   0  -7  -3  808.78   38.55
   0  -7  -3  835.98   32.55
   0   7   3 1042.35   41.20
   0   7   3  861.45   35.22
   0   7   3  923.14   41.42
   0  -7  -3 1067.59   48.87
   0  -7  -3  826.59   30.03
   0   7   3  890.48   35.77
   0   7   4   11.42    4.14
   0  -7  -4   12.70    3.39
   0   7   4   10.16    3.21
   0  -7  -4   15.79    5.31
   0  -7  -4   10.12    2.06
   0   7   4   11.68    5.13
   0  -7  -4   13.44    4.66
   0  -7  -4   12.26    4.16
   0   7   4    9.18    3.32
   0  -7  -4   10.49    3.49
   0   7   4   10.43    3.35
   0   7   4   11.17    4.20
   0  -7  -4   10.93    2.96
   0   7   4   10.21    2.51
   0  -7  -4    9.85    3.25
   0  -7  -4   11.49    2.19
   0  -7  -4    7.19    1.98
   0   7   4   10.13    3.45
   0   7   4    9.87    2.18
   0   7   4    9.29    2.11
   0   7   4    8.78    3.67
   0   7   4   12.47    2.88
   0  -7  -4   13.22    3.10
   0  -7  -4   10.28    2.29
   0  -7  -4    9.51    1.89
   0  -7  -4    9.61    2.37
   0   7   5  583.75   24.92
   0  -7  -5  563.53   24.70
   0   7   5  648.38   24.98
   0  -7  -5  628.73   30.11
   0  -7  -5  694.71   27.66
   0   7   5  565.40   24.79
   0   7   5  674.63   31.83
   0  -7  -5  590.06   24.42
   0  -7  -5  560.05   31.31
   0  -7  -5  682.02   27.79
   0  -7  -5  614.03   25.41
   0  -7  -5  633.69   23.93
   0   7   5  585.07   26.97
   0   7   5  639.16   24.82
   0   7   5  628.25   31.22
   0   7   5  608.84   29.70
   0  -7  -5  616.84   28.49
   0  -7  -6  138.95    8.21
   0   7   6  136.02    8.89
   0   7   6  126.43   11.46
   0   7   6  119.74    8.70
   0  -7  -6  145.96   11.28
   0  -7  -6  122.54   12.73
   0  -7  -6  134.60   11.90
   0  -7  -6  142.40   10.30
   0   7   6  126.22    8.74
   0   7   6  136.40    8.90
   0  -7  -6  122.79    8.74
   0  -7  -6  146.29   10.55
   0  -7  -6  129.07    9.08
   0   7   6  125.04   12.12
   0  -7  -6  127.75    8.55
   0   7   6  125.86   10.09
   0   7   6  143.11   12.44
   0  -7  -7   25.99    3.10
   0   7   7   26.11    5.03
   0  -7  -7   27.04    3.80
   0   7   7   25.27    3.65
   0  -7  -7   29.80    3.90
   0  -7  -7   28.56    4.44
   0   7   7   28.20    4.37
   0   7   7   29.78    3.81
   0  -7  -7   26.26    3.53
   0  -7  -7   24.44    4.82
   0  -7  -7   29.92    3.56
   0  -7  -7   31.24    6.30
   0   7   7   26.08    3.48
   0   7   7   26.83    3.68
   0  -7  -7   33.63    4.69
   0   7   7   27.19    5.44
   0   7   8   46.71    4.84
   0  -7  -8   43.09    5.27
   0  -7  -8   48.37    5.44
   0   7   8   39.74    4.42
   0   7   8   41.65    4.54
   0  -7  -8   41.85    4.66
   0   7   8   37.35    5.70
   0   7   8   36.40    6.05
   0  -7  -8   38.87    4.33
   0  -7  -8   37.32    4.05
   0   7   8   38.49    3.97
   0   7   8   44.69    5.40
   0  -7  -8   36.50    6.70
   0  -7  -8   33.38    3.74
   0  -7  -9   33.45    4.23
   0  -7  -9   27.01    3.76
   0   7   9   26.12    3.28
   0  -7  -9   25.74    3.07
   0  -7  -9   25.86    3.36
   0   7   9   24.81    3.16
   0   7   9   26.72    4.72
   0   7   9   29.61    4.01
   0   7   9   26.92    3.42
   0  -7  -9   25.77    3.26
   0   7   9   24.14    4.20
   0  -7  -9   24.71    2.92
   0   7  10    1.14    0.62
   0  -7 -10   -0.47    0.35
   0   7  10    1.01    1.38
   0   7  10   -0.57    0.51
   0  -7 -10    0.88    0.71
   0  -7 -10    0.09    0.19
   0   7  10    0.55    0.57
   0   7  10    0.34    0.35
   0  -7 -10    0.00    0.35
   0   7  10   -0.10    0.42
   0  -7 -10   -0.20    0.65
   0   7  11   32.28    2.76
   0  -7 -11   29.45    2.63
   0  -7 -11   30.33    2.69
   0   7  11   34.20    2.91
   0   7  11   31.03    3.70
   0  -7 -11   34.10    3.11
   0   7  11   31.87    3.54
   0  -7 -11   31.51    3.01
   0   8 -10   35.52    3.01
   0   8 -10   37.31    2.87
   0  -8  10   31.05    2.43
   0  -8   9    5.57    1.20
   0  -8   9    3.48    0.70
   0   8  -9    3.23    1.27
   0   8  -9    5.29    1.32
   0   8  -9    6.78    1.45
   0   8  -9    5.35    1.30
   0   8  -9    3.34    1.08
   0  -8   9    4.45    0.91
   0   8  -9    4.97    1.47
   0   8  -9    5.84    1.17
   0   8  -9    3.76    1.36
   0  -8   8    1.67    0.80
   0   8  -8    1.76    0.74
   0  -8   8    2.50    0.91
   0   8  -8    3.19    1.27
   0   8  -8    1.65    0.71
   0  -8   8    3.37    0.96
   0   8  -8    3.37    1.05
   0   8  -8    3.52    1.45
   0  -8   8    3.10    0.91
   0   8  -8    3.18    1.19
   0   8  -8    2.28    1.29
   0   8  -8    3.75    1.13
   0   8  -7   26.90    3.46
   0   8  -7   24.81    3.95
   0  -8   7   25.85    3.19
   0   8  -7   29.48    4.68
   0   8  -7   24.47    4.16
   0   8  -7   28.07    3.72
   0   8  -7   28.13    4.38
   0   8  -7   28.80    3.29
   0  -8   7   28.55    3.23
   0  -8   7   27.71    3.15
   0  -8   6  107.04    7.21
   0   8  -6  115.22    8.29
   0  -8   6  104.65    6.68
   0   8  -6  109.63    9.95
   0   8  -6   98.36    9.05
   0   8  -6  116.45   14.11
   0   8  -6  110.08    7.80
   0  -8   6  103.99    7.32
   0   8  -6  104.25   10.17
   0   8  -6  102.51    6.90
   0   8  -6  111.29    9.74
   0  -8   5  252.85   11.90
   0   8  -5  254.11   13.40
   0   8  -5  256.39   15.99
   0   8  -5  279.07   22.35
   0   8  -5  249.58   16.04
   0   8  -5  252.80   13.82
   0  -8   5  264.83   13.03
   0  -8   5  258.68   13.17
   0   8  -5  261.50   17.53
   0   8  -5  288.20   14.04
   0   8  -5  293.44   17.47
   0   8  -5  236.86   12.05
   0   8  -4  174.36   10.71
   0   8  -4  170.56   12.57
   0   8  -4  168.46   12.68
   0  -8   4  171.22    9.79
   0  -8   4  171.81   10.15
   0   8  -4  175.78   17.21
   0   8  -4  150.45   13.00
   0   8  -4  171.49   10.68
   0   8  -4  184.48   13.55
   0  -8   4  169.35    8.75
   0  -8   4  168.07    9.76
   0   8  -3  550.94   22.91
   0   8  -3  531.95   23.04
   0  -8   3  542.98   22.13
   0   8  -3  578.17   27.27
   0   8  -3  480.11   22.08
   0  -8   3  542.73   20.05
   0   8  -3  521.09   25.59
   0  -8   3  463.15   24.21
   0   8  -3  515.28   31.84
   0   8  -3  557.60   26.40
   0  -8   3  524.26   21.99
   0  -8   3  551.72   21.71
   0   8  -3  628.04   29.97
   0   8  -3  534.61   27.56
   0   8  -2  176.87   10.73
   0   8  -2  162.46   10.05
   0  -8   2  164.81    9.66
   0   8  -2  154.66   10.38
   0   8  -2  167.26   13.41
   0   8  -2  182.36   13.39
   0   8  -2  194.24   15.11
   0  -8   2  170.30    9.43
   0   8  -2  168.66   16.24
   0   8  -2  175.71   12.83
   0  -8   2  164.75   10.01
   0  -8   2  134.10   10.84
   0   8  -1    6.25    3.88
   0   8  -1    7.75    2.80
   0   8  -1    3.75    1.56
   0  -8   1    3.84    2.08
   0   8  -1    3.83    1.89
   0  -8   1    2.61    1.71
   0   8  -1    8.67    2.98
   0   8  -1    6.07    1.87
   0  -8   1    6.13    1.75
   0  -8   1    6.23    3.90
   0   8  -1    3.21    3.17
   0  -8   1    6.06    1.59
   0   8  -1    4.37    0.80
   0  -8   1    5.09    1.40
   0   8  -1    0.48    1.66
   0  -8   1    4.87    2.94
   0   8  -1    5.73    1.77
   0   8  -1    7.10    3.09
   0   8  -1    4.25    1.90
   0  -8   1    8.81    3.75
   0  -8   0    8.97    2.72
   0   8   0   10.68    4.13
   0  -8   0    9.30    2.05
   0   8   0   13.39    3.14
   0   8   0   14.07    4.41
   0   8   0   10.43    2.73
   0   8   0    8.73    3.79
   0  -8   0   11.85    2.73
   0   8   0   12.80    3.27
   0  -8   0   11.49    2.44
   0   8   0   11.42    3.25
   0   8   0   13.01    2.59
   0   8   0   14.18    2.88
   0  -8   0    9.83    3.96
   0  -8   0   11.68    4.47
   0   8   0   14.84    5.51
   0   8   0   11.86    2.54
   0   8   0   13.39    4.19
   0   8   0   16.24    4.64
   0   8   0   15.20    4.23
   0  -8   0    8.68    3.96
   0   8   0   18.30    4.70
   0  -8   0   11.77    2.25
   0  -8   0   14.56    4.91
   0  -8   0   11.90    2.02
   0  -8   0   12.51    2.27
   0  -8  -1    4.36    1.54
   0  -8  -1    5.85    2.71
   0  -8  -1    8.94    3.78
   0  -8  -1    4.81    2.07
   0  -8  -1    2.77    1.15
   0   8   1    4.55    1.67
   0   8   1    6.86    2.36
   0   8   1    4.24    1.50
   0   8   1    3.89    2.04
   0   8   1    3.77    1.26
   0   8   1    3.39    1.77
   0   8   1    5.41    1.87
   0  -8  -1    2.89    1.07
   0   8   1    4.74    3.47
   0  -8  -1    4.35    1.79
   0   8   1    5.64    2.95
   0   8   1    4.83    1.56
   0  -8  -1    4.70    1.91
   0   8   1   -6.76    3.37
   0   8   1    1.29    0.93
   0   8   1    2.36    1.05
   0  -8  -1    5.48    1.65
   0  -8  -1    2.67    1.18
   0   8   1    3.97    1.96
   0  -8  -1    5.28    3.30
   0  -8  -2  402.55   16.97
   0   8   2  491.42   24.73
   0   8   2  449.60   19.87
   0  -8  -2  391.26   18.23
   0   8   2  369.16   18.42
   0  -8  -2  390.01   16.26
   0   8   2  474.67   23.63
   0  -8  -2  439.80   23.49
   0   8   2  405.85   21.92
   0   8   2  421.42   19.13
   0  -8  -2  413.72   20.43
   0  -8  -2  384.13   17.94
   0   8   2  466.63   21.20
   0  -8  -2  394.96   18.50
   0  -8  -2  416.56   20.52
   0   8   2  498.81   26.74
   0   8   3  288.90   16.16
   0  -8  -3  252.83   13.69
   0   8   3  254.34   16.22
   0   8   3  312.28   19.18
   0   8   3  287.93   14.92
   0  -8  -3  274.34   13.66
   0  -8  -3  270.91   12.30
   0   8   3  267.73   14.37
   0  -8  -3  279.31   15.70
   0   8   3  285.75   17.80
   0  -8  -3  263.41   17.89
   0  -8  -3  268.00   17.61
   0  -8  -3  261.56   14.02
   0   8   3  237.06   13.55
   0   8   3  314.49   20.82
   0  -8  -3  286.79   15.80
   0   8   4  118.27    9.74
   0   8   4  122.16   11.55
   0  -8  -4  116.21    7.75
   0   8   4  114.48   11.61
   0  -8  -4   93.57    7.48
   0   8   4  114.31    8.48
   0  -8  -4  102.31    7.96
   0  -8  -4  110.59    9.10
   0  -8  -4  111.43   10.57
   0   8   4  104.34    8.14
   0  -8  -4   97.58   10.20
   0   8   4   92.15    7.42
   0   8   4  103.14    9.25
   0   8   4  116.15   10.73
   0  -8  -4  110.59    9.07
   0  -8  -5   46.29    5.64
   0  -8  -5   45.16    5.68
   0   8   5   48.25    5.14
   0  -8  -5   41.52    6.61
   0   8   5   44.30    5.09
   0  -8  -5   38.43    4.55
   0   8   5   54.80    7.21
   0   8   5   39.64    4.39
   0   8   5   49.61    7.27
   0   8   5   52.10    7.52
   0  -8  -5   44.46    6.44
   0   8   5   43.40    5.72
   0  -8  -5   42.51    4.44
   0  -8  -5   47.24    5.16
   0  -8  -6   51.36    7.94
   0  -8  -6   48.59    5.26
   0  -8  -6   51.04    5.14
   0   8   6   65.43    7.74
   0   8   6   53.72    5.54
   0  -8  -6   52.22    4.75
   0  -8  -6   64.22    6.37
   0   8   6   58.41    6.54
   0  -8  -6   56.58    6.21
   0   8   6   57.64    5.30
   0   8   6   53.86    5.33
   0   8   6   64.42    8.04
   0  -8  -6   48.93    7.09
   0   8   7   61.36    5.70
   0   8   7   67.25    6.74
   0  -8  -7   72.15    6.70
   0   8   7   63.76    5.47
   0  -8  -7   71.90    6.60
   0   8   7   66.31    7.95
   0  -8  -7   59.26    5.37
   0  -8  -7   59.11    5.62
   0   8   7   75.19    5.71
   0   8   7   65.69    5.56
   0  -8  -7   51.28    4.50
   0   8   7   69.77    7.78
   0   8   8   33.88    3.87
   0  -8  -8   35.67    3.90
   0   8   8   41.87    5.78
   0   8   8   35.69    4.54
   0   8   8   40.29    5.39
   0   8   8   38.77    3.94
   0  -8  -8   38.42    4.45
   0  -8  -8   36.54    4.30
   0  -8  -8   31.08    3.59
   0   8   8   34.62    3.51
   0   8   8   35.42    3.65
   0  -8  -9   27.97    3.02
   0   8   9   34.30    3.95
   0   8   9   28.94    3.10
   0   8   9   38.93    4.61
   0   8   9   36.89    3.53
   0  -8  -9   34.13    3.78
   0  -8  -9   32.28    3.62
   0  -8  -9   28.06    3.18
   0   8   9   32.43    3.14
   0   8   9   35.58    4.73
   0   8  10   83.85    5.49
   0   8  10   93.49    6.61
   0  -8 -10   79.77    4.86
   0  -8 -10   81.15    5.20
   0  -8 -10   79.39    4.73
   0  -8 -10   81.88    5.19
   0   8  10   84.71    4.86
   0   8  10   88.97    6.13
   0   9  -9   14.63    1.77
   0  -9   9    9.83    1.18
   0   9  -8   31.19    3.24
   0   9  -8   29.22    3.02
   0   9  -8   26.56    3.06
   0   9  -8   25.75    3.16
   0   9  -8   29.61    3.49
   0   9  -8   25.99    3.15
   0  -9   8   23.79    2.21
   0  -9   8   24.66    2.36
   0  -9   8   32.69    2.64
   0   9  -8   32.56    2.78
   0  -9   7   10.10    1.54
   0   9  -7    9.26    2.08
   0   9  -7    7.19    1.84
   0  -9   7    7.79    1.49
   0  -9   7   10.45    1.67
   0   9  -7   11.88    1.78
   0   9  -7   12.98    2.64
   0   9  -7   10.23    2.10
   0   9  -7   12.35    2.15
   0   9  -7    9.17    2.11
   0  -9   6    9.45    1.56
   0   9  -6    8.65    2.40
   0   9  -6    5.72    1.92
   0   9  -6    9.21    2.01
   0   9  -6    5.50    1.68
   0  -9   6   10.07    1.86
   0  -9   6    8.73    1.59
   0   9  -6   10.27    1.79
   0   9  -6    7.47    2.13
   0   9  -6    8.03    1.84
   0   9  -5    3.16    1.10
   0  -9   5    3.07    1.01
   0  -9   5    1.20    0.74
   0   9  -5    2.05    0.97
   0   9  -5    1.23    0.33
   0   9  -5    3.39    1.43
   0   9  -5   -0.18    0.40
   0   9  -5    1.55    1.07
   0  -9   5    2.82    0.93
   0   9  -5    1.67    1.27
   0   9  -4  144.58   11.41
   0   9  -4  122.34   10.24
   0  -9   4  135.52    8.28
   0  -9   4  121.98    8.25
   0   9  -4  131.59    8.63
   0   9  -4  138.00    9.22
   0   9  -4  138.87   10.87
   0   9  -4  146.71   15.53
   0   9  -4  145.90   12.58
   0   9  -4  143.63    9.38
   0  -9   4  128.92    7.16
   0  -9   4  124.68    7.88
   0   9  -3  317.12   18.46
   0   9  -3  298.06   17.43
   0   9  -3  313.02   23.44
   0   9  -3  275.20   18.90
   0  -9   3  298.02   14.02
   0   9  -3  306.67   15.18
   0   9  -3  313.69   17.95
   0   9  -3  297.86   15.54
   0  -9   3  298.63   14.47
   0  -9   3  289.67   14.07
   0   9  -3  286.40   14.88
   0   9  -2   79.86    8.47
   0   9  -2   74.92    6.87
   0   9  -2   73.68    7.89
   0   9  -2   82.93    9.94
   0   9  -2   65.52    7.51
   0  -9   2   70.43    6.05
   0   9  -2   66.21   10.08
   0   9  -2   69.50    8.61
   0  -9   2   71.69    5.66
   0  -9   2   48.63    6.30
   0   9  -2   67.02    6.37
   0  -9   2   66.51    5.76
   0   9  -2   67.98    6.14
   0  -9   2   66.44    5.86
   0  -9   1   17.63    2.60
   0  -9   1   18.35    2.86
   0   9  -1   15.84    3.14
   0   9  -1   14.95    2.73
   0   9  -1   19.49    4.17
   0  -9   1   12.15    2.93
   0   9  -1   20.63    4.95
   0  -9   1   17.08    2.85
   0   9  -1   23.16    4.63
   0   9  -1   12.39    3.54
   0   9  -1   16.63    2.99
   0   9  -1   13.73    4.69
   0   9   0   20.05    4.57
   0   9   0   18.92    4.33
   0   9   0   17.59    3.27
   0   9   0   20.17    4.19
   0   9   0   19.73    5.05
   0  -9   0   14.82    3.17
   0   9   0   20.04    3.11
   0   9   0   15.46    3.01
   0  -9   0   17.96    3.01
   0  -9   0   20.53    2.74
   0  -9   0   21.80    3.06
   0   9   1    1.82    1.37
   0   9   1    2.67    1.39
   0  -9  -1    3.30    1.86
   0   9   1    5.73    2.76
   0   9   1    2.45    1.25
   0   9   1    2.12    0.99
   0   9   1    3.06    1.14
   0  -9  -1    2.28    0.91
   0  -9  -1    3.42    1.39
   0  -9  -1    2.68    1.22
   0  -9  -1    0.85    1.44
   0  -9  -1    3.19    1.38
   0   9   1    3.60    1.43
   0  -9  -1    1.54    0.73
   0  -9  -2   10.21    2.00
   0  -9  -2   10.59    2.90
   0   9   2   11.41    2.52
   0   9   2   10.62    2.49
   0  -9  -2   10.47    2.31
   0  -9  -2   13.97    2.61
   0   9   2   19.62    4.50
   0  -9  -2   11.68    2.36
   0  -9  -2    9.05    1.58
   0   9   2   12.29    3.86
   0  -9  -2   13.07    3.59
   0   9   2   12.11    2.73
   0   9   2   14.49    3.75
   0   9   2    9.77    3.31
   0   9   2   12.22    2.74
   0   9   3   51.94    5.50
   0  -9  -3   45.67    4.86
   0  -9  -3   44.43    4.75
   0  -9  -3   46.22    5.55
   0   9   3   49.69    5.91
   0   9   3   49.29    5.29
   0   9   3   47.12    6.40
   0  -9  -3   44.74    5.58
   0  -9  -3   40.55    4.54
   0   9   3   41.68    4.82
   0   9   3   54.10    7.29
   0   9   3   51.81    6.80
   0   9   3   51.51    7.79
   0  -9  -3   45.31    4.05
   0  -9  -4  132.84    8.94
   0   9   4  133.22    9.01
   0   9   4  152.05    9.85
   0   9   4  153.92    9.95
   0  -9  -4  137.57   10.03
   0   9   4  153.56   12.06
   0   9   4  135.88   10.35
   0   9   4  167.60   13.16
   0  -9  -4  133.48    8.60
   0  -9  -4  129.42    8.69
   0  -9  -4  129.51    9.78
   0   9   5   98.21    7.23
   0   9   5  110.28    8.11
   0   9   5  125.62   10.96
   0   9   5  107.84    8.88
   0  -9  -5  113.37    7.36
   0  -9  -5   96.09    7.12
   0  -9  -5  101.42    7.46
   0  -9  -5  108.93    8.47
   0  -9  -5  114.42    8.64
   0   9   5  103.84    7.75
   0   9   5  124.33   10.45
   0  -9  -6   39.59    4.15
   0   9   6   49.98    4.75
   0   9   6   45.75    4.84
   0  -9  -6   39.92    4.30
   0   9   6   46.11    5.93
   0  -9  -6   39.88    4.68
   0   9   6   46.10    5.30
   0   9   6   54.69    6.66
   0  -9  -6   44.32    4.07
   0  -9  -6   39.55    4.77
   0  -9  -7   63.94    4.49
   0   9   7   66.98    5.51
   0  -9  -7   60.50    5.50
   0  -9  -7   56.35    4.74
   0   9   7   63.55    5.96
   0   9   7   70.91    7.12
   0  -9  -7   60.83    5.48
   0   9   7   66.93    5.09
   0   9   7   71.54    6.94
   0  -9  -7   57.37    4.90
   0  -9  -8   14.78    2.31
   0   9   8   14.10    2.56
   0   9   8   13.60    2.33
   0  -9  -8   10.40    1.77
   0  -9  -8   13.04    2.14
   0   9   8   13.87    1.78
   0   9   8   13.59    2.08
   0  -9  -8   13.29    1.92
   0   9   8   14.62    2.84
   0  -9  -9    1.11    0.42
   0  -9  -9    1.51    0.54
   0   9   9    1.44    0.63
   0 -10   7    7.61    1.11
   0  10  -7    9.20    1.46
   0 -10   7    6.98    1.09
   0  10  -7    9.41    1.56
   0  10  -6   18.91    2.60
   0 -10   6   17.98    2.04
   0  10  -6   17.31    2.70
   0 -10   6   16.93    2.06
   0  10  -6   14.89    2.43
   0  10  -6   19.17    2.35
   0  10  -6   15.32    2.32
   0  10  -6   16.04    2.39
   0  10  -5   33.01    3.45
   0  10  -5   27.98    3.76
   0 -10   5   30.01    3.08
   0  10  -5   27.30    3.66
   0  10  -5   26.89    3.50
   0 -10   5   33.78    3.16
   0  10  -5   40.19    4.07
   0  10  -5   27.55    3.95
   0  10  -4   11.29    2.56
   0  10  -4   12.40    2.10
   0 -10   4   11.65    1.89
   0 -10   4    9.22    1.55
   0  10  -4   10.13    2.44
   0  10  -4   13.49    2.78
   0 -10   4   10.98    1.93
   0  10  -4   14.10    2.43
   0  10  -4   14.20    2.49
   0  10  -3   11.24    2.17
   0 -10   3    7.00    1.61
   0 -10   3   10.65    1.91
   0  10  -3   10.04    2.05
   0 -10   3    7.63    1.56
   0  10  -3    6.93    2.07
   0  10  -3   10.31    2.74
   0  10  -3    9.46    2.12
   0  10  -3    8.48    1.78
   0  10  -3   10.19    2.51
   0  10  -2   26.15    4.29
   0  10  -2   27.47    3.64
   0  10  -2   29.41    4.56
   0 -10   2   25.38    3.07
   0  10  -2   24.57    4.16
   0 -10   2   22.45    2.88
   0 -10   2   24.47    3.08
   0 -10   2   25.20    3.11
   0  10  -2   25.29    3.47
   0  10  -2   27.05    3.85
   0  10  -1  111.09    9.29
   0  10  -1  104.95    7.44
   0  10  -1  117.80    9.65
   0 -10   1  110.33    6.89
   0 -10   1  108.61    7.46
   0  10  -1  121.95    8.52
   0 -10   1  108.05    7.37
   0  10  -1  115.91    8.56
   0  10  -1  126.70   10.26
   0 -10   1   99.87    8.39
   0 -10   1  111.75    7.18
   0 -10   0    3.82    1.63
   0 -10   0    1.62    0.79
   0 -10   0    1.56    0.89
   0  10   0    2.28    0.82
   0  10   0    1.44    1.09
   0 -10   0    2.82    0.89
   0 -10   0    2.48    0.84
   0  10   0    2.32    1.35
   0  10   0    2.84    1.02
   0  10   0    2.25    0.98
   0 -10  -1   12.31    2.73
   0  10   1   18.83    3.77
   0 -10  -1   19.81    2.88
   0  10   1   19.72    2.99
   0  10   1   17.22    3.02
   0  10   1   22.14    4.50
   0  10   1   15.45    2.88
   0 -10  -1   15.73    2.39
   0 -10  -1   17.10    2.26
   0  10   2   12.86    2.59
   0 -10  -2    8.06    1.87
   0  10   2   12.33    2.54
   0 -10  -2    9.81    1.71
   0  10   2   11.65    2.31
   0  10   2    8.26    2.32
   0  10   2   12.95    3.18
   0 -10  -2    9.36    1.92
   0 -10  -2    8.61    2.25
   0 -10  -2    9.52    1.88
   0  10   3    1.03    0.79
   0  10   3    1.37    1.35
   0 -10  -3    0.60    0.51
   0  10   3   -0.23    0.43
   0 -10  -3    0.44    0.37
   0 -10  -3    1.71    0.92
   0  10   3   -0.07    0.62
   0 -10  -3    2.19    1.07
   0  10   3    0.94    1.14
   0  10   4    0.04    0.46
   0 -10  -4    0.16    0.57
   0  10   4    1.19    0.53
   0 -10  -4    0.37    0.66
   0 -10  -4    0.06    0.35
   0  10   4   -0.60    0.43
   0  10   4   -0.35    0.54
   0  10   4    0.22    1.00
   0 -10  -4   -0.44    0.68
   0 -10  -5   24.77    2.91
   0 -10  -5   36.38    3.41
   0  10   5   32.77    3.97
   0 -10  -5   27.73    3.53
   0  10   5   34.77    3.89
   0 -10  -5   31.42    3.30
   0  10   5   33.72    4.40
   0  10   5   37.71    4.94
   0  10   5   32.10    3.38
   0  10   5   38.28    3.97
   0  10   6   12.42    2.54
   0 -10  -6    9.76    1.53
   0 -10  -6    7.61    1.68
   0  10   6   10.74    2.37
   0 -10  -6    7.80    1.45
   0  10   6    9.48    1.99
   0  10   6    9.35    1.71
   0  10   6    8.78    1.73
   0 -10  -6    6.64    1.38
   0  10   7  230.31   10.54
   0  10   7  238.21   10.45
   0  10   7  242.99   11.06
   0 -10  -7  178.21    8.38
   0 -10  -7  168.92    8.77
   0 -10  -7  186.32    8.58
   0  10   7  240.33    9.98
   0  11  -5    5.80    1.19
   0 -11   5    5.26    0.91
   0 -11   5    5.31    0.87
   0 -11   4   33.22    2.76
   0 -11   4   35.16    2.75
   0  11  -4   42.09    3.60
   0 -11   3   88.07    5.32
   0 -11   3   92.32    5.29
   0  11  -3  107.99    6.40
   0  11  -3   94.83    6.35
   0  11  -3   98.04    6.48
   0 -11   3   91.90    4.99
   0  11  -3   88.44    6.38
   0  11  -3  101.61    5.47
   0  11  -2   95.43    6.52
   0 -11   2   80.66    4.95
   0  11  -2   76.50    6.06
   0  11  -2   90.29    5.77
   0  11  -2   85.76    6.59
   0 -11   2   79.38    5.00
   0  11  -2   90.28    5.84
   0  11  -2   92.45    6.62
   0 -11   2   81.88    5.14
   0 -11   1    1.07    0.44
   0  11  -1    1.05    0.94
   0  11  -1    2.21    0.99
   0  11  -1    2.56    0.90
   0  11  -1    1.50    0.99
   0 -11   1    1.76    0.63
   0 -11   1    1.26    0.62
   0  11  -1    1.37    0.72
   0  11  -1    0.55    0.46
   0 -11   1    0.91    0.25
   0  11   0   14.71    2.49
   0  11   0   16.66    2.63
   0  11   0   14.09    2.71
   0 -11   0   11.54    1.69
   0  11   0   13.68    2.62
   0 -11   0   13.10    1.98
   0 -11   0   12.28    1.59
   0  11   0   14.93    2.60
   0 -11   0   14.01    2.06
   0  11   1    2.51    1.14
   0 -11  -1    1.89    0.76
   0  11   1    0.78    0.44
   0 -11  -1    1.06    0.72
   0  11   1    0.34    0.72
   0  11   1    3.01    1.12
   0 -11  -1    1.27    0.59
   0 -11  -1    1.56    0.65
   0  11   1    1.83    0.68
   0 -11  -2    8.52    1.57
   0  11   2   12.29    2.37
   0 -11  -2    6.35    1.55
   0  11   2    9.62    1.97
   0  11   2   10.73    2.02
   0 -11  -2    8.70    1.72
   0  11   2    6.47    1.74
   0  11   2    7.88    1.80
   0  11   3   20.80    2.75
   0 -11  -3   20.62    2.51
   0  11   3   21.33    2.68
   0  11   3   21.96    3.10
   0 -11  -3   20.30    2.33
   0  11   3   27.04    2.80
   0  11   3   19.80    2.82
   0 -11  -3   14.61    2.23
   0 -11  -4   43.64    3.55
   0  11   4   47.08    3.70
   0 -11  -4   43.19    3.33
   0  11   4   47.88    4.00
   0  11   4   55.12    4.06
   0 -11  -5  119.14    5.86
  -1  11   3   23.56    2.45
   1 -11  -3   20.55    2.02
  -1  11   2   65.62    4.67
   1 -11  -2   46.40    4.17
  -1  11   2   71.27    5.57
  -1  11   2   62.73    5.24
   1 -11  -2   54.19    3.70
  -1  11   2   62.26    4.47
  -1  11   2   65.28    5.56
   1 -11  -2   50.93    3.62
   1 -11  -1    9.45    1.45
   1 -11  -1    7.81    1.41
   1 -11  -1    5.19    1.35
  -1  11   1    8.45    1.62
   1 -11  -1    6.31    1.10
  -1  11   1    8.58    2.05
  -1  11   1   10.24    1.87
  -1  11   1    8.65    1.92
  -1  11   1    5.98    1.52
   1 -11   0   63.24    4.08
  -1  11   0   78.71    5.40
  -1  11   0   78.96    5.57
   1 -11   0   67.09    4.15
  -1  11   0   85.66    6.68
   1 -11   0   63.10    3.80
  -1  11   0   80.79    6.33
  -1  11   0   73.76    6.00
  -1  11  -1   19.20    2.58
   1 -11   1   15.00    1.76
  -1  11  -1   18.56    2.95
  -1  11  -1   17.73    2.79
   1 -11   1   14.65    1.66
  -1  11  -1   17.83    2.91
  -1  11  -1   15.60    2.20
  -1  11  -2    3.19    0.93
  -1  11  -2    3.01    0.77
   1 -11   2    3.09    0.71
   1 -11   2    3.34    0.78
  -1  11  -2    3.46    1.25
  -1  11  -2    3.88    1.37
  -1  11  -2    3.56    0.94
   1 -11   3   39.19    2.81
   1 -11   3   37.87    2.68
  -1  10   6   94.11    5.58
   1 -10  -6   71.13    5.19
  -1  10   6   90.21    5.77
  -1  10   6   91.22    6.39
  -1  10   6   95.31    6.72
   1 -10  -6   77.25    4.47
  -1  10   5   19.70    2.66
   1 -10  -5   12.85    2.31
  -1  10   5   20.49    2.52
  -1  10   5   23.81    3.45
   1 -10  -5   19.26    2.21
  -1  10   5   25.56    3.76
  -1  10   5   22.42    2.99
  -1  10   4    0.61    0.35
  -1  10   4   -0.03    0.56
  -1  10   4    0.87    0.67
   1 -10  -4   -0.67    0.60
  -1  10   4   -0.11    0.36
   1 -10  -4    0.12    0.62
  -1  10   4    0.03    0.83
  -1  10   4   -0.06    0.54
  -1  10   3    7.17    1.86
  -1  10   3    5.72    1.45
   1 -10  -3    4.55    1.69
   1 -10  -3    6.33    1.43
  -1  10   3    6.10    1.57
  -1  10   3    7.70    2.50
   1 -10  -3    8.21    1.42
  -1  10   3    6.69    1.82
  -1  10   3   10.80    2.65
   1 -10  -2    6.57    1.20
   1 -10  -2    5.17    1.80
  -1  10   2    7.47    1.96
   1 -10  -2    8.11    1.50
  -1  10   2    7.42    2.30
   1 -10  -2    7.89    1.74
  -1  10   2    4.87    1.37
  -1  10   2    6.43    1.76
  -1  10   2    9.14    2.55
  -1  10   2    7.41    1.97
  -1  10   1    1.82    1.13
  -1  10   1    2.20    0.65
   1 -10  -1    2.64    0.84
   1 -10  -1    2.10    0.86
  -1  10   1    4.84    1.95
   1 -10  -1    4.31    1.16
  -1  10   1    1.75    0.84
  -1  10   1    1.67    1.18
   1 -10  -1    1.24    1.05
  -1  10   0   22.35    3.39
  -1  10   0   26.40    4.48
   1 -10   0   20.49    2.79
   1 -10   0   18.37    2.54
   1 -10   0   15.26    3.04
  -1  10   0   21.00    3.28
  -1  10   0   23.57    4.21
   1 -10   0   18.48    2.36
   1 -10   0   18.99    2.51
  -1  10  -1    6.29    2.01
   1 -10   1    5.89    1.42
   1 -10   1    4.68    1.28
  -1  10  -1    8.19    2.08
   1 -10   1    5.23    1.68
   1 -10   1    6.05    1.51
  -1  10  -1    8.35    2.60
   1 -10   1    5.29    1.17
  -1  10  -1    5.92    1.86
  -1  10  -1    6.94    2.27
   1 -10   2   13.42    2.03
  -1  10  -2   11.59    3.03
  -1  10  -2   11.77    2.79
   1 -10   2   10.48    1.75
   1 -10   2   11.61    1.96
  -1  10  -2   13.01    2.58
  -1  10  -2   10.38    2.58
  -1  10  -2   11.28    2.06
  -1  10  -2    8.16    1.84
   1 -10   3   37.78    3.60
  -1  10  -3   40.88    5.40
  -1  10  -3   42.32    4.19
  -1  10  -3   35.48    4.95
   1 -10   3   39.56    3.54
  -1  10  -3   42.28    5.32
  -1  10  -3   45.25    4.69
  -1  10  -3   40.93    4.21
  -1  10  -4   43.27    4.96
   1 -10   4   35.60    3.28
   1 -10   4   39.04    3.49
  -1  10  -4   43.78    5.15
  -1  10  -4   47.62    4.05
  -1  10  -4   45.80    4.29
  -1  10  -4   39.16    5.09
  -1  10  -4   40.60    4.15
   1 -10   5   56.77    3.95
  -1  10  -5   64.89    4.64
  -1  10  -5   74.72    5.32
  -1  10  -5   64.98    5.89
   1 -10   5   54.90    3.97
  -1  10  -5   63.30    5.91
  -1  10  -5   66.19    6.23
  -1  10  -6   20.27    2.95
  -1  10  -6   16.41    2.37
  -1  10  -6   18.39    2.76
  -1  10  -6   17.10    2.54
  -1  10  -6   22.17    2.56
   1 -10   6   18.53    1.81
   1 -10   6   16.52    1.73
  -1   9   8   66.90    5.30
  -1   9   8   65.51    4.76
   1  -9  -8   54.37    4.34
  -1   9   8   60.22    4.08
  -1   9   8   66.59    5.53
   1  -9  -8   53.31    4.29
  -1   9   7   20.14    2.67
   1  -9  -7   17.11    2.01
  -1   9   7   18.98    3.33
  -1   9   7   22.78    3.52
   1  -9  -7   15.89    2.02
   1  -9  -7   19.74    2.86
  -1   9   7   16.70    2.70
   1  -9  -7   17.00    2.62
   1  -9  -7   14.84    2.02
   1  -9  -6   22.68    2.76
  -1   9   6   28.79    3.93
  -1   9   6   26.94    3.46
  -1   9   6   32.03    4.79
  -1   9   6   31.30    4.73
   1  -9  -6   24.70    3.54
   1  -9  -6   23.27    2.71
   1  -9  -6   22.68    3.48
   1  -9  -6   24.82    2.80
  -1   9   6   25.46    3.05
  -1   9   5  110.36    9.85
   1  -9  -5   97.34    7.88
  -1   9   5   90.07    6.83
   1  -9  -5   86.43    6.08
   1  -9  -5   89.74    7.59
  -1   9   5   95.68    7.98
  -1   9   5  102.02    9.10
   1  -9  -5   87.33    6.06
  -1   9   5   99.37    7.47
   1  -9  -5   87.53    6.18
  -1   9   4    3.11    1.23
   1  -9  -4    2.13    0.96
  -1   9   4    1.72    1.26
  -1   9   4    0.62    1.19
   1  -9  -4    1.26    0.67
   1  -9  -4    1.76    0.73
  -1   9   4    1.68    1.11
   1  -9  -4    2.39    1.68
   1  -9  -4    1.23    0.92
   1  -9  -4    0.91    0.71
  -1   9   4    1.50    1.35
  -1   9   4    3.36    1.76
   1  -9  -3   46.44    4.41
   1  -9  -3   43.61    5.58
  -1   9   3   49.96    5.40
  -1   9   3   46.99    5.28
   1  -9  -3   49.66    4.73
  -1   9   3   52.47    7.06
  -1   9   3   54.23    6.96
  -1   9   3   47.30    5.69
   1  -9  -3   40.48    3.79
  -1   9   3   40.63    4.72
   1  -9  -3   44.72    3.58
  -1   9   2   67.56    7.85
   1  -9  -2   58.60    5.31
  -1   9   2   57.19    5.93
  -1   9   2   68.42    6.42
   1  -9  -2   50.63    6.15
  -1   9   2   56.44    6.21
   1  -9  -2   52.84    4.24
   1  -9  -2   52.80    4.59
  -1   9   2   60.62    6.18
  -1   9   1   12.44    2.68
   1  -9  -1   12.56    2.42
   1  -9  -1   12.34    1.97
  -1   9   1   10.42    2.42
  -1   9   1   14.18    2.86
  -1   9   1    9.01    3.00
  -1   9   1   11.69    2.74
   1  -9  -1   10.10    2.87
  -1   9   1   17.78    4.10
  -1   9   1   13.30    3.45
   1  -9  -1   12.40    2.14
  -1   9   0   50.07    6.83
   1  -9   0   40.25    5.61
  -1   9   0   54.83    5.49
   1  -9   0   45.28    4.40
   1  -9   0   46.98    4.18
   1  -9   0   45.20    4.66
  -1   9   0   51.40    5.71
  -1   9   0   48.48    7.24
  -1   9   0   48.59    5.59
  -1   9   0   57.67    7.52
   1  -9   1   13.77    2.43
  -1   9  -1   15.73    3.04
   1  -9   1   13.16    2.39
  -1   9  -1   17.49    4.12
   1  -9   1   13.99    2.25
   1  -9   1    9.22    2.62
  -1   9  -1   15.22    4.09
  -1   9  -1   17.76    4.17
  -1   9  -1   17.12    2.79
  -1   9  -1   15.33    3.06
   1  -9   2   41.70    4.27
  -1   9  -2   55.22    6.97
  -1   9  -2   56.22    7.26
  -1   9  -2   51.54    5.16
  -1   9  -2   50.91    5.73
   1  -9   2   44.19    4.20
  -1   9  -2   48.47    7.39
   1  -9   2   47.14    4.61
  -1   9  -2   49.40    6.61
   1  -9   2   35.94    5.28
  -1   9  -2   50.56    5.53
  -1   9  -3   42.41    5.12
  -1   9  -3   44.39    6.22
   1  -9   3   33.90    5.06
  -1   9  -3   39.67    4.67
  -1   9  -3   44.96    6.10
  -1   9  -3   44.49    4.97
  -1   9  -3   55.48    7.06
   1  -9   3   40.85    4.02
   1  -9   3   39.46    3.87
   1  -9   3   41.16    4.25
   1  -9   4    2.21    0.71
  -1   9  -4    1.88    1.20
  -1   9  -4    3.86    1.59
   1  -9   4    1.17    0.67
  -1   9  -4    1.65    1.00
  -1   9  -4    3.25    1.31
  -1   9  -4    3.97    2.05
  -1   9  -4    1.92    0.77
   1  -9   4    2.62    1.12
  -1   9  -4    2.25    1.05
  -1   9  -5    1.37    1.02
  -1   9  -5    2.87    1.31
  -1   9  -5    1.05    1.10
   1  -9   5    1.45    0.61
   1  -9   5    2.42    0.84
  -1   9  -5    3.01    1.35
   1  -9   5    2.03    0.91
  -1   9  -5    3.78    1.39
  -1   9  -5    2.23    1.00
  -1   9  -5    1.54    0.83
  -1   9  -6   31.82    3.80
   1  -9   6   24.10    2.48
  -1   9  -6   21.54    3.75
  -1   9  -6   23.73    2.89
   1  -9   6   22.30    2.52
  -1   9  -6   26.40    4.34
  -1   9  -6   21.01    3.66
   1  -9   6   23.81    2.69
   1  -9   7   -0.22    0.30
  -1   9  -7    0.55    0.30
  -1   9  -7   -0.52    0.69
  -1   9  -7    0.37    0.42
   1  -9   7    0.38    0.35
  -1   9  -7    0.99    0.59
  -1   9  -7    0.38    0.63
  -1   9  -7   -0.82    0.96
   1  -9   7   -0.16    0.39
  -1   9  -8    1.31    0.92
  -1   9  -8    0.25    0.55
  -1   9  -8    0.29    0.22
   1  -9   8    0.32    0.20
  -1   9  -8    0.37    0.25
  -1   9  -8   -0.59    0.64
  -1   9  -8    0.29    0.49
  -1   8   9    9.46    1.48
   1  -8  -9    9.79    1.54
  -1   8   9    8.81    1.40
  -1   8   9   11.08    1.62
  -1   8   9   12.75    2.10
  -1   8   9   11.40    2.41
  -1   8   9   10.32    2.17
   1  -8  -9   11.56    1.69
   1  -8  -9   11.19    1.93
   1  -8  -9   12.10    2.06
  -1   8   8   32.79    3.28
   1  -8  -8   28.76    3.09
  -1   8   8   30.39    3.26
   1  -8  -8   33.89    4.06
   1  -8  -8   31.34    3.35
  -1   8   8   35.13    3.69
  -1   8   8   29.72    4.55
  -1   8   8   32.04    3.98
   1  -8  -8   26.37    2.61
   1  -8  -8   32.45    3.97
  -1   8   8   33.63    4.56
  -1   8   7   44.59    5.20
   1  -8  -7   51.12    5.47
   1  -8  -7   47.82    5.27
   1  -8  -7   42.27    4.26
  -1   8   7   53.70    6.84
   1  -8  -7   37.19    3.91
   1  -8  -7   47.48    4.01
  -1   8   7   48.38    4.88
  -1   8   7   41.85    4.16
  -1   8   7   47.61    4.44
  -1   8   7   49.31    6.14
  -1   8   6   19.14    3.89
  -1   8   6   18.43    3.11
  -1   8   6   22.30    3.19
   1  -8  -6   19.02    2.65
   1  -8  -6   16.40    2.67
   1  -8  -6   19.81    3.50
  -1   8   6   14.57    3.17
  -1   8   6   21.44    2.99
  -1   8   6   23.84    4.74
  -1   8   6   20.37    2.88
   1  -8  -6   17.70    3.35
   1  -8  -6   18.61    2.91
  -1   8   5  119.40   10.03
   1  -8  -5  109.33    7.91
  -1   8   5  125.78    9.24
   1  -8  -5  119.93    9.73
  -1   8   5  137.01   11.66
  -1   8   5  125.53    8.12
   1  -8  -5  117.30    7.59
   1  -8  -5  130.71   10.04
  -1   8   5  141.81   12.34
   1  -8  -5  115.44    6.62
   1  -8  -5  100.94    7.52
  -1   8   5  126.10    8.71
   1  -8  -4  141.50   10.79
  -1   8   4  148.30   13.52
   1  -8  -4  156.55   11.27
   1  -8  -4  132.09    8.87
  -1   8   4  169.17   13.81
   1  -8  -4  146.64    8.81
  -1   8   4  149.81   10.35
   1  -8  -4  133.64    7.64
  -1   8   4  149.46    9.94
  -1   8   4  145.85   11.08
  -1   8   4  126.38    8.98
   1  -8  -4  126.28   11.63
   1  -8  -4  133.49    8.77
   1  -8  -4  136.87   11.70
  -1   8   4  159.91   12.86
  -1   8   3   74.54    7.64
  -1   8   3   64.51    6.31
  -1   8   3   70.68    6.75
   1  -8  -3   70.10    5.95
   1  -8  -3   70.88    5.88
   1  -8  -3   75.60    6.17
   1  -8  -3   61.66    4.57
  -1   8   3   76.64    8.81
   1  -8  -3   66.70    5.12
  -1   8   3   85.69   10.43
   1  -8  -3   71.72    8.30
  -1   8   3   77.78    7.27
   1  -8  -3   78.17    7.80
  -1   8   3   86.85    9.81
   1  -8  -3   69.93    7.39
   1  -8  -3   69.40    8.29
  -1   8   2   10.64    2.58
   1  -8  -2   11.85    2.30
   1  -8  -2   11.21    3.00
  -1   8   2   10.84    2.80
  -1   8   2    9.20    2.97
   1  -8  -2   12.12    2.07
   1  -8  -2    8.97    2.88
  -1   8   2   12.86    2.78
   1  -8  -2   13.85    2.51
  -1   8   2   10.30    3.68
  -1   8   2   11.24    2.49
  -1   8   2   14.99    3.65
   1  -8  -2   11.46    3.04
  -1   8   2   14.11    3.83
   1  -8  -2   11.81    1.89
   1  -8  -1   24.19    4.23
  -1   8   1   24.40    4.00
  -1   8   1   22.13    4.75
   1  -8  -1   23.40    3.14
  -1   8   1   24.24    4.77
  -1   8   1   24.86    4.18
   1  -8  -1   24.37    2.85
   1  -8  -1   24.06    4.75
  -1   8   1   26.10    3.94
   1  -8  -1   27.33    3.53
  -1   8   1   23.54    5.15
  -1   8   1   21.11    5.17
  -1   8   1   26.83    4.13
   1  -8   0   40.93    6.21
  -1   8   0   50.53    8.03
  -1   8   0   49.69    5.37
  -1   8   0   43.65    6.75
   1  -8   0   45.93    4.67
   1  -8   0   34.64    5.19
   1  -8   0   38.24    3.75
  -1   8   0   42.02    5.24
  -1   8   0   41.93    6.33
  -1   8   0   42.30    5.29
  -1   8   0   45.22    5.39
   1  -8   0   40.34    4.15
  -1   8   0   45.63    6.82
  -1   8  -1   49.96    7.02
   1  -8   1   39.38    6.06
  -1   8  -1   48.18    5.12
  -1   8  -1   45.66    5.58
   1  -8   1   42.44    4.04
   1  -8   1   45.66    4.45
   1  -8   1   41.55    5.84
  -1   8  -1   45.56    6.46
  -1   8  -1   39.78    6.58
  -1   8  -1   50.82    8.10
  -1   8  -1   44.09    4.77
  -1   8  -1   44.26    5.29
   1  -8   1   45.62    4.63
  -1   8  -2   26.65    4.79
  -1   8  -2   16.83    4.04
   1  -8   2   20.66    2.80
  -1   8  -2   23.48    5.06
   1  -8   2   15.89    3.58
  -1   8  -2   18.20    3.29
   1  -8   2   21.81    3.14
  -1   8  -2   22.47    5.17
  -1   8  -2   23.38    3.83
   1  -8   2   19.81    2.82
  -1   8  -2   24.23    3.65
   1  -8   3  258.57   13.14
   1  -8   3  262.68   16.37
  -1   8  -3  276.05   15.23
  -1   8  -3  272.14   14.71
  -1   8  -3  316.81   19.00
  -1   8  -3  295.46   17.71
  -1   8  -3  270.77   13.45
   1  -8   3  265.28   12.95
  -1   8  -3  263.41   14.27
  -1   8  -3  267.82   21.61
   1  -8   3  263.22   12.66
  -1   8  -3  306.64   18.25
  -1   8  -3  277.75   19.57
  -1   8  -3  261.39   18.61
   1  -8   3  247.04   11.27
  -1   8  -4  263.02   21.56
   1  -8   4  214.62   10.26
  -1   8  -4  230.60   13.42
  -1   8  -4  222.96   15.27
   1  -8   4  232.38   11.58
  -1   8  -4  245.74   16.49
  -1   8  -4  232.15   15.70
  -1   8  -4  237.71   17.49
  -1   8  -4  238.39   13.30
   1  -8   4  215.90   11.65
  -1   8  -4  209.06   12.44
  -1   8  -4  228.29   16.88
  -1   8  -4  226.21   12.09
   1  -8   5   65.72    5.54
   1  -8   5   67.68    4.94
  -1   8  -5   73.96    6.59
  -1   8  -5   67.36   10.57
  -1   8  -5   65.39    7.47
  -1   8  -5   67.40    5.89
  -1   8  -5   79.07    8.69
   1  -8   5   70.85    5.51
  -1   8  -5   70.69    6.61
  -1   8  -5   71.95    8.87
  -1   8  -5   69.08    7.88
  -1   8  -5   69.16    6.10
   1  -8   6   23.63    3.07
  -1   8  -6   26.92    3.55
  -1   8  -6   32.14    4.99
  -1   8  -6   26.84    3.45
  -1   8  -6   33.61    4.34
  -1   8  -6   24.93    4.40
   1  -8   6   25.22    3.01
  -1   8  -6   29.98    5.02
   1  -8   6   27.11    2.93
   1  -8   7    1.02    0.29
  -1   8  -7    0.38    0.80
  -1   8  -7   -0.01    0.49
  -1   8  -7    1.72    1.33
  -1   8  -7    0.46    0.61
  -1   8  -7    1.82    1.15
   1  -8   7    0.52    0.61
   1  -8   7    1.07    0.61
  -1   8  -7    0.29    1.29
  -1   8  -7    0.93    0.57
  -1   8  -8   17.47    3.18
   1  -8   8   22.53    2.23
  -1   8  -8   26.32    3.35
   1  -8   8   24.89    2.56
  -1   8  -8   23.79    3.79
  -1   8  -8   27.03    3.10
  -1   8  -8   26.47    2.71
  -1   8  -8   20.87    3.49
  -1   8  -8   24.76    3.99
   1  -8   8   19.81    2.22
  -1   8  -9    7.62    1.23
   1  -8   9    5.67    1.05
  -1   8  -9    5.13    1.42
  -1   8  -9    7.20    1.99
  -1   8  -9    7.32    1.52
  -1   8  -9    6.85    1.38
  -1   8  -9    4.96    1.49
  -1   8  -9    3.72    1.22
   1  -7 -10   12.12    1.75
  -1   7  10   14.50    2.05
   1  -7 -10   15.51    2.40
  -1   7  10   14.03    2.55
  -1   7  10   12.63    2.01
   1  -7 -10   13.37    2.17
  -1   7  10   18.29    3.07
   1  -7 -10   12.04    1.84
  -1   7  10   12.13    1.83
  -1   7   9   31.49    3.99
   1  -7  -9   34.17    4.13
  -1   7   9   27.31    3.27
   1  -7  -9   32.03    4.07
   1  -7  -9   28.69    3.23
   1  -7  -9   29.00    2.65
  -1   7   9   31.40    3.49
  -1   7   9   27.80    4.37
  -1   7   9   30.69    4.82
   1  -7  -9   26.25    3.12
  -1   7   9   33.09    3.41
   1  -7  -8   31.04    4.48
   1  -7  -8   32.19    3.17
   1  -7  -8   28.75    3.50
  -1   7   8   31.32    3.83
  -1   7   8   32.09    3.85
  -1   7   8   34.51    5.25
  -1   7   8   31.98    5.40
   1  -7  -8   39.90    4.89
   1  -7  -8   29.11    3.66
  -1   7   8   32.07    4.52
  -1   7   8   28.85    3.70
   1  -7  -7  187.95    9.86
  -1   7   7  215.76   15.68
   1  -7  -7  185.38   15.40
   1  -7  -7  238.55   13.82
  -1   7   7  205.74   14.57
  -1   7   7  194.65   11.38
  -1   7   7  201.60   11.77
   1  -7  -7  182.43   10.78
   1  -7  -7  188.43   11.12
  -1   7   7  206.74   13.19
   1  -7  -7  222.88   13.54
  -1   7   7  200.02   11.45
  -1   7   6  148.71   12.49
   1  -7  -6  147.49    9.64
  -1   7   6  147.50    9.47
   1  -7  -6  153.69    8.72
  -1   7   6  152.44    9.82
   1  -7  -6  142.42    9.28
  -1   7   6  157.79    9.96
   1  -7  -6  136.13   11.19
  -1   7   6  162.87   13.71
   1  -7  -6  139.14   13.19
   1  -7  -6  134.90   11.91
   1  -7  -6  169.90   11.79
  -1   7   6  158.49   10.41
   1  -7  -6  168.88   11.64
  -1   7   6  166.47   11.86
   1  -7  -5  256.29   13.66
  -1   7   5  277.42   18.02
  -1   7   5  270.48   14.03
   1  -7  -5  256.14   18.38
   1  -7  -5  262.02   16.39
  -1   7   5  272.69   13.97
   1  -7  -5  265.47   12.72
  -1   7   5  305.71   19.18
  -1   7   5  254.12   14.37
   1  -7  -5  285.55   16.28
   1  -7  -5  235.51   16.50
  -1   7   5  271.20   16.17
   1  -7  -5  245.48   13.30
  -1   7   5  272.89   18.72
   1  -7  -5  282.90   16.19
  -1   7   5  273.54   13.95
   1  -7  -5  255.92   11.54
   1  -7  -4   16.61    2.75
  -1   7   4   21.53    3.29
   1  -7  -4   22.98    4.09
   1  -7  -4   20.59    4.28
   1  -7  -4   24.49    4.23
   1  -7  -4   20.32    2.91
   1  -7  -4   21.06    2.58
  -1   7   4   20.69    4.67
  -1   7   4   25.39    3.88
   1  -7  -4   17.06    3.64
  -1   7   4   22.39    3.31
  -1   7   4   18.38    3.04
  -1   7   4   21.80    4.09
  -1   7   4   20.34    3.35
   1  -7  -4   20.32    4.69
  -1   7   4   24.28    5.04
   1  -7  -4   20.00    3.12
  -1   7   4   24.12    4.84
   1  -7  -3  191.22   12.93
   1  -7  -3  184.57   10.64
  -1   7   3  192.08   11.87
  -1   7   3  167.33   10.71
   1  -7  -3  191.87   10.25
   1  -7  -3  182.64   10.72
  -1   7   3  211.68   15.96
   1  -7  -3  205.41   17.80
   1  -7  -3  175.34   13.39
  -1   7   3  208.94   19.56
  -1   7   3  200.97   16.32
   1  -7  -3  186.60   19.47
  -1   7   3  211.91   21.47
  -1   7   3  212.26   13.49
   1  -7  -3  214.27   13.47
   1  -7  -3  159.72   15.20
   1  -7  -3  258.00   23.07
  -1   7   3  204.86   14.66
   1  -7  -3  197.87    9.60
  -1   7   3  193.03   13.22
   1  -7  -3  189.13    8.81
  -1   7   3  211.64   15.58
  -1   7   3  219.84   21.24
  -1   7   3  218.05   21.14
  -1   7   3  194.45   11.70
   1  -7  -3  188.18   13.32
   1  -7  -2  126.52   12.92
   1  -7  -2  124.31   10.64
  -1   7   2  124.69    8.87
   1  -7  -2  127.81    8.31
  -1   7   2  134.98    9.44
   1  -7  -2  143.30   16.51
  -1   7   2  157.64   12.77
   1  -7  -2  126.73    8.04
  -1   7   2  147.41   11.97
  -1   7   2  141.76   15.48
  -1   7   2  156.00   17.21
   1  -7  -2  130.53   10.98
  -1   7   2  149.15   17.33
  -1   7   2  134.95   12.96
   1  -7  -2  152.76   14.96
  -1   7   2  131.40   10.79
  -1   7   2  144.66   11.41
  -1   7   2  135.44   10.35
   1  -7  -2  172.46   18.77
  -1   7   2  152.15   13.37
   1  -7  -2  128.46    7.46
   1  -7  -2  141.14   10.53
  -1   7   2  140.70   16.26
  -1   7   2  147.61   16.82
   1  -7  -2  131.89   10.24
  -1   7   2  135.24    9.40
   1  -7  -2  124.74    6.84
  -1   7   1   76.21    6.64
   1  -7  -1   76.13   10.35
   1  -7  -1   73.70    5.33
  -1   7   1   85.45   12.70
  -1   7   1   74.01    7.17
  -1   7   1   81.70   12.10
  -1   7   1   74.66    6.73
   1  -7  -1   67.50    7.03
  -1   7   1   90.63   12.46
   1  -7  -1   72.76    4.85
   1  -7  -1   70.16    5.61
  -1   7   1   67.21    8.82
  -1   7   1   70.02    7.85
  -1   7   1   85.70    9.12
  -1   7   1   82.79   11.86
   1  -7  -1   71.85   12.27
  -1   7   1   84.89    8.32
   1  -7  -1   61.55   10.73
   1  -7  -1   71.59    7.20
  -1   7   1   77.69    8.28
   1  -7  -1   72.12    7.67
  -1   7   1   72.21    6.51
  -1   7   1   81.36    9.60
   1  -7  -1   79.03    9.95
  -1   7   1   74.21   10.95
   1  -7  -1   63.57    7.25
  -1   7   0   -0.64    1.30
   1  -7   0    0.10    1.92
  -1   7   0   -0.44    1.40
   1  -7   0    0.92    0.61
  -1   7   0    0.21    0.78
   1  -7   0    1.58    1.93
  -1   7   0    0.48    0.81
   1  -7   0    1.08    0.81
  -1   7   0   -1.41    1.97
   1  -7   0    2.37    1.12
   1  -7   0   -0.05    1.02
  -1   7   0   -0.08    0.86
  -1   7   0    1.70    0.82
  -1   7   0    0.24    0.74
   1  -7   0    0.68    0.92
  -1   7   0   -0.91    2.08
  -1   7   0    1.46    0.92
  -1   7   0   -0.52    0.63
  -1   7   0    0.26    1.07
  -1   7   0    1.98    1.88
  -1   7   0   -0.30    1.82
  -1   7   0    2.94    1.70
   1  -7   0    1.72    1.48
   1  -7   0    1.22    1.28
  -1   7   0    0.57    0.41
   1  -7   0   -0.27    1.07
  -1   7  -1   45.23    6.94
   1  -7   1   38.73    5.68
   1  -7   1   37.49    8.58
  -1   7  -1   38.26    8.04
  -1   7  -1   47.50    8.94
   1  -7   1   42.43    3.77
   1  -7   1   44.44    5.64
  -1   7  -1   51.17    6.14
  -1   7  -1   38.97    4.70
  -1   7  -1   42.63    7.16
   1  -7   1   41.83    4.06
   1  -7   1   45.85    4.41
  -1   7  -1   53.43    6.91
   1  -7   1   53.21   11.27
  -1   7  -1   48.33    9.29
  -1   7  -1   42.06    6.20
  -1   7  -1   46.04    5.20
   1  -7   1   36.86    7.31
  -1   7  -1   45.08    6.00
   1  -7   1   54.72    8.27
  -1   7  -1   45.36    4.78
  -1   7  -1   46.16    8.62
  -1   7  -1   42.53    6.82
  -1   7  -1   36.43    4.18
  -1   7  -1   42.91    7.96
  -1   7  -2   54.34    7.74
  -1   7  -2   59.63   10.01
  -1   7  -2   46.28    7.77
  -1   7  -2   58.52    8.08
   1  -7   2   48.85    4.49
  -1   7  -2   45.84    6.73
   1  -7   2   50.52    4.69
  -1   7  -2   51.96    6.15
  -1   7  -2   53.99    9.40
   1  -7   2   50.01    6.51
  -1   7  -2   51.03    5.58
   1  -7   2   47.74    4.18
   1  -7   2   66.32   13.39
   1  -7   2   33.18    8.38
  -1   7  -2   50.60    5.40
   1  -7   2   45.13    5.90
  -1   7  -2   48.81    5.02
  -1   7  -2   52.70    6.90
   1  -7   2   51.66    3.61
  -1   7  -2   48.18    9.30
   1  -7   2   58.78    8.69
  -1   7  -2   62.21    7.23
  -1   7  -2   49.15    9.48
  -1   7  -2   51.82    9.04
   1  -7   3   59.69    4.17
   1  -7   3   68.50   13.89
  -1   7  -3   63.38    6.06
  -1   7  -3   60.70    5.82
  -1   7  -3   69.89    7.26
  -1   7  -3   64.14    7.43
   1  -7   3   60.42    5.17
  -1   7  -3   52.94    9.88
  -1   7  -3   63.43   10.44
  -1   7  -3   64.68   10.51
   1  -7   3   60.84    4.95
   1  -7   3   41.87    9.66
  -1   7  -3   57.54    9.16
  -1   7  -3   71.82    8.28
  -1   7  -3   52.72    7.40
  -1   7  -3   63.97    8.46
  -1   7  -3   56.43   10.16
  -1   7  -3   67.78    6.44
   1  -7   3   73.94    9.81
  -1   7  -3   55.86    9.37
   1  -7   3   51.83    6.42
  -1   7  -3   58.37    9.83
  -1   7  -4 1316.89   52.61
  -1   7  -4 1291.61   46.28
  -1   7  -4 1327.20   50.32
  -1   7  -4 1306.84   44.76
  -1   7  -4 1302.68   45.75
   1  -7   4 1076.25   47.55
   1  -7   4 1298.61   43.46
  -1   7  -4 1234.09   49.21
  -1   7  -4 1397.79   59.59
   1  -7   4 1227.35   43.83
   1  -7   4 1265.64   41.90
  -1   7  -4 1269.73   45.74
  -1   7  -4 1391.39   51.64
  -1   7  -4 1223.04   51.60
  -1   7  -5  308.48   23.88
  -1   7  -5  268.96   13.78
  -1   7  -5  255.47   14.40
  -1   7  -5  259.96   16.64
   1  -7   5  276.27   12.02
  -1   7  -5  259.52   16.88
   1  -7   5  273.01   12.91
  -1   7  -5  293.84   18.23
   1  -7   5  244.82   12.83
  -1   7  -5  253.55   17.97
  -1   7  -5  262.78   13.83
  -1   7  -5  270.70   14.44
  -1   7  -6   23.96    6.35
   1  -7   6   22.69    2.78
  -1   7  -6   19.08    3.11
  -1   7  -6   19.09    3.10
  -1   7  -6   21.93    4.47
  -1   7  -6   22.47    3.62
   1  -7   6   19.66    2.76
   1  -7   6   20.25    2.73
  -1   7  -6   20.78    4.20
  -1   7  -6   16.93    4.18
  -1   7  -6   22.45    2.99
   1  -7   6   19.48    2.90
  -1   7  -6   20.82    4.49
  -1   7  -7   42.12    5.90
  -1   7  -7   43.49    6.08
  -1   7  -7   45.29    4.35
  -1   7  -7   45.42    8.86
  -1   7  -7   37.97    5.90
   1  -7   7   42.90    4.01
  -1   7  -7   44.61    5.11
  -1   7  -7   36.95    5.70
   1  -7   7   47.02    4.16
  -1   7  -7   39.22    4.46
   1  -7   7   39.19    3.92
   1  -7   7   43.35    4.21
  -1   7  -8   18.13    3.80
   1  -7   8   15.88    2.38
  -1   7  -8   13.83    3.23
  -1   7  -8   16.64    2.71
  -1   7  -8   14.69    3.35
   1  -7   8   10.80    1.77
   1  -7   8   13.65    1.97
  -1   7  -8   17.39    2.99
   1  -7   8   15.04    2.26
  -1   7  -8   12.87    2.89
  -1   7  -8   18.92    2.69
  -1   7  -9   24.76    3.28
  -1   7  -9   25.85    4.19
  -1   7  -9   23.52    4.07
  -1   7  -9   26.06    3.23
  -1   7  -9   24.62    3.72
  -1   7  -9   29.89    3.17
   1  -7   9   24.29    2.68
  -1   7  -9   24.80    3.90
  -1   7 -10   39.66    4.29
  -1   7 -10   43.52    4.49
  -1   7 -10   47.99    3.62
  -1   7 -10   44.38    4.73
  -1   7 -10   47.91    3.90
  -1   7 -10   39.73    4.57
  -1   7 -10   47.28    3.93
   1  -7  10   46.05    3.32
   1  -6 -11   31.24    2.95
  -1   6  11   33.57    4.17
  -1   6  11   32.69    3.86
   1  -6 -11   38.47    3.67
   1  -6 -11   30.79    2.88
  -1   6  11   36.00    3.21
  -1   6  11   32.86    3.11
   1  -6 -11   38.62    3.74
  -1   6  10   10.71    1.99
   1  -6 -10   11.73    2.10
  -1   6  10    8.28    2.21
   1  -6 -10    9.56    1.80
  -1   6  10   13.32    2.22
   1  -6 -10   11.39    2.31
  -1   6  10    6.64    1.71
   1  -6 -10   11.71    2.40
  -1   6  10   11.88    2.99
   1  -6  -9  123.10    8.10
  -1   6   9  131.50    9.34
  -1   6   9  117.68   10.21
   1  -6  -9  127.64    6.84
  -1   6   9  115.71   10.71
  -1   6   9  136.87    8.76
  -1   6   9  127.61    8.56
  -1   6   9  141.96    8.37
   1  -6  -9  145.69   10.10
   1  -6  -9  128.05    8.30
   1  -6  -9  152.66   10.15
  -1   6   8   91.32    8.03
   1  -6  -8   86.63    6.83
   1  -6  -8   78.02    6.52
  -1   6   8   87.23    9.05
  -1   6   8   86.87    6.89
   1  -6  -8   95.03    8.46
  -1   6   8   81.01    6.83
  -1   6   8   84.77    6.99
   1  -6  -8   70.66    9.26
   1  -6  -8  101.25    8.47
   1  -6  -8   80.72    8.63
  -1   6   8   77.19    9.06
   1  -6  -8   86.27    5.69
  -1   6   7   87.68    9.60
  -1   6   7   96.03    7.58
   1  -6  -7   94.58    6.24
   1  -6  -7   94.75    8.53
  -1   6   7  100.06    7.69
   1  -6  -7   89.76    9.25
   1  -6  -7  109.58    9.16
   1  -6  -7   88.31   10.48
   1  -6  -7   99.45    8.90
   1  -6  -7   93.36    7.22
  -1   6   7   83.83    9.33
  -1   6   7   95.52    7.61
   1  -6  -7   91.76    7.18
  -1   6   7   93.45    8.48
  -1   6   7   90.37   10.11
  -1   6   6  217.00   11.61
  -1   6   6  198.67   14.86
  -1   6   6  200.07   13.35
   1  -6  -6  196.76   11.55
   1  -6  -6  217.29   10.65
   1  -6  -6  199.06   11.61
  -1   6   6  207.24   12.10
   1  -6  -6  203.97   16.22
   1  -6  -6  230.05   14.05
   1  -6  -6  256.29   14.66
  -1   6   6  199.95   15.72
  -1   6   6  214.16   15.42
  -1   6   6  222.45   12.35
   1  -6  -6  241.80   14.53
   1  -6  -6  216.94   14.79
  -1   6   6  214.31   12.25
  -1   6   5  175.58   14.37
   1  -6  -5  221.96   17.90
  -1   6   5  176.58   13.68
   1  -6  -5  217.41   13.47
   1  -6  -5  224.76   13.38
   1  -6  -5  177.09   10.52
   1  -6  -5  191.87    8.98
  -1   6   5  211.14   14.78
   1  -6  -5  182.72    9.60
  -1   6   5  185.41   10.96
  -1   6   5  178.29   11.01
   1  -6  -5  175.48   12.17
   1  -6  -5  179.93   10.59
  -1   6   5  179.84   10.56
   1  -6  -5  147.39   14.20
  -1   6   5  184.72   12.52
   1  -6  -5  179.43   14.64
   1  -6  -5  171.87   12.88
  -1   6   5  182.38   13.65
  -1   6   5  206.92   21.26
   1  -6  -5  198.75   17.96
   1  -6  -5  242.41   21.25
   1  -6  -5  251.05   22.24
  -1   6   5  195.07   20.10
  -1   6   5  189.16   11.11
  -1   6   5  199.68   20.46
  -1   6   5  208.49   19.14
  -1   6   5  192.81   16.01
   1  -6  -4  110.80    8.94
  -1   6   4   95.23    7.23
  -1   6   4  117.93   14.67
  -1   6   4  102.78    9.37
  -1   6   4  115.05   11.56
   1  -6  -4   97.52    7.07
   1  -6  -4  106.98    6.58
  -1   6   4  100.84    7.61
  -1   6   4  108.45   14.60
   1  -6  -4  102.69   12.25
   1  -6  -4   98.56    5.91
   1  -6  -4   90.83    6.84
   1  -6  -4  149.98   16.28
   1  -6  -4   95.02    9.82
  -1   6   4  103.67    8.66
   1  -6  -4  111.33    8.89
  -1   6   4  100.01    7.27
  -1   6   4   91.67    9.22
   1  -6  -4  111.46   11.97
   1  -6  -4  123.97   14.49
   1  -6  -4   87.37   10.27
   1  -6  -4   99.96    8.49
  -1   6   4  106.21   14.20
  -1   6   4   96.15   10.00
  -1   6   4  112.89   10.49
   1  -6  -4   96.06    8.92
  -1   6   4   97.29    7.25
  -1   6   4  120.84   13.68
   1  -6  -3  291.48   17.99
   1  -6  -3  298.12   17.04
  -1   6   3  314.00   14.93
  -1   6   3  295.76   17.65
   1  -6  -3  375.64   25.65
  -1   6   3  269.89   13.92
   1  -6  -3  340.12   21.64
   1  -6  -3  324.73   12.92
  -1   6   3  321.43   19.08
   1  -6  -3  297.46   14.10
  -1   6   3  313.58   15.14
   1  -6  -3  343.28   16.96
  -1   6   3  321.54   25.04
   1  -6  -3  298.24   16.38
   1  -6  -3  304.92   13.36
   1  -6  -3  283.65   11.84
  -1   6   3  303.27   19.45
   1  -6  -3  315.72   22.07
   1  -6  -3  305.88   14.24
  -1   6   3  311.81   18.72
   1  -6  -3  329.07   16.88
  -1   6   3  322.59   17.19
  -1   6   3  352.85   25.36
  -1   6   3  336.56   25.23
   1  -6  -3  414.64   27.40
  -1   6   3  292.00   15.91
  -1   6   3  325.92   16.77
   1  -6  -3  279.47   19.20
  -1   6   3  363.71   24.04
   1  -6  -2  718.44   34.21
  -1   6   2  693.18   31.63
  -1   6   2  675.36   30.34
  -1   6   2  716.12   37.96
   1  -6  -2  689.24   27.96
  -1   6   2  740.98   32.00
   1  -6  -2  716.07   37.61
  -1   6   2  698.41   35.56
  -1   6   2  639.82   29.00
  -1   6   2  676.91   28.70
   1  -6  -2  647.39   24.05
   1  -6  -2  662.25   29.70
   1  -6  -2  603.69   31.30
   1  -6  -2  607.03   27.30
  -1   6   2  630.27   25.75
  -1   6   2  644.78   36.15
  -1   6   2  688.69   38.07
   1  -6  -2  695.30   27.91
   1  -6  -2  631.08   33.72
  -1   6   2  608.44   27.49
   1  -6  -2  824.41   40.67
   1  -6  -2  600.21   27.79
   1  -6  -1  847.71   39.45
  -1   6   1  886.07   37.52
   1  -6  -1  791.87   33.60
   1  -6  -1  891.78   43.94
  -1   6   1  884.82   41.46
  -1   6   1  957.90   38.81
  -1   6   1  890.41   44.08
  -1   6   1  790.84   34.04
  -1   6   1  882.79   43.41
   1  -6  -1  816.90   34.17
   1  -6  -1  857.54   38.40
  -1   6   1  915.34   34.69
   1  -6  -1 1029.04   47.55
  -1   6   1  878.71   42.81
  -1   6   1  920.77   43.61
   1  -6   0  136.76   13.00
  -1   6   0  148.44   13.84
  -1   6   0  158.29   12.50
  -1   6   0  167.85   15.43
  -1   6   0  147.55   14.44
   1  -6   0  140.60   10.23
   1  -6   0  141.58   14.99
   1  -6   0  145.43   10.31
  -1   6   0  146.34   14.85
  -1   6   0  146.68   10.79
  -1   6   0  153.50   15.00
   1  -6   0  185.82   17.91
   1  -6   0  155.99   12.86
  -1   6   0  153.46   10.35
  -1   6   0  147.06   12.07
  -1   6   0  155.68   12.10
   1  -6   1   12.53    3.83
  -1   6  -1   15.57    3.92
  -1   6  -1   16.45    4.60
  -1   6  -1   19.34    3.31
  -1   6  -1   13.59    4.53
   1  -6   1   17.15    3.23
  -1   6  -1   17.30    4.39
  -1   6  -1   27.14    4.99
   1  -6   1   36.31    8.29
   1  -6   1   24.55    4.81
  -1   6  -1   18.66    3.68
   1  -6   1   20.93    5.77
  -1   6  -1   22.10    5.40
  -1   6  -1   22.01    5.34
   1  -6   2  102.49    8.59
  -1   6  -2  113.68   12.46
  -1   6  -2  119.95    8.66
  -1   6  -2  110.16   10.35
  -1   6  -2   91.26   10.44
  -1   6  -2   84.75   10.43
   1  -6   2   80.56   11.76
  -1   6  -2   97.92    9.14
  -1   6  -2   99.22   12.09
  -1   6  -2   99.40   11.68
  -1   6  -2   90.02   11.50
   1  -6   2  131.55   11.75
   1  -6   2  103.89   14.81
   1  -6   2   78.05   10.19
   1  -6   3   41.08    3.04
  -1   6  -3   40.91    5.59
  -1   6  -3   33.60    6.77
  -1   6  -3   35.32    6.94
  -1   6  -3   41.92    4.70
  -1   6  -3   39.43    5.30
  -1   6  -3   40.71    6.13
   1  -6   3   30.70    4.60
  -1   6  -3   36.64    7.37
  -1   6  -3   37.65    4.18
   1  -6   3   38.66    3.53
  -1   6  -3   37.51    7.47
  -1   6  -3   47.50    5.28
  -1   6  -3   35.46    6.93
   1  -6   3   36.86    3.55
   1  -6   3   31.81    8.54
  -1   6  -3   33.61    4.04
   1  -6   3   36.09    3.63
  -1   6  -3   31.76    6.24
   1  -6   3   29.91    7.61
  -1   6  -3   32.06    6.29
  -1   6  -3   32.98    5.27
  -1   6  -4  142.88   14.80
  -1   6  -4  149.89   15.43
  -1   6  -4  163.88    9.61
   1  -6   4  145.11   17.79
   1  -6   4  172.32    8.04
  -1   6  -4  172.26   16.24
  -1   6  -4  167.83   10.41
  -1   6  -4  184.45   12.71
  -1   6  -4  159.48   16.48
   1  -6   4  177.28    9.49
  -1   6  -4  171.04   12.19
  -1   6  -4  209.78   12.14
   1  -6   4  172.57    8.90
  -1   6  -4  162.69   16.11
   1  -6   4  146.17   11.35
  -1   6  -4  173.76   13.41
   1  -6   4  183.67   22.46
  -1   6  -4  184.99   13.72
  -1   6  -4  151.86   15.72
  -1   6  -4  141.75   15.86
  -1   6  -4  160.12    9.92
   1  -6   4  169.05    9.41
  -1   6  -4  174.29   10.34
  -1   6  -4  175.37   12.82
  -1   6  -5   52.96    8.93
  -1   6  -5   40.73    7.97
   1  -6   5   46.76    4.21
   1  -6   5   46.85    3.78
   1  -6   5   41.70    4.25
   1  -6   5   45.58    4.04
  -1   6  -5   51.93    5.75
   1  -6   5   41.88    4.47
  -1   6  -5   46.33    6.45
   1  -6   5   30.57    8.17
  -1   6  -5   35.67    7.26
  -1   6  -5   43.29    5.99
  -1   6  -5   41.24    5.77
  -1   6  -5   53.77    5.34
  -1   6  -5   42.01    6.00
  -1   6  -5   46.78    4.29
  -1   6  -5   39.37    6.18
  -1   6  -5   45.65    8.72
  -1   6  -5   43.88    4.96
  -1   6  -5   43.54    4.63
  -1   6  -5   41.19    8.00
   1  -6   5   45.39   12.07
  -1   6  -5   42.45    8.26
  -1   6  -5   39.10    8.15
  -1   6  -5   45.57    4.76
   1  -6   6  615.30   23.60
  -1   6  -6  649.61   30.21
  -1   6  -6  615.43   23.92
  -1   6  -6  627.65   29.31
  -1   6  -6  637.81   26.11
  -1   6  -6  613.39   25.01
   1  -6   6  594.85   23.93
  -1   6  -6  584.73   29.76
   1  -6   6  620.90   25.50
  -1   6  -6  555.78   35.37
   1  -6   6  656.02   23.13
  -1   6  -6  594.01   28.60
   1  -6   6  624.75   23.72
   1  -6   7  215.18   10.43
  -1   6  -7  207.62   11.88
  -1   6  -7  191.04   14.01
  -1   6  -7  212.45   12.50
  -1   6  -7  205.96   15.10
   1  -6   7  221.50    9.68
   1  -6   7  210.25   10.92
   1  -6   7  213.11   12.63
  -1   6  -7  198.74   14.51
  -1   6  -7  211.12   20.08
  -1   6  -7  210.62   15.19
   1  -6   7  185.97   12.78
   1  -6   7  200.19   10.80
  -1   6  -7  220.36   11.41
   1  -6   7  204.82   10.55
   1  -6   8   23.45    2.89
  -1   6  -8   24.97    3.55
  -1   6  -8   19.19    3.88
   1  -6   8   24.95    3.95
  -1   6  -8   20.95    4.09
  -1   6  -8   24.76    3.71
   1  -6   8   23.21    2.56
  -1   6  -8   27.92    7.06
  -1   6  -8   26.62    3.36
  -1   6  -8   24.03    4.58
   1  -6   8   22.41    3.08
  -1   6  -8   21.14    4.37
   1  -6   8   21.17    2.71
  -1   6  -9   34.25    5.04
   1  -6   9   41.92    3.47
  -1   6  -9   36.55    5.04
  -1   6  -9   37.00    5.55
  -1   6  -9   47.41    4.44
   1  -6   9   42.53    4.20
  -1   6  -9   42.70    4.68
   1  -6   9   40.75    3.79
  -1   6  -9   31.55    5.03
  -1   6  -9   41.61    4.49
   1  -6  10   59.85    4.40
   1  -6  10   66.66    4.33
  -1   6 -10   65.82    6.70
  -1   6 -10   67.75    5.39
  -1   6 -10   59.28    6.49
  -1   6 -10   62.83    5.16
  -1   6 -10   58.01    5.97
  -1   6 -10   58.70    6.15
  -1   6 -10   76.86    5.39
  -1   6 -11   40.67    4.47
  -1   6 -11   46.52    3.62
  -1   6 -11   36.26    4.31
  -1   6 -11   42.69    4.24
   1  -6  11   42.39    2.92
  -1   6 -11   44.84    3.42
  -1   6 -11   42.10    3.62
   1  -6  11   40.18    2.97
  -1   6 -11   40.76    4.28
  -1   5  12    3.03    1.11
   1  -5 -12    4.09    1.07
   1  -5 -12    4.09    0.93
  -1   5  12    4.14    1.29
   1  -5 -12    4.97    0.98
   1  -5 -12    3.46    0.94
  -1   5  12    3.31    0.81
  -1   5  12    5.54    1.12
  -1   5  11   60.86    4.86
  -1   5  11   55.67    3.96
  -1   5  11   50.17    5.59
   1  -5 -11   60.25    4.64
   1  -5 -11   64.08    5.60
  -1   5  11   53.23    6.12
   1  -5 -11   67.11    5.65
  -1   5  11   61.82    4.80
  -1   5  11   60.43    4.56
   1  -5 -11   57.13    4.54
  -1   5  10   30.09    3.78
   1  -5 -10   33.74    4.42
   1  -5 -10   27.42    3.41
   1  -5 -10   32.34    4.37
  -1   5  10   31.24    3.75
   1  -5 -10   27.67    3.42
  -1   5  10   22.07    4.07
  -1   5  10   24.65    3.30
  -1   5  10   27.79    3.05
  -1   5  10   22.99    4.48
  -1   5  10   26.11    3.49
   1  -5  -9   28.43    2.89
  -1   5   9   35.66    4.24
  -1   5   9   27.02    5.25
   1  -5  -9   34.33    5.32
   1  -5  -9   28.08    3.65
   1  -5  -9   26.90    3.68
  -1   5   9   33.23    4.49
   1  -5  -9   26.14    5.26
   1  -5  -9   31.04    4.57
  -1   5   9   30.28    3.97
   1  -5  -9   32.44    4.61
  -1   5   9   27.87    3.24
  -1   5   9   26.46    3.67
  -1   5   8  140.45   12.28
   1  -5  -8  135.23    9.02
  -1   5   8  155.78    9.92
   1  -5  -8  169.35   11.63
   1  -5  -8  136.72    7.63
  -1   5   8  144.75    9.14
   1  -5  -8  121.48   12.45
   1  -5  -8  137.36   11.27
   1  -5  -8  141.46    9.20
   1  -5  -8  145.40   10.36
  -1   5   8  142.51   10.41
  -1   5   8  128.01   12.40
  -1   5   8  160.10   10.17
  -1   5   8  143.16    8.46
  -1   5   8  150.35    9.67
   1  -5  -8  168.59   11.83
   1  -5  -7   65.10    7.32
   1  -5  -7   63.11    6.50
  -1   5   7   52.87    7.72
  -1   5   7   74.33    8.44
   1  -5  -7   65.14    5.76
   1  -5  -7   66.37    4.88
  -1   5   7   64.03    5.76
  -1   5   7   68.31    6.83
  -1   5   7   64.18    6.03
   1  -5  -7   77.01    7.69
   1  -5  -7   76.74    7.47
  -1   5   7   76.83    6.59
  -1   5   7   67.94    6.12
   1  -5  -7   61.15    8.31
   1  -5  -7   65.66    5.84
   1  -5  -6   49.81    9.40
  -1   5   6   39.97    4.49
  -1   5   6   51.23    9.02
   1  -5  -6   35.01    4.04
  -1   5   6   42.04    6.95
  -1   5   6   46.68    4.90
  -1   5   6   36.22    6.07
   1  -5  -6   35.89    6.13
  -1   5   6   38.53    4.31
   1  -5  -6   55.96   10.09
   1  -5  -6   52.78    8.79
   1  -5  -6   47.17    5.67
   1  -5  -6   40.18    4.93
   1  -5  -6   47.35    5.87
   1  -5  -6   43.02    3.75
  -1   5   6   41.74    9.21
  -1   5   6   38.10    4.87
  -1   5   6   35.72    5.64
   1  -5  -6   41.83    4.40
  -1   5   6   38.95    8.66
   1  -5  -6   52.44    8.27
   1  -5  -6   34.16    6.54
   1  -5  -6   39.08    5.31
  -1   5   6   36.36    8.49
   1  -5  -5   50.51    5.89
   1  -5  -5   37.45    6.20
  -1   5   5   44.44    9.08
   1  -5  -5   47.37    5.27
  -1   5   5   54.63    9.96
   1  -5  -5   50.93    4.64
  -1   5   5   45.67    6.51
   1  -5  -5   52.46    4.13
  -1   5   5   52.09    9.32
  -1   5   5   45.97    4.64
   1  -5  -5   52.11    3.75
  -1   5   5   49.00    5.49
   1  -5  -5   44.80    6.44
   1  -5  -5   57.59    6.05
  -1   5   5   47.65    4.67
  -1   5   5   46.55    6.06
   1  -5  -5   56.17    6.17
   1  -5  -5   64.75   10.07
   1  -5  -5   50.57    4.70
  -1   5   5   43.79    6.66
   1  -5  -5   68.86   10.66
   1  -5  -5   53.64    8.02
  -1   5   5   57.18    6.56
   1  -5  -5   52.01    8.19
  -1   5   5   46.16    8.14
  -1   5   5   48.32    4.83
   1  -5  -4   22.76    4.72
  -1   5   4   20.58    3.96
   1  -5  -4   19.94    5.38
  -1   5   4   23.46    5.86
  -1   5   4   20.95    5.02
   1  -5  -4   10.09    3.18
   1  -5  -4   21.34    3.39
   1  -5  -4   17.87    3.32
  -1   5   4   17.49    3.98
  -1   5   4   22.30    5.90
   1  -5  -4   20.92    4.11
  -1   5   4   17.85    3.39
  -1   5   4   19.17    5.46
   1  -5  -4   22.70    5.19
   1  -5  -4   20.46    5.44
   1  -5  -3  202.39   14.53
  -1   5   3  192.33   16.53
  -1   5   3  158.68   12.14
   1  -5  -3  163.34   10.70
  -1   5   3  164.84   11.02
  -1   5   3  187.55   12.61
  -1   5   3  162.76   10.89
  -1   5   3  193.67   15.41
   1  -5  -3  171.04   12.04
   1  -5  -3  209.56   16.83
   1  -5  -3  178.84   14.50
   1  -5  -3  236.15   18.13
   1  -5  -3  138.21   11.81
  -1   5   3  165.00    9.95
  -1   5   3  170.80   16.01
  -1   5   3  194.27   17.02
   1  -5  -3  178.84   10.43
  -1   5   2  310.24   15.49
  -1   5   2  362.73   18.52
  -1   5   2  315.05   15.73
  -1   5   2  313.88   21.70
   1  -5  -2  305.51   16.54
   1  -5  -2  390.45   23.42
   1  -5  -2  297.24   15.34
  -1   5   2  283.04   14.80
   1  -5  -2  329.14   19.08
  -1   5   2  355.71   20.98
   1  -5  -2  307.95   19.52
   1  -5  -2  359.51   22.20
  -1   5   2  331.13   17.77
   1  -5  -2  313.40   15.05
  -1   5   2  329.07   21.52
   1  -5  -2  305.54   17.86
  -1   5   2  329.68   21.83
   1  -5  -1  440.41   22.68
  -1   5   1  461.93   25.50
  -1   5   1  476.28   21.80
  -1   5   1  449.06   21.10
   1  -5  -1  412.29   18.41
  -1   5   1  437.34   19.03
  -1   5   1  426.57   23.40
   1  -5  -1  428.27   19.79
  -1   5   1  371.44   18.43
   1  -5  -1  401.09   22.88
  -1   5   1  446.33   25.64
  -1   5   1  425.69   24.52
   1  -5  -1  428.43   21.57
   1  -5  -1  398.83   18.61
   1  -5  -1  483.84   26.18
  -1   5   1  407.80   17.94
   1  -5   0  957.26   39.50
   1  -5   0  892.70   34.11
   1  -5   0  982.99   43.05
  -1   5   0 1056.79   38.60
  -1   5   0  930.92   34.15
   1  -5   0 1159.75   46.48
  -1   5   0  835.52   34.41
  -1   5   0  949.22   41.57
   1  -5   0  966.95   38.17
  -1   5   0  924.31   36.46
  -1   5   0  978.92   42.28
  -1   5   0  840.74   36.33
  -1   5   0  970.24   41.47
   1  -5   0  885.59   33.92
  -1   5   0  996.80   41.91
  -1   5   0  952.98   39.94
  -1   5  -1  175.15   12.88
   1  -5   1  184.70   15.85
  -1   5  -1  203.11   13.15
  -1   5  -1  190.34   11.72
  -1   5  -1  192.80   15.25
  -1   5  -1  178.22   14.25
   1  -5   1  214.47   17.63
   1  -5   1  205.80    8.35
  -1   5  -1  192.05   15.13
   1  -5   1  176.87   10.70
  -1   5  -1  210.96   11.01
  -1   5  -1  205.30   15.13
  -1   5  -1  183.70   13.94
   1  -5   1  177.33   13.71
   1  -5   2   36.02    6.04
  -1   5  -2   57.72    6.47
  -1   5  -2   40.63    5.26
   1  -5   2   55.82    3.59
  -1   5  -2   51.70    7.32
  -1   5  -2   41.32    6.91
  -1   5  -2   51.45    7.33
   1  -5   2   40.95    7.33
   1  -5   2   58.67    3.86
  -1   5  -2   46.06    7.16
  -1   5  -2   50.80    4.86
   1  -5   2   53.13    9.34
   1  -5   2   46.37    5.00
  -1   5  -2   49.02    6.75
  -1   5  -2   43.05    6.48
  -1   5  -3   41.97    6.69
   1  -5   3   41.05    8.81
  -1   5  -3   34.51    6.19
   1  -5   3   42.97    4.28
  -1   5  -3   38.89    5.37
  -1   5  -3   35.25    6.26
   1  -5   3   43.26    3.45
  -1   5  -3   31.56    6.18
   1  -5   3   42.48    4.85
  -1   5  -3   36.81    4.05
  -1   5  -3   33.58    5.86
  -1   5  -3   33.72    4.84
   1  -5   3   33.79    7.08
  -1   5  -3   34.92    6.44
  -1   5  -3   50.55    4.82
   1  -5   3   36.50    3.28
  -1   5  -3   38.00    4.09
  -1   5  -3   33.53    5.92
  -1   5  -4  209.83   16.95
  -1   5  -4  269.85   13.01
  -1   5  -4  228.84   17.77
  -1   5  -4  232.97   14.61
   1  -5   4  213.48   10.61
   1  -5   4  248.71   11.02
  -1   5  -4  242.22   17.81
  -1   5  -4  200.76   17.42
  -1   5  -4  212.36   14.10
   1  -5   4  176.33   18.35
  -1   5  -4  220.37   17.97
   1  -5   4  258.21   24.74
  -1   5  -4  213.82   17.34
  -1   5  -4  222.39   12.25
  -1   5  -4  198.77   16.29
   1  -5   5  650.44   22.25
  -1   5  -5  546.82   32.47
  -1   5  -5  755.90   26.83
   1  -5   5  464.96   35.07
  -1   5  -5  630.54   28.37
   1  -5   5  645.87   23.10
  -1   5  -5  558.06   32.29
  -1   5  -5  606.99   28.82
   1  -5   5  633.23   44.77
  -1   5  -5  640.28   28.26
  -1   5  -5  582.81   27.30
   1  -5   5  672.65   23.52
  -1   5  -5  624.24   34.32
  -1   5  -5  651.53   34.75
   1  -5   5  622.15   24.16
  -1   5  -5  660.74   34.77
   1  -5   5  635.46   24.61
  -1   5  -5  602.04   24.81
  -1   5  -5  608.97   24.29
  -1   5  -5  673.80   29.15
  -1   5  -5  597.66   34.54
  -1   5  -5  541.99   33.49
  -1   5  -5  616.85   26.27
  -1   5  -6  779.18   42.94
   1  -5   6  880.53   32.30
  -1   5  -6  798.74   42.81
  -1   5  -6  990.29   46.54
  -1   5  -6  826.25   45.08
   1  -5   6  954.16   30.33
  -1   5  -6  898.11   34.23
  -1   5  -6  867.56   37.00
  -1   5  -6  871.73   38.12
   1  -5   6  818.16   33.59
   1  -5   6  669.91   46.32
   1  -5   6  906.33   33.86
   1  -5   6  948.86   32.91
  -1   5  -6  845.49   44.50
  -1   5  -6  913.35   36.28
   1  -5   6  951.76   32.10
  -1   5  -6  825.20   44.13
  -1   5  -6  869.48   45.48
   1  -5   6  941.38   31.24
   1  -5   6  926.42   59.63
  -1   5  -6 1178.46   36.57
  -1   5  -6  880.39   32.38
   1  -5   6  916.34   32.20
  -1   5  -6  894.35   37.65
  -1   5  -6  883.78   33.38
  -1   5  -6  950.30   38.75
   1  -5   7  876.29   29.93
  -1   5  -7  854.38   37.26
  -1   5  -7  813.98   31.93
  -1   5  -7  858.29   31.02
   1  -5   7  921.02   32.28
   1  -5   7  807.87   30.39
   1  -5   7  828.33   30.85
  -1   5  -7  804.20   35.57
  -1   5  -7  866.94   35.56
  -1   5  -7  827.82   36.51
  -1   5  -7  868.26   31.24
  -1   5  -7  823.93   36.27
   1  -5   7  882.92   33.11
  -1   5  -7  833.64   32.69
   1  -5   7  743.95   32.90
  -1   5  -7  850.93   44.96
   1  -5   7  868.57   28.97
  -1   5  -8   82.69    9.19
   1  -5   8   92.62    5.71
  -1   5  -8   91.48    6.62
   1  -5   8   87.92    7.19
  -1   5  -8   84.76    7.09
   1  -5   8   90.98    7.88
   1  -5   8   90.83    6.77
  -1   5  -8   87.01    8.78
  -1   5  -8   88.63    9.22
  -1   5  -8   84.45    8.48
  -1   5  -8   91.47    7.55
  -1   5  -8   99.42   13.25
   1  -5   8   77.13    7.93
   1  -5   8   85.97    6.03
  -1   5  -8   87.88    8.87
  -1   5  -8   95.24    6.93
  -1   5  -9   38.03    5.89
   1  -5   9   38.54    3.53
   1  -5   9   35.19    4.08
  -1   5  -9   32.83    4.25
   1  -5   9   43.01    5.34
  -1   5  -9   31.51    4.96
  -1   5  -9   41.11    5.94
  -1   5  -9   33.78    7.48
  -1   5  -9   42.08    6.18
  -1   5  -9   41.20    5.78
   1  -5   9   38.52    3.79
  -1   5  -9   39.70    4.33
  -1   5  -9   34.63    3.84
  -1   5  -9   37.51    4.42
   1  -5  10    4.43    1.09
  -1   5 -10    3.01    1.37
  -1   5 -10    7.13    1.76
   1  -5  10    3.23    1.17
  -1   5 -10    3.34    1.33
   1  -5  10    5.18    1.27
  -1   5 -10    3.49    1.66
  -1   5 -10    3.48    1.67
  -1   5 -10    4.42    1.43
  -1   5 -10    5.92    1.46
  -1   5 -10    6.44    1.68
   1  -5  11   15.92    1.99
   1  -5  11   18.65    2.14
  -1   5 -11   17.76    3.11
  -1   5 -11   17.30    2.30
  -1   5 -11   19.29    2.31
  -1   5 -11   17.73    2.55
  -1   5 -11   14.78    2.94
  -1   5 -11   16.35    3.14
  -1   5 -11   17.25    3.01
  -1   5 -11   16.93    2.41
  -1   5 -12   12.53    2.19
   1  -5  12   11.03    1.39
  -1   5 -12    9.58    1.53
  -1   5 -12   12.53    1.67
  -1   5 -12   10.06    1.83
  -1   5 -12    8.90    1.74
   1  -4 -12   60.74    4.88
   1  -4 -12   47.70    3.72
  -1   4  12   50.45    3.87
  -1   4  12   54.46    4.20
   1  -4 -12   50.85    3.92
  -1   4  12   43.51    5.07
   1  -4 -12   50.31    4.60
   1  -4 -12   48.47    3.62
  -1   4  12   48.50    3.57
  -1   4  12   53.30    4.10
  -1   4  12   48.06    4.97
   1  -4 -11   91.87    6.16
  -1   4  11   72.88    7.96
   1  -4 -11   91.40    6.21
   1  -4 -11  101.78    7.92
  -1   4  11   96.13    6.56
  -1   4  11   92.80    6.79
   1  -4 -11  104.09    7.75
   1  -4 -11   95.71    6.44
   1  -4 -11   90.52    6.04
  -1   4  11   83.39    5.82
  -1   4  11   95.99    6.74
   1  -4 -10  355.15   18.16
   1  -4 -10  333.09   15.28
  -1   4  10  359.77   16.84
  -1   4  10  413.19   17.02
   1  -4 -10  307.52   14.89
   1  -4 -10  382.48   18.37
   1  -4 -10  312.84   20.78
  -1   4  10  304.37   14.65
   1  -4 -10  327.49   15.38
  -1   4  10  342.50   15.85
   1  -4 -10  315.92   15.04
  -1   4  10  276.96   18.82
   1  -4  -9  133.19   10.71
  -1   4   9  112.39   11.53
   1  -4  -9  128.28    8.56
  -1   4   9  131.12    8.42
   1  -4  -9  138.70    8.81
  -1   4   9  144.57   12.30
  -1   4   9  134.05    9.48
  -1   4   9  140.09    9.16
   1  -4  -9  134.39   12.80
  -1   4   9  147.15   10.07
  -1   4   9  147.70    9.61
   1  -4  -9  146.94   11.07
   1  -4  -9  156.46   11.16
   1  -4  -9  139.72    8.94
   1  -4  -9  142.02    9.08
   1  -4  -8   80.40    8.05
  -1   4   8   76.01    6.55
  -1   4   8   72.69    8.31
   1  -4  -8   74.63    6.24
   1  -4  -8   71.04    6.60
   1  -4  -8   73.61    6.03
   1  -4  -8   76.41    9.25
  -1   4   8   67.99    8.69
   1  -4  -8   90.28    8.23
  -1   4   8   74.67    6.35
  -1   4   8   72.33    6.77
  -1   4   8   75.43    5.96
   1  -4  -8   78.65    6.19
   1  -4  -8   78.75    6.33
  -1   4   8   81.49    7.17
   1  -4  -8   70.02    7.48
   1  -4  -8   76.13    5.05
  -1   4   7   11.00    4.81
   1  -4  -7   12.15    2.20
  -1   4   7    7.06    2.00
   1  -4  -7   10.42    4.56
   1  -4  -7   12.11    4.84
   1  -4  -7    5.98    2.90
  -1   4   7    8.60    2.89
  -1   4   7   10.40    2.07
   1  -4  -7    9.55    2.49
  -1   4   7    8.67    4.64
   1  -4  -7    7.80    1.85
   1  -4  -7    7.61    2.02
   1  -4  -7    6.18    1.66
   1  -4  -7   11.81    2.70
  -1   4   7    8.97    3.18
   1  -4  -7    8.94    2.87
  -1   4   7   11.40    2.49
   1  -4  -7   15.18    4.84
  -1   4   7    7.99    2.62
  -1   4   7    9.26    1.96
   1  -4  -7    9.92    3.23
   1  -4  -7    8.61    1.56
   1  -4  -7   10.45    3.59
  -1   4   7    7.84    1.79
   1  -4  -7    9.96    1.98
  -1   4   7   14.18    4.76
  -1   4   7    8.32    1.93
  -1   4   6    2.71    1.25
   1  -4  -6    4.04    1.65
   1  -4  -6    1.89    0.92
   1  -4  -6    2.08    0.98
   1  -4  -6    3.23    0.87
   1  -4  -6    3.62    2.40
   1  -4  -6    2.38    1.45
   1  -4  -6    2.62    0.76
   1  -4  -6    1.36    0.95
   1  -4  -6    2.65    0.58
  -1   4   6    1.79    0.78
   1  -4  -6    5.60    2.80
  -1   4   6    2.40    0.77
   1  -4  -6    2.42    1.29
  -1   4   6    2.65    1.30
  -1   4   6    5.44    2.59
   1  -4  -6    3.68    1.60
   1  -4  -6    6.34    3.81
  -1   4   6    2.61    3.16
  -1   4   6    1.46    0.98
   1  -4  -6    3.02    2.15
  -1   4   6    2.75    1.03
   1  -4  -6    3.52    1.24
  -1   4   6    2.84    2.91
   1  -4  -5   83.23    9.26
   1  -4  -5   64.60    6.13
   1  -4  -5   71.74    8.56
  -1   4   5   68.28    7.81
  -1   4   5   74.29    6.73
   1  -4  -5   76.90    9.46
  -1   4   5   56.45    6.28
  -1   4   5   75.13   10.78
   1  -4  -5   64.88    7.17
  -1   4   5   67.11    9.89
   1  -4  -5   55.94    7.21
  -1   4   5   65.56   10.20
   1  -4  -5   75.18   10.46
   1  -4  -5   70.82    5.91
   1  -4  -5   80.67   10.62
   1  -4  -4  101.92    9.62
   1  -4  -4   77.54    7.42
  -1   4   4   87.85   11.09
   1  -4  -4   65.42    7.32
  -1   4   4   88.90   10.57
   1  -4  -4   90.36    9.64
  -1   4   4   88.74    7.33
   1  -4  -4  114.60   11.99
  -1   4   4   83.68    7.19
   1  -4  -4   80.68    6.07
  -1   4   4   76.53    7.78
   1  -4  -4   73.98    6.32
  -1   4   4   95.10   10.13
   1  -4  -4  101.48   11.03
  -1   4   4   81.10   10.56
   1  -4  -3   12.72    2.99
  -1   4   3   11.49    2.43
   1  -4  -3   13.36    2.82
   1  -4  -3    8.88    1.96
   1  -4  -3   13.48    3.49
   1  -4  -3   13.76    2.26
  -1   4   3   12.41    3.60
  -1   4   3   12.56    2.70
   1  -4  -3   12.30    2.57
  -1   4   3   10.36    3.29
  -1   4   3   14.07    4.02
  -1   4   3   11.86    2.63
  -1   4   3   10.27    1.99
   1  -4  -3   14.17    4.02
   1  -4  -3   15.61    3.98
  -1   4   3   10.40    2.97
   1  -4  -2 1480.01   48.19
  -1   4   2 1252.00   50.27
  -1   4   2 1174.11   42.92
   1  -4  -2 1548.10   52.06
   1  -4  -2 1126.29   42.14
  -1   4   2 1261.20   45.04
  -1   4   2 1327.92   48.60
  -1   4   2 1306.05   45.20
   1  -4  -2 1210.65   43.97
   1  -4  -2 1182.72   45.14
   1  -4  -2 1315.53   48.38
   1  -4  -2 1616.65   53.24
  -1   4   2 1078.62   41.53
  -1   4   2 1299.92   43.33
  -1   4   2 1310.71   50.23
  -1   4   2 1289.09   50.75
   1  -4  -2 1252.91   42.07
   1  -4  -1 1253.80   42.94
  -1   4   1 1266.16   48.97
  -1   4   1 1314.64   48.57
  -1   4   1 1383.02   45.41
  -1   4   1 1110.43   42.59
   1  -4  -1 1172.29   41.58
   1  -4  -1 1216.48   41.39
  -1   4   1 1297.11   42.32
  -1   4   1 1161.03   41.62
   1  -4  -1 1458.74   50.31
  -1   4   1 1246.54   43.90
  -1   4   1 1101.04   41.57
   1  -4  -1 1244.43   38.69
   1  -4  -1 1273.98   44.77
   1  -4  -1 1250.76   46.90
   1  -4  -1 1414.29   46.99
   1  -4  -1 1181.43   38.58
  -1   4   1 1316.59   47.19
   1  -4  -1 1612.79   52.19
  -1   4   1 1307.39   49.04
   1  -4   0 2551.33   85.74
   1  -4   0 2676.08   78.39
   1  -4   0 2357.57   80.93
  -1   4   0 2601.58   81.36
  -1   4   0 2670.82   84.57
   1  -4   0 2741.75   89.80
  -1   4   0 2220.44   83.09
  -1   4   0 2523.01   88.19
  -1   4   0 2544.30   87.56
   1  -4   0 2474.14   81.66
   1  -4   0 2356.58   80.75
   1  -4   0 2895.48   78.41
   1  -4   0 3118.20   92.12
  -1   4   0 2485.33   87.22
  -1   4   0 2194.31   81.34
  -1   4   0 2489.02   86.07
   1  -4   1 2810.15   75.01
  -1   4  -1 2353.33   81.00
  -1   4  -1 2327.44   83.85
  -1   4  -1 1991.66   80.58
   1  -4   1 2213.54   77.69
   1  -4   1 2138.78   77.68
  -1   4  -1 1993.60   78.55
   1  -4   1 2516.99   75.27
  -1   4  -1 2246.78   83.42
   1  -4   1 2605.28   75.70
  -1   4  -1 2167.72   83.65
  -1   4  -1 2337.61   77.95
   1  -4   1 2230.11   85.44
   1  -4   1 2652.54   89.18
  -1   4  -1 2239.10   84.15
   1  -4   1 2090.87   81.96
  -1   4  -1 2146.97   82.05
  -1   4  -2  183.86   13.26
   1  -4   2  163.85   14.12
  -1   4  -2  172.35   10.73
  -1   4  -2  195.69   11.94
   1  -4   2  184.37    9.18
  -1   4  -2  179.42   12.52
  -1   4  -2  185.73   13.66
  -1   4  -2  211.59   10.06
   1  -4   2  177.04    9.88
  -1   4  -2  164.18    8.93
   1  -4   2  228.20    8.25
  -1   4  -2  173.93   12.54
   1  -4   2  214.03   16.79
  -1   4  -2  172.59   13.29
   1  -4   2  165.80   12.51
   1  -4   2  208.52    8.47
  -1   4  -2  189.41   13.42
   1  -4   3   27.10    2.29
   1  -4   3   30.19    2.57
   1  -4   3   25.48    3.29
  -1   4  -3   23.38    3.66
  -1   4  -3   18.45    3.91
  -1   4  -3   17.63    3.07
  -1   4  -3   24.69    2.98
  -1   4  -3   20.14    4.15
   1  -4   3   23.94    2.39
   1  -4   3   16.45    4.44
  -1   4  -3   22.65    4.59
   1  -4   3   20.24    5.61
  -1   4  -3   23.09    4.44
  -1   4  -3   19.49    4.29
  -1   4  -3   24.84    4.58
  -1   4  -3   20.56    2.68
  -1   4  -3   19.60    2.68
   1  -4   3   25.89    2.99
  -1   4  -3   21.57    4.27
   1  -4   4   17.36    2.11
  -1   4  -4   14.50    2.95
  -1   4  -4   10.05    1.93
  -1   4  -4   13.85    2.44
  -1   4  -4   15.35    3.04
  -1   4  -4   14.98    3.70
  -1   4  -4   13.48    3.67
  -1   4  -4   11.53    3.27
   1  -4   4   21.12    6.19
   1  -4   4   15.34    2.05
  -1   4  -4   17.51    4.12
  -1   4  -4   16.58    4.30
   1  -4   4   14.57    4.49
  -1   4  -4   13.67    2.30
   1  -4   4   15.41    1.89
  -1   4  -4   16.08    4.13
   1  -4   4   17.05    2.60
  -1   4  -4   11.16    3.10
  -1   4  -5   15.60    3.25
  -1   4  -5   15.39    4.24
   1  -4   5   17.13    5.20
   1  -4   5   22.01    3.15
  -1   4  -5   15.08    3.01
   1  -4   5   15.48    5.76
  -1   4  -5   11.88    3.60
  -1   4  -5   14.02    3.97
  -1   4  -5   18.21    2.77
  -1   4  -5   14.41    3.92
   1  -4   5   14.19    2.20
   1  -4   5   18.05    2.45
   1  -4   5   17.58    2.29
  -1   4  -5   14.86    4.52
  -1   4  -5   14.44    4.12
  -1   4  -5   11.27    3.48
  -1   4  -5   14.38    2.76
  -1   4  -6  258.78   20.26
   1  -4   6  314.17   12.35
  -1   4  -6  281.85   16.73
  -1   4  -6  289.47   16.53
  -1   4  -6  296.28   16.92
  -1   4  -6  257.37   21.04
  -1   4  -6  261.67   19.96
   1  -4   6  308.56   13.65
  -1   4  -6  280.62   21.64
   1  -4   6  304.34   30.28
   1  -4   6  304.62   14.27
  -1   4  -6  279.57   21.04
   1  -4   6  301.99   14.59
  -1   4  -6  308.39   17.61
  -1   4  -6  300.12   16.09
  -1   4  -6  278.83   21.05
   1  -4   7   45.02    4.54
  -1   4  -7   39.86    5.67
  -1   4  -7   40.18    5.92
   1  -4   7   48.77    5.04
  -1   4  -7   43.14    8.07
  -1   4  -7   41.64    7.83
   1  -4   7   43.66    3.39
  -1   4  -7   35.80    5.45
  -1   4  -7   38.28    4.38
  -1   4  -7   42.20    5.76
  -1   4  -7   34.06    7.63
  -1   4  -7   41.64    4.72
  -1   4  -7   40.42    9.27
   1  -4   7   35.37    4.70
   1  -4   7   45.04    3.74
  -1   4  -7   42.28    8.22
   1  -4   7   57.72   14.93
  -1   4  -7   45.73    4.40
  -1   4  -7   36.59    7.47
  -1   4  -7   44.90    4.31
  -1   4  -7   46.62    5.88
   1  -4   7   46.99    9.43
   1  -4   7   41.86    4.12
  -1   4  -7   39.71    7.55
   1  -4   8  160.47   11.75
   1  -4   8  189.85    9.47
   1  -4   8  190.33    8.93
  -1   4  -8  187.47   18.33
  -1   4  -8  190.87   13.44
  -1   4  -8  177.56   10.78
   1  -4   8  180.60   11.53
  -1   4  -8  172.67   13.25
   1  -4   8  184.26   11.06
   1  -4   8  191.13   10.44
  -1   4  -8  178.88   13.84
  -1   4  -8  179.63   12.81
  -1   4  -8  178.49   10.15
   1  -4   8  168.59   10.00
  -1   4  -8  178.32   13.07
  -1   4  -8  176.64   10.20
  -1   4  -8  184.00   11.20
   1  -4   9  147.26    8.44
  -1   4  -9  149.89    9.93
   1  -4   9  154.25    8.18
  -1   4  -9  150.28   12.00
   1  -4   9  163.10   11.19
  -1   4  -9  166.75   12.79
  -1   4  -9  165.14   17.26
   1  -4   9  146.14    9.22
  -1   4  -9  146.06    9.73
  -1   4  -9  156.66    9.54
   1  -4   9  139.35   11.51
  -1   4  -9  161.47   12.75
   1  -4   9  171.38   10.90
  -1   4  -9  143.34   11.44
  -1   4  -9  159.92    9.42
  -1   4  -9  149.47   12.68
   1  -4   9  154.06    9.51
  -1   4 -10   37.29    5.46
  -1   4 -10   37.78    5.70
  -1   4 -10   38.43    4.27
  -1   4 -10   39.32    4.16
   1  -4  10   38.72    4.28
  -1   4 -10   38.46    5.36
  -1   4 -10   38.49    5.90
  -1   4 -10   37.52    5.77
  -1   4 -10   37.06    4.28
   1  -4  10   39.65    3.65
   1  -4  10   43.57    5.43
   1  -4  10   36.84    3.59
   1  -4  10   40.09    4.37
  -1   4 -10   29.42    6.89
   1  -4  10   41.24    5.06
  -1   4 -10   37.01    4.38
   1  -4  11   33.07    3.18
  -1   4 -11   36.20    4.66
  -1   4 -11   27.42    4.20
  -1   4 -11   30.38    4.67
  -1   4 -11   33.23    3.68
  -1   4 -11   28.66    3.51
   1  -4  11   33.97    3.60
  -1   4 -11   33.44    3.45
  -1   4 -11   30.92    4.90
   1  -4  11   28.46    2.86
  -1   4 -12    7.40    1.48
  -1   4 -12    9.67    1.56
  -1   4 -12    8.06    2.06
  -1   4 -12    7.05    1.82
  -1   4 -12    7.16    1.81
   1  -4  12    8.59    1.43
  -1   4 -12    7.29    1.51
  -1   4 -13   36.28    3.26
  -1   4 -13   40.96    3.63
  -1   4 -13   47.95    3.11
   1  -4  13   45.45    2.76
  -1   4 -13   42.52    3.42
  -1   4 -13   43.53    2.96
   1  -3 -13   27.50    2.39
  -1   3  13   27.04    3.07
  -1   3  13   27.21    2.31
   1  -3 -13   28.07    2.22
   1  -3 -13   31.50    2.97
   1  -3 -13   28.61    2.32
  -1   3  13   29.26    3.46
  -1   3  13   31.31    2.74
   1  -3 -13   32.18    2.95
  -1   3  12    7.20    1.71
   1  -3 -12    8.88    1.62
  -1   3  12    7.55    1.47
  -1   3  12    7.85    1.44
   1  -3 -12    7.04    1.47
   1  -3 -12    6.56    1.65
  -1   3  12    5.92    1.35
   1  -3 -12    7.16    1.47
   1  -3 -12    6.55    1.74
   1  -3 -12    8.52    1.57
  -1   3  12    6.52    1.92
   1  -3 -11   24.80    3.24
   1  -3 -11   24.38    3.04
  -1   3  11   25.26    3.31
   1  -3 -11   26.82    3.97
   1  -3 -11   24.49    3.06
  -1   3  11   27.75    3.76
   1  -3 -11   31.07    4.48
  -1   3  11   18.52    4.02
  -1   3  11   28.40    3.34
  -1   3  11   27.31    3.26
   1  -3 -11   22.86    3.04
   1  -3 -10   43.26    5.53
  -1   3  10   41.20    5.04
   1  -3 -10   37.53    4.16
  -1   3  10   37.82    4.23
   1  -3 -10   40.94    4.21
   1  -3 -10   43.25    6.81
  -1   3  10   27.63    5.31
   1  -3 -10   33.78    4.00
   1  -3 -10   41.53    4.55
  -1   3  10   38.46    4.21
   1  -3 -10   34.97    4.94
   1  -3 -10   37.38    5.24
  -1   3  10   43.56    4.58
   1  -3  -9   18.25    2.91
  -1   3   9   17.41    4.40
   1  -3  -9   19.18    3.63
   1  -3  -9   17.95    2.88
   1  -3  -9   21.10    4.17
  -1   3   9   17.23    3.22
   1  -3  -9   19.18    3.63
   1  -3  -9   18.66    2.91
  -1   3   9   19.20    4.14
  -1   3   9   19.12    2.98
   1  -3  -9   15.87    4.07
   1  -3  -9   16.87    2.77
  -1   3   9   22.55    3.36
  -1   3   9   19.03    2.84
   1  -3  -8    3.85    1.89
   1  -3  -8    9.56    3.44
   1  -3  -8    4.89    1.48
  -1   3   8    1.88    1.66
   1  -3  -8    5.63    1.48
   1  -3  -8    7.98    1.92
  -1   3   8    5.72    1.55
  -1   3   8    7.29    1.97
  -1   3   8    9.17    2.62
   1  -3  -8    7.65    1.39
   1  -3  -8   10.96    4.11
   1  -3  -8    9.07    2.52
   1  -3  -8    9.34    2.69
   1  -3  -8    7.19    2.26
  -1   3   8    6.06    2.52
  -1   3   8    7.49    3.36
  -1   3   8    4.80    1.40
   1  -3  -8    8.95    2.99
  -1   3   8    7.66    2.72
  -1   3   8    9.11    3.23
   1  -3  -8    8.61    2.25
   1  -3  -8    8.74    2.09
  -1   3   8    5.69    1.67
   1  -3  -8    6.21    1.58
   1  -3  -8    4.13    1.85
   1  -3  -8    7.73    3.44
  -1   3   8    8.01    3.72
  -1   3   7   58.23    6.57
   1  -3  -7   61.11    6.17
   1  -3  -7   60.60    7.12
   1  -3  -7   54.35    6.24
   1  -3  -7   60.19    4.93
   1  -3  -7   64.31    6.75
  -1   3   7   64.31   10.40
  -1   3   7   48.60    7.11
   1  -3  -7   71.42    6.89
  -1   3   7   51.76    5.45
  -1   3   7   60.54    5.09
  -1   3   7   60.23    5.87
  -1   3   7   43.88    6.58
   1  -3  -7   67.36    5.75
   1  -3  -7   59.47    5.13
   1  -3  -7   56.78    7.21
  -1   3   7   65.80    7.18
   1  -3  -7   63.99   10.68
   1  -3  -7   72.18   10.92
  -1   3   7   62.70   10.73
   1  -3  -7   63.83    9.27
  -1   3   7   60.45    4.90
  -1   3   7   65.01    5.42
   1  -3  -7   65.87    9.11
  -1   3   7   58.57   10.49
   1  -3  -7   71.00    9.25
   1  -3  -6   16.69    4.10
  -1   3   6   17.11    4.86
   1  -3  -6   16.15    2.55
   1  -3  -6   19.21    5.32
   1  -3  -6   18.31    4.58
   1  -3  -6   11.02    3.04
  -1   3   6   11.19    2.55
  -1   3   6   13.55    4.52
  -1   3   6   11.03    2.21
   1  -3  -6   11.19    2.54
   1  -3  -6   12.17    3.05
   1  -3  -6   12.84    2.65
  -1   3   6   11.69    3.07
  -1   3   6   14.06    4.55
   1  -3  -6   16.16    4.11
   1  -3  -6   11.14    3.94
   1  -3  -5   82.86    8.63
   1  -3  -5   69.03    6.90
  -1   3   5   72.12    6.45
   1  -3  -5   65.32    7.15
   1  -3  -5   77.70    6.19
   1  -3  -5   84.15    5.89
   1  -3  -5   85.57    9.37
  -1   3   5   79.90    7.86
   1  -3  -5   81.69    8.79
   1  -3  -5   86.26   10.34
   1  -3  -5   77.63    6.48
   1  -3  -5   83.99   10.56
  -1   3   5   81.04   10.12
  -1   3   5   78.85   10.37
  -1   3   5   84.49   10.64
   1  -3  -4   53.04    4.59
  -1   3   4   54.95    5.84
  -1   3   4   52.01    5.00
  -1   3   4   55.18    4.86
   1  -3  -4   45.83    5.39
   1  -3  -4   55.69    6.88
   1  -3  -4   48.34    4.63
   1  -3  -4   59.35    6.65
   1  -3  -4   57.76    6.69
   1  -3  -4   53.50    5.49
   1  -3  -4   62.94    7.94
   1  -3  -4   52.01    7.47
  -1   3   4   55.65    7.91
   1  -3  -4   58.70    4.51
  -1   3   4   51.99    7.29
  -1   3   4   45.70    7.20
   1  -3  -3   56.73    4.52
   1  -3  -3   52.75    4.49
  -1   3   3   60.13    5.10
   1  -3  -3   68.62    7.77
  -1   3   3   58.15    4.98
  -1   3   3   52.09    7.04
   1  -3  -3   56.47    3.31
  -1   3   3   57.93    3.95
   1  -3  -3   72.05    7.75
   1  -3  -3   72.17    6.73
   1  -3  -3   48.90    4.87
   1  -3  -3   61.82    4.40
   1  -3  -3   76.63    7.38
  -1   3   3   67.76    7.91
   1  -3  -3   64.96    6.48
  -1   3   3   59.51    7.12
   1  -3  -3   54.87    5.46
  -1   3   3   58.27    5.49
  -1   3   2   81.12    5.16
  -1   3   2  104.54    6.96
   1  -3  -2   89.46    5.58
   1  -3  -2  117.50    8.12
  -1   3   2   89.71    8.55
  -1   3   2   99.93    6.74
   1  -3  -2   95.33    5.57
  -1   3   2   97.73    8.57
  -1   3   2   90.61    6.09
  -1   3   2   78.93    8.08
   1  -3  -2  120.54    9.67
  -1   3   2   96.36    6.13
  -1   3   2   95.43    7.94
   1  -3  -2   85.10    6.15
   1  -3  -2   96.39    4.52
   1  -3  -2   95.93    6.92
   1  -3  -2  115.16    9.28
   1  -3  -2  101.33    8.08
   1  -3  -1  545.43   21.06
  -1   3   1  494.11   19.08
   1  -3  -1  414.18   17.11
   1  -3  -1  561.03   23.24
  -1   3   1  523.95   19.89
  -1   3   1  452.78   21.90
  -1   3   1  437.72   17.82
   1  -3  -1  480.41   17.39
  -1   3   1  462.64   21.66
   1  -3  -1  453.86   18.12
  -1   3   1  457.51   22.00
   1  -3  -1  616.36   24.33
   1  -3  -1  499.57   19.64
  -1   3   1  425.24   17.40
   1  -3  -1  494.95   21.22
  -1   3   1  472.48   20.74
  -1   3   1  489.87   18.01
   1  -3   0  322.22   14.73
  -1   3   0  296.65   15.22
   1  -3   0  262.27   10.16
   1  -3   0  271.06   10.42
  -1   3   0  315.36   12.16
   1  -3   0  290.57   11.74
  -1   3   0  267.54   13.07
   1  -3   0  302.66   10.52
  -1   3   0  294.33   15.58
   1  -3   0  297.15   11.74
  -1   3   0  346.11   14.38
   1  -3   0  340.70   16.75
   1  -3   0  289.72   14.78
  -1   3   0  273.70   12.27
   1  -3   0  384.07   17.87
  -1   3   0  305.64   15.53
  -1   3   0  302.15   14.61
   1  -3   1  326.59   13.39
   1  -3   1  358.06   11.98
   1  -3   1  341.99   18.31
  -1   3  -1  334.00   17.17
  -1   3  -1  308.38   15.64
  -1   3  -1  357.00   15.77
  -1   3  -1  357.55   13.72
   1  -3   1  349.11   12.05
   1  -3   1  341.31   12.24
   1  -3   1  406.68   12.57
   1  -3   1  417.00   20.37
   1  -3   1  381.18   12.49
   1  -3   1  336.67   13.44
  -1   3  -1  322.57   17.17
  -1   3  -1  313.26   14.37
  -1   3  -1  328.51   16.88
  -1   3  -1  325.35   16.81
  -1   3  -1  323.08   16.23
   1  -3   1  326.83   16.41
  -1   3  -2   29.05    3.61
   1  -3   2   34.37    2.18
  -1   3  -2   20.64    2.28
  -1   3  -2   24.09    3.72
   1  -3   2   36.87    2.42
  -1   3  -2   25.54    4.02
  -1   3  -2   26.22    4.01
  -1   3  -2   21.11    3.47
   1  -3   2   29.92    2.20
   1  -3   2   30.83    2.94
   1  -3   2   21.77    4.24
   1  -3   2   27.87    5.18
  -1   3  -2   20.88    3.68
  -1   3  -2   22.90    3.04
  -1   3  -2   19.80    3.63
   1  -3   2   27.13    2.46
  -1   3  -2   30.77    2.82
   1  -3   2   29.90    2.28
   1  -3   2   21.66    3.63
   1  -3   3   38.02    2.67
   1  -3   3   27.59    5.34
  -1   3  -3   27.33    2.72
  -1   3  -3   29.52    3.04
   1  -3   3   34.32    2.68
  -1   3  -3   35.83    3.16
  -1   3  -3   31.92    4.74
  -1   3  -3   29.10    3.67
   1  -3   3   33.69    3.06
   1  -3   3   32.75    3.20
  -1   3  -3   31.72    4.74
   1  -3   3   46.21    2.93
  -1   3  -3   31.19    4.69
  -1   3  -3   34.19    5.04
  -1   3  -3   32.56    4.72
   1  -3   3   26.70    5.73
  -1   3  -3   28.03    4.54
  -1   3  -3   36.18    4.17
  -1   3  -3   27.95    4.31
   1  -3   4   69.69    4.24
  -1   3  -4   59.33    7.05
  -1   3  -4   52.56    6.74
   1  -3   4   58.74    4.02
   1  -3   4   45.87    7.52
  -1   3  -4   53.73    5.45
  -1   3  -4   55.22    4.90
  -1   3  -4   55.09    4.34
  -1   3  -4   52.54    6.50
  -1   3  -4   62.71    7.45
   1  -3   4   64.51    4.85
  -1   3  -4   56.67    5.48
   1  -3   4   67.18    4.08
  -1   3  -4   65.37    7.45
   1  -3   4   72.48   11.03
  -1   3  -4   62.13    7.31
  -1   3  -4   59.83    7.39
  -1   3  -4   64.09    4.53
  -1   3  -5  179.13   14.65
  -1   3  -5  212.03   12.75
  -1   3  -5  229.72   12.64
   1  -3   5  264.52   12.13
  -1   3  -5  256.39   11.09
  -1   3  -5  196.64   15.27
   1  -3   5  253.74   10.62
  -1   3  -5  184.10   14.94
   1  -3   5  228.09   10.08
  -1   3  -5  233.47   11.05
  -1   3  -5  186.64   14.62
  -1   3  -5  258.50   17.15
   1  -3   5  206.71   10.12
   1  -3   5  176.07   17.10
  -1   3  -5  190.79   15.48
  -1   3  -5  186.71   15.57
   1  -3   5  220.01   21.82
  -1   3  -5  217.38   11.84
  -1   3  -6    5.84    2.64
  -1   3  -6    7.09    2.94
   1  -3   6    8.93    3.63
   1  -3   6    3.50    4.30
  -1   3  -6    9.53    3.65
   1  -3   6    8.47    1.76
   1  -3   6    8.29    1.60
  -1   3  -6    8.15    1.81
  -1   3  -6   11.28    2.01
  -1   3  -6   10.52    3.45
   1  -3   6    6.01    1.50
  -1   3  -6    7.22    2.77
  -1   3  -6    6.37    2.09
  -1   3  -6    5.66    3.19
  -1   3  -6    7.89    3.24
   1  -3   6   11.47    2.38
  -1   3  -6    9.35    2.36
  -1   3  -7   38.12    5.19
   1  -3   7   37.27    4.00
   1  -3   7   31.79    3.44
  -1   3  -7   41.65    7.62
   1  -3   7   43.23    8.98
   1  -3   7   37.67    4.31
  -1   3  -7   36.04    7.95
  -1   3  -7   37.77    5.62
  -1   3  -7   33.93    4.82
  -1   3  -7   35.54    7.03
  -1   3  -7   41.24    7.92
  -1   3  -7   36.05    3.77
  -1   3  -7   35.23    6.81
  -1   3  -7   27.99    4.56
  -1   3  -7   37.91    5.41
   1  -3   7   40.28    4.35
  -1   3  -7   33.79    4.04
   1  -3   7   40.33    3.08
  -1   3  -7   33.31    6.56
   1  -3   7   30.83    9.55
  -1   3  -7   35.26    5.08
  -1   3  -7   34.84    4.01
  -1   3  -7   29.53    6.40
   1  -3   8  284.86   12.25
  -1   3  -8  242.41   23.86
  -1   3  -8  255.87   22.07
  -1   3  -8  261.47   20.99
  -1   3  -8  271.48   17.39
   1  -3   8  282.66   11.75
   1  -3   8  243.83   14.82
   1  -3   8  278.95   13.41
  -1   3  -8  279.76   17.26
  -1   3  -8  270.96   21.69
  -1   3  -8  260.96   16.37
  -1   3  -8  279.39   14.15
  -1   3  -8  275.38   13.46
   1  -3   8  257.79   13.33
  -1   3  -8  281.34   14.32
   1  -3   8  298.24   14.51
   1  -3   8  285.35   14.87
  -1   3  -8  267.85   13.28
  -1   3  -8  273.37   22.59
   1  -3   8  254.86   30.04
   1  -3   8  263.87   24.40
  -1   3  -8  253.98   15.83
  -1   3  -8  292.93   17.18
  -1   3  -8  270.84   22.02
  -1   3  -8  275.30   21.93
   1  -3   9   93.13    6.18
   1  -3   9   89.45    5.85
   1  -3   9   90.73    7.11
   1  -3   9   77.45    8.18
  -1   3  -9   88.59    9.58
  -1   3  -9   90.26    6.96
  -1   3  -9   89.21    7.29
  -1   3  -9   89.58    9.36
  -1   3  -9   88.81    8.92
  -1   3  -9   96.74    9.56
  -1   3  -9   98.09    7.54
  -1   3  -9   82.54    8.43
   1  -3   9   98.73    8.26
  -1   3  -9  107.84   13.51
   1  -3   9   95.72    7.88
  -1   3  -9   96.51    7.06
   1  -3   9   96.32    7.18
   1  -3  10    4.91    1.25
  -1   3 -10    7.77    1.58
   1  -3  10    5.08    1.27
  -1   3 -10    4.93    1.57
  -1   3 -10    6.03    2.18
  -1   3 -10    6.02    1.59
  -1   3 -10    8.62    4.17
  -1   3 -10    6.04    1.92
   1  -3  10    4.20    1.44
  -1   3 -10    8.44    2.70
  -1   3 -10    2.97    1.52
  -1   3 -10    8.01    2.99
   1  -3  10    4.99    1.81
  -1   3 -10    5.63    2.16
   1  -3  10    5.15    1.84
  -1   3 -10    5.88    1.78
   1  -3  10    4.17    1.54
   1  -3  11    2.18    0.68
  -1   3 -11    1.58    0.87
   1  -3  11    4.14    1.37
  -1   3 -11    3.05    1.83
  -1   3 -11    1.65    0.79
  -1   3 -11    1.55    0.62
  -1   3 -11    2.41    1.05
  -1   3 -11    1.71    1.21
  -1   3 -11    2.47    0.88
  -1   3 -11    1.09    0.92
   1  -3  12   36.11    3.70
  -1   3 -12   35.46    3.63
  -1   3 -12   34.37    4.60
  -1   3 -12   36.79    3.61
  -1   3 -12   30.84    4.08
  -1   3 -12   37.94    3.55
   1  -3  12   38.48    3.34
  -1   3 -12   37.79    4.64
   1  -3  13   40.02    2.91
  -1   3 -13   43.57    3.28
  -1   3 -13   43.47    3.26
  -1   3 -13   36.02    3.88
   1  -3  13   39.10    2.61
  -1   3 -13   42.78    3.84
   1  -3  13   43.60    3.20
  -1   3 -13   41.94    3.90
  -1   3 -13   42.21    3.07
  -1   2  13    1.72    0.47
   1  -2 -13    4.01    1.09
  -1   2  13    4.35    1.11
   1  -2 -13    3.17    0.84
   1  -2 -13    3.69    0.96
  -1   2  13    4.13    0.94
   1  -2 -13    3.66    0.93
  -1   2  13    2.86    1.05
   1  -2 -13    4.65    0.90
   1  -2 -13    2.97    0.82
  -1   2  12    6.84    1.56
   1  -2 -12    4.94    1.45
   1  -2 -12    8.85    1.66
  -1   2  12    6.32    1.38
  -1   2  12    6.04    2.01
   1  -2 -12    7.83    1.93
   1  -2 -12    6.25    1.39
   1  -2 -12    8.35    1.71
   1  -2 -12    9.34    2.10
  -1   2  12    5.98    1.67
  -1   2  11   81.61    6.20
   1  -2 -11   71.61    5.84
   1  -2 -11   74.29    5.61
   1  -2 -11   80.08    6.33
  -1   2  11   58.80    7.66
  -1   2  11   80.34    6.08
  -1   2  11   81.08    5.90
   1  -2 -11   75.87    5.89
   1  -2 -11   72.50    7.23
   1  -2 -11   87.95    7.77
   1  -2 -11   72.48    8.62
  -1   2  11   83.76    7.15
   1  -2 -10  252.12   14.96
   1  -2 -10  238.54   12.47
   1  -2 -10  230.77   11.77
   1  -2 -10  237.23   16.95
   1  -2 -10  250.17   15.26
  -1   2  10  225.32   14.37
  -1   2  10  237.08   15.81
   1  -2 -10  243.64   12.86
   1  -2 -10  224.67   15.68
  -1   2  10  236.65   13.95
  -1   2  10  185.37   15.30
  -1   2  10  245.81   12.33
   1  -2 -10  240.59   12.40
  -1   2  10  236.67   12.21
   1  -2 -10  216.02   13.54
  -1   2  10  261.88   12.89
   1  -2  -9  100.74   10.54
   1  -2  -9  113.67    7.71
  -1   2   9  114.53    9.06
  -1   2   9  102.89   11.73
  -1   2   9  106.67    9.20
   1  -2  -9  120.55    9.82
   1  -2  -9  119.87   10.01
  -1   2   9  114.05    7.65
   1  -2  -9  109.50    8.87
  -1   2   9  113.18   10.12
   1  -2  -9  102.55   10.00
   1  -2  -9  105.94    7.23
  -1   2   9   93.37   10.32
   1  -2  -9  120.99    8.29
  -1   2   9  112.90    7.57
   1  -2  -9  109.19    7.61
  -1   2   9  127.02    8.19
   1  -2  -8   21.57    5.32
   1  -2  -8   19.25    2.99
  -1   2   8   19.69    4.05
   1  -2  -8   22.12    4.04
   1  -2  -8   22.44    3.01
   1  -2  -8   22.85    3.76
   1  -2  -8   16.13    3.96
  -1   2   8   19.82    3.60
  -1   2   8   21.14    3.90
   1  -2  -8   17.54    2.66
   1  -2  -8   21.50    3.01
   1  -2  -8   14.32    5.40
  -1   2   8   21.71    6.43
  -1   2   8   25.31    3.24
  -1   2   8   20.56    3.45
  -1   2   8   20.68    2.88
  -1   2   8   23.61    6.78
   1  -2  -8   19.64    3.74
   1  -2  -8   23.75    4.13
  -1   2   8   20.84    2.86
  -1   2   8   16.39    4.18
  -1   2   8   16.62    4.11
   1  -2  -8   24.32    3.29
   1  -2  -8   21.34    5.62
   1  -2  -8   19.52    6.51
   1  -2  -8   27.01    6.04
   1  -2  -8   20.79    4.29
  -1   2   8   27.31    6.89
   1  -2  -7   64.37    8.71
  -1   2   7   57.71    6.46
   1  -2  -7   53.15    5.36
   1  -2  -7   44.24    6.08
  -1   2   7   61.29    9.62
   1  -2  -7   52.19    5.86
  -1   2   7   57.54    7.50
  -1   2   7   55.12    5.66
  -1   2   7   43.07    8.58
   1  -2  -7   59.36    5.09
   1  -2  -7   55.85    9.48
  -1   2   7   53.62    5.85
   1  -2  -7   54.09    8.33
   1  -2  -7   53.30    9.56
  -1   2   7   60.76   10.10
   1  -2  -7   53.49    7.95
   1  -2  -6   70.18    8.33
  -1   2   6   57.85    9.32
   1  -2  -6   69.85    9.89
   1  -2  -6   73.02    6.05
   1  -2  -6   52.76    6.46
  -1   2   6   65.70    7.37
   1  -2  -6   78.93    5.62
   1  -2  -6   77.36    9.25
   1  -2  -6   78.33    6.09
   1  -2  -6   65.06    9.73
  -1   2   6   56.89    5.66
  -1   2   6   62.92    9.37
   1  -2  -6   69.50    6.24
   1  -2  -6   59.30    6.72
  -1   2   6   59.76    8.79
  -1   2   6   66.31    5.87
   1  -2  -6   68.64    8.16
   1  -2  -5  133.34   10.81
  -1   2   5  113.31    7.43
   1  -2  -5  123.05    7.45
  -1   2   5  119.55    9.24
   1  -2  -5  127.98   11.10
   1  -2  -5  131.17    7.28
   1  -2  -5  129.58   10.61
  -1   2   5  105.93    7.52
   1  -2  -5  129.22   12.28
   1  -2  -5  115.00    7.71
  -1   2   5  113.94   11.83
   1  -2  -5  116.94    8.60
   1  -2  -5  121.36   12.30
  -1   2   5  117.00   11.59
   1  -2  -5  110.88    8.86
   1  -2  -5  124.52    7.68
  -1   2   5  107.43   11.66
   1  -2  -4  103.21    7.79
   1  -2  -4  118.29    6.57
   1  -2  -4  116.19    6.43
   1  -2  -4  111.72    5.51
   1  -2  -4  110.11    9.08
  -1   2   4  103.77    7.82
  -1   2   4  109.83    6.59
  -1   2   4  115.64    6.51
   1  -2  -4  104.08    6.74
  -1   2   4   99.09    6.77
  -1   2   4  113.04   10.21
   1  -2  -4  128.04   10.05
   1  -2  -4  101.91    7.42
   1  -2  -4  129.73   11.13
  -1   2   4  108.36   10.47
   1  -2  -4  112.88    6.63
  -1   2   4  101.23   10.20
   1  -2  -4  111.59   10.70
   1  -2  -4  125.01    9.37
   1  -2  -3  302.05   14.50
   1  -2  -3  258.26   11.12
   1  -2  -3  258.43   10.01
  -1   2   3  242.23   11.50
  -1   2   3  276.85   12.83
   1  -2  -3  244.56   11.26
  -1   2   3  289.01   11.67
   1  -2  -3  285.05   14.79
  -1   2   3  243.86   10.83
  -1   2   3  237.16   15.33
   1  -2  -3  280.80   14.15
   1  -2  -3  261.76   12.27
   1  -2  -3  277.40   11.04
   1  -2  -3  282.13   15.90
  -1   2   3  263.69   15.83
   1  -2  -3  278.32   16.18
  -1   2   3  247.97   14.99
   1  -2  -3  264.18   12.66
   1  -2  -2  941.87   30.70
   1  -2  -2  916.36   31.56
  -1   2   2  989.80   33.21
   1  -2  -2 1096.26   36.06
   1  -2  -2 1058.92   35.05
  -1   2   2 1076.66   33.16
   1  -2  -2  862.84   32.37
   1  -2  -2 1155.32   37.88
   1  -2  -2  875.08   31.57
  -1   2   2  959.17   36.88
  -1   2   2  887.80   36.43
   1  -2  -2 1015.71   31.69
   1  -2  -2  943.18   33.14
  -1   2   2  940.58   36.15
  -1   2   2  932.40   32.52
   1  -2  -2 1121.83   38.14
   1  -2  -2 1130.54   35.40
   1  -2  -2  933.69   30.75
  -1   2   1  144.49    7.12
   1  -2  -1  138.78    6.27
   1  -2  -1  128.33    6.15
   1  -2  -1  139.00    7.27
   1  -2  -1  122.54    6.09
  -1   2   1  140.96    6.80
  -1   2   1  152.68    7.54
   1  -2  -1  135.93    5.80
   1  -2  -1  177.86    9.77
   1  -2  -1  176.85    8.65
  -1   2   1  145.14    9.07
  -1   2   1  142.64    8.23
   1  -2  -1  191.58   10.28
   1  -2  -1  163.39    8.78
  -1   2   1  136.51    8.67
  -1   2   1  134.20    8.76
  -1   2   1  131.19    6.82
  -1   2   0  161.29    7.58
   1  -2   0  172.91    6.96
  -1   2   0  171.04    9.59
   1  -2   0  196.28    9.23
  -1   2   0  149.06    7.20
   1  -2   0  176.50    9.26
  -1   2   0  176.14    7.33
   1  -2   0  142.29    6.44
   1  -2   0  210.16   10.59
  -1   2   0  162.97    9.27
  -1   2   0  165.34    9.25
   1  -2   0  230.40   11.16
  -1   2   0  172.55    8.92
   1  -2   1   66.51    3.21
  -1   2  -1   60.94    4.82
   1  -2   1   61.42    3.38
   1  -2   1   59.02    3.05
   1  -2   1   55.19    3.01
  -1   2  -1   57.35    5.19
   1  -2   1   50.04    2.82
   1  -2   1   62.18    3.17
   1  -2   1   62.90    5.79
   1  -2   1   72.42    6.43
  -1   2  -1   57.78    5.08
  -1   2  -1   57.64    5.02
  -1   2  -1   61.34    3.55
  -1   2  -1   65.27    5.32
  -1   2  -1   58.16    4.82
   1  -2   1   62.73    5.02
   1  -2   2 1014.61   26.95
  -1   2  -2  842.47   29.73
   1  -2   2  788.03   27.01
  -1   2  -2  732.34   30.96
   1  -2   2  722.19   32.33
  -1   2  -2  776.69   30.74
   1  -2   2  905.20   26.76
  -1   2  -2  758.83   26.95
   1  -2   2  753.43   26.62
  -1   2  -2  756.17   31.15
  -1   2  -2  692.62   28.51
   1  -2   2  948.34   26.62
  -1   2  -2  781.87   30.95
  -1   2  -2  804.51   31.07
   1  -2   2  923.60   26.81
   1  -2   2  913.25   35.78
  -1   2  -2  723.26   30.17
   1  -2   2  695.77   30.35
   1  -2   3  312.96   19.64
   1  -2   3  361.65   17.18
  -1   2  -3  342.49   14.69
  -1   2  -3  398.18   16.69
  -1   2  -3  353.92   17.83
  -1   2  -3  376.98   18.56
   1  -2   3  470.37   14.12
  -1   2  -3  338.39   13.90
   1  -2   3  430.78   24.22
  -1   2  -3  362.16   16.19
  -1   2  -3  336.07   14.00
  -1   2  -3  370.79   18.48
  -1   2  -3  366.77   18.80
   1  -2   3  428.88   13.98
  -1   2  -3  337.92   18.38
   1  -2   3  372.47   14.34
  -1   2  -3  367.29   18.43
  -1   2  -3  356.28   18.18
  -1   2  -4  124.03    9.78
  -1   2  -4  121.23    9.94
  -1   2  -4  126.61   10.42
  -1   2  -4  127.51    8.34
  -1   2  -4  130.45   10.28
  -1   2  -4  132.98   10.47
   1  -2   4  133.53    5.62
  -1   2  -4  127.71    6.80
   1  -2   4  159.86    6.63
  -1   2  -4  127.65    6.48
   1  -2   4  173.63    6.87
  -1   2  -4  134.33   10.44
   1  -2   4  147.96    6.28
  -1   2  -4  120.66    7.40
  -1   2  -4  123.06    8.05
   1  -2   4  142.46   14.84
   1  -2   4  131.00    9.43
  -1   2  -4  112.35    9.95
   1  -2   4   94.01   10.44
   1  -2   4  135.99    6.45
   1  -2   4  132.21    7.14
   1  -2   5  123.17    9.98
  -1   2  -5  127.59    8.32
  -1   2  -5  123.66   10.91
   1  -2   5  136.49    6.84
  -1   2  -5  110.71   10.28
  -1   2  -5  124.03    7.12
  -1   2  -5  118.84   10.85
   1  -2   5  159.68    6.48
  -1   2  -5  109.47   10.70
  -1   2  -5  123.27    6.64
  -1   2  -5  112.79    7.83
   1  -2   5  109.79    6.39
  -1   2  -5  115.90    8.40
  -1   2  -5  121.59   11.05
   1  -2   5  124.17    6.46
   1  -2   5  135.11    7.73
   1  -2   5  124.90   15.41
  -1   2  -5  109.60   10.07
  -1   2  -6  208.15   16.02
  -1   2  -6  225.58   17.03
   1  -2   6  243.81   12.18
  -1   2  -6  214.90   16.95
   1  -2   6  254.02    9.76
  -1   2  -6  216.27   16.37
  -1   2  -6  222.09   10.33
   1  -2   6  243.62   19.15
   1  -2   6  223.00   15.18
  -1   2  -6  223.64   12.89
   1  -2   6  213.12   10.21
  -1   2  -6  220.41   16.56
   1  -2   6  194.72   10.20
   1  -2   6  210.83   10.57
  -1   2  -6  214.24   12.35
  -1   2  -6  197.66   17.91
   1  -2   6  222.74   23.24
  -1   2  -6  216.82   11.03
  -1   2  -6  206.99   15.67
  -1   2  -7   19.32    5.02
  -1   2  -7   43.02    8.94
  -1   2  -7   35.82    7.41
  -1   2  -7   22.90    3.91
   1  -2   7   22.73    3.11
   1  -2   7   26.55    3.46
   1  -2   7   24.37    5.05
   1  -2   7   29.19    4.00
   1  -2   7   41.39   13.46
  -1   2  -7   27.46    3.58
  -1   2  -7   30.38    6.69
   1  -2   7   24.09    3.10
  -1   2  -7   29.03    6.08
   1  -2   7   21.99    6.04
  -1   2  -7   26.18    4.06
  -1   2  -7   36.12    7.34
  -1   2  -7   25.32    5.62
  -1   2  -8   46.65    8.22
   1  -2   8   52.26    4.02
  -1   2  -8   39.84    5.36
  -1   2  -8   51.02    4.33
  -1   2  -8   48.05    4.98
   1  -2   8   49.33    3.71
  -1   2  -8   47.13    4.90
  -1   2  -8   53.17    4.90
  -1   2  -8   49.71    6.54
   1  -2   8   45.41    4.68
   1  -2   8   47.63    4.93
  -1   2  -8   48.36    8.55
   1  -2   8   50.38    4.65
   1  -2   8   51.83    8.06
  -1   2  -8   47.31    8.57
   1  -2   8   49.13    5.17
  -1   2  -8   55.20    9.24
   1  -2   8   45.46    3.57
   1  -2   8   39.23    4.98
  -1   2  -8   41.92    8.77
  -1   2  -8   48.99    4.70
  -1   2  -8   55.45    7.03
  -1   2  -8   45.58    8.54
  -1   2  -8   45.78    6.00
  -1   2  -8   40.03    7.44
   1  -2   8   49.90   13.11
  -1   2  -8   48.85    6.34
   1  -2   8   48.63    9.48
   1  -2   9    6.31    2.28
  -1   2  -9    7.83    1.83
  -1   2  -9    6.33    2.88
  -1   2  -9    8.27    1.76
   1  -2   9    5.84    1.95
   1  -2   9    6.25    1.42
  -1   2  -9    3.75    2.34
   1  -2   9    7.71    1.88
  -1   2  -9    6.34    2.58
  -1   2  -9    7.20    1.92
  -1   2  -9    8.98    3.05
   1  -2   9    5.80    1.50
  -1   2  -9    7.69    3.63
  -1   2  -9    4.96    1.68
  -1   2  -9    8.91    5.18
  -1   2  -9    6.97    2.51
  -1   2  -9    7.43    2.70
   1  -2   9    9.57    2.22
  -1   2  -9    5.16    2.58
   1  -2   9    8.32    1.52
  -1   2  -9    7.75    1.99
  -1   2  -9    8.41    2.00
  -1   2  -9   10.90    4.08
   1  -2   9   12.38    5.33
   1  -2   9    9.26    3.49
  -1   2 -10    2.56    0.72
  -1   2 -10    1.75    0.95
   1  -2  10    2.31    1.10
  -1   2 -10    1.12    0.51
   1  -2  10    1.60    0.69
  -1   2 -10    1.74    0.85
  -1   2 -10   -0.61    1.52
  -1   2 -10    2.20    1.66
   1  -2  10    1.56    0.66
  -1   2 -10    1.39    1.21
  -1   2 -10    2.10    0.94
  -1   2 -10    0.61    0.76
  -1   2 -10    1.59    1.02
   1  -2  10    3.17    1.69
   1  -2  10    0.79    0.49
   1  -2  10    2.62    1.22
   1  -2  10    0.90    0.44
  -1   2 -11   37.93    5.51
  -1   2 -11   40.85    4.04
   1  -2  11   34.65    3.53
  -1   2 -11   32.93    4.87
  -1   2 -11   34.19    5.50
  -1   2 -11   35.65    4.08
  -1   2 -11   37.66    5.61
  -1   2 -11   36.06    4.11
  -1   2 -11   33.28    4.09
   1  -2  11   34.49    4.78
   1  -2  11   41.36    5.34
   1  -2  11   41.02    3.64
  -1   2 -11   38.83    5.99
   1  -2  11   40.99    4.70
  -1   2 -12   41.51    3.65
   1  -2  12   37.38    3.39
  -1   2 -12   36.75    3.77
   1  -2  12   37.87    4.15
  -1   2 -12   33.72    4.42
  -1   2 -12   36.36    4.94
  -1   2 -12   36.67    3.76
  -1   2 -12   36.56    4.70
   1  -2  12   44.16    3.48
  -1   2 -12   32.43    3.62
   1  -2  13   58.40    3.48
  -1   2 -13   56.00    4.76
   1  -2  13   55.52    3.71
  -1   2 -13   55.72    4.00
  -1   2 -13   57.36    4.08
  -1   2 -13   54.76    5.16
  -1   2 -13   54.14    3.98
   1  -2  13   56.26    4.37
  -1   2 -13   54.46    4.84
  -1   2 -13   63.03    3.83
   1  -1 -13   20.45    2.19
   1  -1 -13   20.48    2.34
  -1   1  13   21.12    2.30
   1  -1 -13   21.56    2.77
  -1   1  13   23.37    2.77
  -1   1  13   17.60    2.97
   1  -1 -13   18.71    2.51
   1  -1 -13   18.91    2.26
   1  -1 -13   17.85    1.84
   1  -1 -12   25.08    3.08
  -1   1  12   24.50    2.56
   1  -1 -12   29.91    3.47
   1  -1 -12   29.40    2.95
  -1   1  12   31.48    3.92
  -1   1  12   18.24    3.87
   1  -1 -12   21.76    3.45
   1  -1 -12   30.19    3.20
  -1   1  12   25.81    3.06
   1  -1 -12   32.89    4.16
   1  -1 -11  176.29   10.02
   1  -1 -11  184.78   12.02
  -1   1  11  165.26    8.99
  -1   1  11  194.35   11.82
   1  -1 -11  176.04    9.34
   1  -1 -11  176.73   12.03
   1  -1 -11  173.41   12.74
   1  -1 -11  170.26   13.72
   1  -1 -11  176.72    9.86
  -1   1  11  191.74   10.15
   1  -1 -11  186.60   10.62
  -1   1  11  208.67   10.37
  -1   1  11  168.56   12.09
   1  -1 -10  197.56   12.40
   1  -1 -10  204.63   11.30
  -1   1  10  197.42   10.42
   1  -1 -10  209.28   11.26
  -1   1  10  212.93   13.07
   1  -1 -10  196.68   15.20
   1  -1 -10  216.78   15.05
  -1   1  10  216.33   14.06
   1  -1 -10  217.96   14.14
   1  -1 -10  203.40   10.64
   1  -1 -10  216.60   13.88
  -1   1  10  216.72   11.32
  -1   1  10  218.20   14.44
   1  -1 -10  202.98   11.74
  -1   1  10  230.17   11.55
  -1   1   9   10.94    2.11
   1  -1  -9    9.01    2.27
  -1   1   9   10.17    1.89
   1  -1  -9    9.03    1.97
   1  -1  -9    8.79    1.73
  -1   1   9   10.05    2.46
  -1   1   9    6.97    2.39
  -1   1   9   10.72    2.88
  -1   1   9   10.64    1.98
  -1   1   9    9.44    4.02
   1  -1  -9    9.77    2.67
   1  -1  -9   12.32    3.20
   1  -1  -9   11.80    3.40
   1  -1  -9    8.52    1.88
  -1   1   9    7.92    2.50
   1  -1  -9   10.22    2.73
  -1   1   9    6.03    3.29
   1  -1  -9    7.17    2.73
  -1   1   9    9.58    1.97
   1  -1  -9   11.03    2.32
   1  -1  -9   15.14    5.64
   1  -1  -9   11.50    3.02
   1  -1  -9   13.83    4.64
   1  -1  -9   10.28    4.11
  -1   1   9    6.69    2.25
  -1   1   9    4.45    2.72
   1  -1  -9   10.64    4.71
   1  -1  -9   13.04    4.17
  -1   1   8  227.09   11.05
   1  -1  -8  222.60   12.57
   1  -1  -8  208.93   20.87
  -1   1   8  220.42   13.45
  -1   1   8  182.84   15.25
  -1   1   8  220.06   10.79
   1  -1  -8  231.45   19.19
  -1   1   8  235.19   13.14
   1  -1  -8  240.03   14.15
   1  -1  -8  223.13   14.85
   1  -1  -8  223.61   14.98
   1  -1  -8  244.23   11.84
  -1   1   8  206.19   13.07
  -1   1   8  232.33   14.92
   1  -1  -8  228.43   11.37
  -1   1   8  236.57   11.30
   1  -1  -8  215.71   10.73
   1  -1  -8  226.64   21.00
   1  -1  -8  219.05   11.04
  -1   1   8  238.48   20.73
   1  -1  -8  228.51   13.98
   1  -1  -8  224.11   11.72
  -1   1   8  214.37   20.87
  -1   1   8  207.78   10.50
   1  -1  -8  208.89   13.51
   1  -1  -8  227.66   14.17
   1  -1  -8  233.20   18.31
   1  -1  -8  236.18   18.57
  -1   1   7   80.92    6.85
   1  -1  -7   75.29    9.42
   1  -1  -7   82.03    5.91
  -1   1   7   91.26   11.53
   1  -1  -7   78.95    6.33
  -1   1   7   75.16    8.22
  -1   1   7   70.96   10.77
   1  -1  -7   77.82   10.11
   1  -1  -7   78.46   10.35
   1  -1  -7   80.08    7.12
   1  -1  -7   71.65    6.73
   1  -1  -7   81.86    7.89
   1  -1  -7   70.72   10.62
  -1   1   7   72.21    6.52
   1  -1  -7   67.78   10.91
  -1   1   7   88.16    7.91
   1  -1  -7   75.21    9.45
   1  -1  -6   10.78    3.12
   1  -1  -6   13.35    2.85
   1  -1  -6   11.28    2.14
  -1   1   6   10.44    3.79
  -1   1   6   18.97    4.54
  -1   1   6   13.32    2.43
   1  -1  -6   13.97    3.76
   1  -1  -6    6.69    1.92
  -1   1   6   13.71    2.48
   1  -1  -6   10.98    2.29
   1  -1  -6   17.55    5.00
   1  -1  -6    8.52    3.31
   1  -1  -6   13.60    3.85
   1  -1  -6   11.81    2.30
   1  -1  -6   13.63    2.10
  -1   1   6   10.98    2.82
  -1   1   6   11.60    2.43
  -1   1   6   12.59    2.29
   1  -1  -6   21.08    4.41
   1  -1  -5  300.75   13.02
  -1   1   5  312.74   14.28
  -1   1   5  270.23   18.74
   1  -1  -5  321.30   18.58
   1  -1  -5  251.39   14.03
   1  -1  -5  288.46   14.53
  -1   1   5  294.08   13.37
   1  -1  -5  290.75   13.52
  -1   1   5  280.04   14.97
  -1   1   5  285.79   12.91
   1  -1  -5  312.25   17.38
  -1   1   5  245.54   12.57
   1  -1  -5  314.24   17.39
   1  -1  -5  281.10   19.60
   1  -1  -5  313.36   19.91
   1  -1  -5  292.17   12.51
   1  -1  -5  313.39   18.16
   1  -1  -5  293.34   13.05
  -1   1   5  310.21   18.83
   1  -1  -4  136.99    9.68
   1  -1  -4  130.57    8.05
   1  -1  -4  133.30    7.05
  -1   1   4  125.62   10.16
  -1   1   4  127.43    7.16
  -1   1   4  130.45    8.27
  -1   1   4  129.42    5.97
   1  -1  -4  134.61    6.90
   1  -1  -4  129.27   10.86
   1  -1  -4  143.36   10.33
  -1   1   4  110.25    6.74
  -1   1   4  116.56   10.42
   1  -1  -4  140.75    9.76
   1  -1  -4  113.12    7.75
   1  -1  -4  140.46   10.44
   1  -1  -4  119.56   10.81
   1  -1  -4  131.53    7.33
   1  -1  -4  133.63    6.92
   1  -1  -3  384.94   16.67
  -1   1   3  359.54   13.87
   1  -1  -3  336.61   14.54
   1  -1  -3  366.01   13.72
   1  -1  -3  390.41   16.59
  -1   1   3  371.43   15.04
   1  -1  -3  362.00   13.90
   1  -1  -3  351.31   18.38
   1  -1  -3  389.64   17.29
  -1   1   3  315.43   13.64
   1  -1  -3  361.29   13.50
  -1   1   3  326.37   17.49
  -1   1   3  325.93   16.98
   1  -1  -3  359.69   14.71
  -1   1   3  322.78   17.69
   1  -1  -3  370.30   18.28
   1  -1  -2   61.42    3.66
  -1   1   2   70.26    4.36
  -1   1   2   57.42    3.66
   1  -1  -2   73.17    5.97
   1  -1  -2   62.57    3.77
   1  -1  -2   66.77    5.87
  -1   1   2   61.94    5.56
   1  -1  -2   69.54    5.28
  -1   1   2   61.16    5.30
   1  -1  -2   64.64    4.11
  -1   1   2   61.13    5.59
   1  -1  -2   63.93    4.85
   1  -1  -2   67.46    4.96
   1  -1  -1  658.20   20.85
  -1   1   1  591.60   19.40
   1  -1  -1  522.08   18.62
   1  -1  -1  627.06   20.67
   1  -1  -1  675.33   22.17
  -1   1   1  583.50   19.52
  -1   1   1  525.61   21.21
   1  -1  -1  551.21   18.95
   1  -1  -1  658.57   22.30
   1  -1  -1  625.44   21.11
   1  -1  -1  596.01   19.46
  -1   1   1  513.81   20.87
  -1   1   1  477.60   20.88
   1  -1   0 2063.77   58.30
  -1   1   0 1722.35   57.77
   1  -1   0 1797.08   56.22
  -1   1   0 1851.87   56.66
   1  -1   0 2359.74   60.31
   1  -1   0 2175.32   59.63
   1  -1   0 1855.62   58.28
  -1   1   0 1683.06   58.42
  -1   1   0 1728.36   58.43
  -1   1   0 1652.79   58.14
   1  -1   1 1399.82   42.59
  -1   1  -1 1458.42   44.84
  -1   1  -1 1486.57   45.58
   1  -1   1 1535.67   46.82
   1  -1   1 1234.40   41.40
  -1   1  -1 1499.21   45.71
  -1   1  -1 1581.34   45.64
   1  -1   1 1302.31   42.37
  -1   1  -1 1503.05   45.41
  -1   1  -1 1521.34   42.51
   1  -1   1 1414.70   45.05
   1  -1   2  228.61    7.62
  -1   1  -2  198.59   10.15
   1  -1   2  183.68    7.17
  -1   1  -2  181.38    7.20
  -1   1  -2  217.00    9.57
   1  -1   2  252.38   14.18
  -1   1  -2  182.38    7.15
   1  -1   2  178.77    9.18
   1  -1   2  232.36    7.58
   1  -1   2  172.64   10.95
  -1   1  -2  194.04   10.13
  -1   1  -2  192.56   10.35
  -1   1  -2  210.68   10.41
  -1   1  -2  195.60    9.93
  -1   1  -2  213.81   10.71
  -1   1  -3  119.30    8.40
  -1   1  -3  119.98    7.18
  -1   1  -3  117.71    8.63
  -1   1  -3  115.41    5.35
  -1   1  -3  119.78    5.69
   1  -1   3  127.63    5.95
  -1   1  -3  113.29    8.54
   1  -1   3  160.55    5.93
   1  -1   3  113.08    7.64
   1  -1   3  149.54    5.76
   1  -1   3   98.99    9.11
  -1   1  -3  120.27    8.67
  -1   1  -3  124.28    7.36
  -1   1  -3  126.29    8.66
   1  -1   3  138.07   11.98
  -1   1  -3  128.13    8.71
  -1   1  -3  111.15    6.33
  -1   1  -3  123.53    8.35
  -1   1  -4    3.29    1.54
   1  -1   4    2.98    0.73
  -1   1  -4    3.52    0.77
  -1   1  -4    4.23    0.81
   1  -1   4    3.64    1.25
   1  -1   4    4.56    0.89
  -1   1  -4    3.71    0.90
   1  -1   4    4.28    0.91
   1  -1   4    4.37    0.78
  -1   1  -4    1.61    1.39
  -1   1  -4    3.26    1.31
   1  -1   4    2.43    1.87
   1  -1   4    3.05    0.74
  -1   1  -4    4.11    1.24
  -1   1  -4    3.37    1.83
  -1   1  -4    2.57    1.22
   1  -1   4    2.76    0.82
  -1   1  -4    3.22    1.56
  -1   1  -4    2.46    0.92
  -1   1  -5  103.17    9.54
  -1   1  -5  108.53    5.68
   1  -1   5   97.50    8.56
   1  -1   5  110.78    5.82
  -1   1  -5  104.05   11.03
  -1   1  -5  106.96    9.44
  -1   1  -5  105.56    6.30
   1  -1   5  112.39    5.93
  -1   1  -5  107.89    6.55
  -1   1  -5  112.11   10.08
   1  -1   5  153.05    6.39
   1  -1   5  116.36    6.95
   1  -1   5   99.02    5.67
  -1   1  -5  113.34    7.76
  -1   1  -5  106.45   10.03
   1  -1   5  113.33   14.21
  -1   1  -5  104.99   10.04
  -1   1  -5  115.57   10.07
  -1   1  -5  107.20    7.34
   1  -1   5  119.28   11.45
  -1   1  -6    4.44    1.92
   1  -1   6    1.29    0.63
  -1   1  -6    1.13    0.84
  -1   1  -6    2.06    0.87
  -1   1  -6    4.01    1.56
   1  -1   6    1.46    0.62
  -1   1  -6    0.31    0.74
   1  -1   6    2.84    1.96
  -1   1  -6    1.42    1.73
  -1   1  -6    2.36    0.90
  -1   1  -6    1.96    2.00
   1  -1   6    0.53    3.01
   1  -1   6    1.74    0.63
   1  -1   6    2.97    1.15
  -1   1  -6   -0.14    0.62
   1  -1   6    1.20    0.47
  -1   1  -6    0.89    0.84
   1  -1   6    1.68    1.92
  -1   1  -6    2.85    1.98
  -1   1  -7   54.67    8.19
  -1   1  -7   54.35    5.08
   1  -1   7   48.53    4.77
   1  -1   7   50.17    4.59
   1  -1   7   57.42    7.59
  -1   1  -7   60.79    8.63
   1  -1   7   56.37    5.64
  -1   1  -7   53.88    7.96
  -1   1  -7   48.73    8.07
   1  -1   7   60.58    4.46
   1  -1   7   46.26   11.03
   1  -1   7   53.01    4.65
  -1   1  -7   52.61    8.29
  -1   1  -7   51.84    9.08
  -1   1  -7   56.18    6.15
   1  -1   7   52.78    9.25
  -1   1  -7   53.54    7.85
  -1   1  -8  399.71   17.92
   1  -1   8  442.55   19.84
   1  -1   8  364.12   14.23
   1  -1   8  354.16   16.90
  -1   1  -8  359.66   24.28
  -1   1  -8  394.22   16.69
   1  -1   8  335.92   16.22
  -1   1  -8  345.79   18.78
  -1   1  -8  378.08   16.53
  -1   1  -8  387.10   25.37
   1  -1   8  395.69   23.92
   1  -1   8  359.32   16.71
   1  -1   8  366.11   15.96
  -1   1  -8  367.01   19.58
   1  -1   8  303.49   16.99
  -1   1  -8  346.70   27.72
  -1   1  -8  370.58   15.61
   1  -1   8  345.15   14.12
  -1   1  -8  365.95   25.70
  -1   1  -8  383.08   20.47
  -1   1  -8  373.65   20.63
  -1   1  -8  345.44   24.12
  -1   1  -8  393.25   20.38
  -1   1  -8  380.34   17.06
   1  -1   8  363.31   28.16
  -1   1  -8  372.05   25.90
   1  -1   8  398.73   16.20
  -1   1  -9  248.61   21.06
  -1   1  -9  216.11   23.53
  -1   1  -9  291.92   13.41
   1  -1   9  314.03   21.76
   1  -1   9  276.60   14.97
  -1   1  -9  262.24   16.15
  -1   1  -9  273.72   17.39
  -1   1  -9  284.23   13.98
  -1   1  -9  264.63   25.01
   1  -1   9  257.74   13.96
  -1   1  -9  250.63   17.12
  -1   1  -9  242.26   21.68
  -1   1  -9  280.57   17.60
   1  -1   9  270.75   25.39
   1  -1   9  272.08   14.83
  -1   1  -9  286.29   14.03
  -1   1  -9  297.42   22.63
  -1   1  -9  269.64   21.51
  -1   1  -9  300.70   23.81
   1  -1   9  236.87   15.27
   1  -1   9  306.26   25.39
  -1   1  -9  272.94   16.70
   1  -1   9  275.71   11.96
   1  -1   9  274.06   13.58
   1  -1   9  275.44   11.95
  -1   1  -9  276.74   14.27
   1  -1  10   56.27    6.18
  -1   1 -10   53.55    4.99
  -1   1 -10   59.74    7.66
   1  -1  10   55.80    4.48
  -1   1 -10   51.30    6.44
   1  -1  10   51.95    4.39
  -1   1 -10   52.19    5.29
  -1   1 -10   50.97    5.44
  -1   1 -10   48.08    6.84
  -1   1 -10   56.53    7.22
   1  -1  10   51.79    5.56
  -1   1 -10   50.32    5.17
   1  -1  10   53.36    6.05
   1  -1  10   43.22    6.25
  -1   1 -10   53.04    9.03
   1  -1  10   49.13    5.06
  -1   1 -10   56.03    6.83
  -1   1 -11   32.47    3.75
   1  -1  11   30.80    3.35
   1  -1  11   31.21    4.22
  -1   1 -11   30.57    3.81
   1  -1  11   35.35    4.91
  -1   1 -11   32.71    4.86
  -1   1 -11   28.05    4.88
   1  -1  11   32.47    3.40
  -1   1 -11   31.70    4.86
   1  -1  11   32.08    4.64
  -1   1 -11   32.89    4.00
  -1   1 -11   32.70    4.01
  -1   1 -11   30.06    5.38
   1  -1  12   11.23    1.82
   1  -1  12   11.51    2.35
  -1   1 -12    9.29    1.88
  -1   1 -12   10.62    2.65
  -1   1 -12   12.09    2.65
  -1   1 -12    8.88    1.86
  -1   1 -12   13.33    2.26
   1  -1  12   12.47    1.95
  -1   1 -12    8.94    2.23
  -1   1 -12   15.10    2.27
  -1   1 -13    5.00    1.09
   1  -1  13    6.00    1.12
  -1   1 -13    5.48    1.48
   1  -1  13    6.14    1.50
  -1   1 -13    5.54    1.20
  -1   1 -13    3.44    1.19
  -1   1 -13    4.12    1.35
   1  -1  13    5.74    1.10
  -1   1 -13    5.08    1.16
  -1   1 -13    5.15    1.16
   1  -1  14   22.50    2.76
  -1   1 -14   25.58    2.62
  -1   0  13   53.09    5.47
  -1   0  13   52.83    3.55
   1   0 -13   58.71    4.79
  -1   0  13   67.72    5.01
   1   0 -13   55.48    4.59
   1   0 -13   61.37    4.34
  -1   0  13   59.68    4.09
   1   0 -13   58.28    3.98
   1   0 -13   60.70    4.41
   1   0 -12   56.62    6.16
  -1   0  12   61.95    4.61
   1   0 -12   69.20    4.66
   1   0 -12   66.47    5.16
  -1   0  12   48.21    6.28
  -1   0  12   72.06    6.17
   1   0 -12   60.21    5.97
   1   0 -12   69.63    5.09
   1   0 -12   63.10    5.96
   1   0 -12   67.78    5.46
  -1   0  12   78.01    5.41
   1   0 -11   39.64    4.06
   1   0 -11   42.38    4.33
  -1   0  11   37.71    3.82
   1   0 -11   28.39    5.16
   1   0 -11   35.82    3.60
  -1   0  11   35.29    5.16
   1   0 -11   37.85    5.15
   1   0 -11   36.92    4.91
   1   0 -11   39.38    5.65
   1   0 -11   38.17    4.36
  -1   0  11   42.78    4.26
  -1   0  11   45.56    5.27
   1   0 -10  343.61   19.09
   1   0 -10  359.20   17.34
   1   0 -10  366.26   15.96
  -1   0  10  327.24   15.05
   1   0 -10  325.66   19.62
  -1   0  10  352.41   19.21
  -1   0  10  347.14   17.68
   1   0 -10  323.34   15.44
   1   0 -10  327.53   14.77
   1   0 -10  347.78   16.50
   1   0 -10  348.73   18.74
   1   0 -10  321.15   20.01
   1   0 -10  351.99   19.86
  -1   0  10  377.79   15.99
  -1   0   9  114.54    7.38
   1   0  -9  114.92   10.38
   1   0  -9  110.13    7.44
   1   0  -9  110.54    8.44
   1   0  -9  114.91    8.03
  -1   0   9  113.51    7.26
   1   0  -9  112.56   15.13
  -1   0   9  111.13    9.45
  -1   0   9  118.57    8.97
   1   0  -9  113.31    9.78
  -1   0   9  120.30   12.03
   1   0  -9  105.20    9.41
   1   0  -9   95.17   14.30
   1   0  -9  128.91   14.53
   1   0  -9   97.26    9.27
  -1   0   9  133.38   11.30
  -1   0   9  113.76    9.22
   1   0  -9  117.33   10.70
   1   0  -9  109.10   12.88
   1   0  -9  121.39   14.40
   1   0  -9  130.23    8.00
   1   0  -9  120.54    9.78
   1   0  -9  102.18   12.46
  -1   0   9  118.31   14.82
  -1   0   9   99.16   14.48
  -1   0   8   33.16    4.37
   1   0  -8   34.08    3.59
  -1   0   8   32.84    7.53
   1   0  -8   38.33    6.85
   1   0  -8   36.55    4.47
  -1   0   8   39.77    4.58
  -1   0   8   33.29    4.66
   1   0  -8   29.93    7.43
   1   0  -8   35.84    5.44
   1   0  -8   38.92    8.30
  -1   0   8   35.81    7.42
  -1   0   8   36.11    6.17
   1   0  -8   36.42    3.98
   1   0  -8   43.61    5.80
   1   0  -8   34.98    6.91
   1   0  -8   39.31    4.08
   1   0  -8   35.18    4.87
   1   0  -8   38.66    7.66
   1   0  -8   33.10    4.82
  -1   0   8   36.39    4.68
  -1   0   8   44.35    5.90
  -1   0   8   38.37    3.70
   1   0  -8   40.04    5.18
   1   0  -8   36.26    5.04
  -1   0   8   43.80    3.89
   1   0  -8   35.12    6.72
   1   0  -7   24.83    6.54
  -1   0   7   34.94    4.76
   1   0  -7   27.69    3.58
   1   0  -7   24.14    5.15
   1   0  -7   27.26    4.36
  -1   0   7   28.21    4.97
  -1   0   7   33.13    4.18
  -1   0   7   30.77    6.47
   1   0  -7   27.46    3.91
   1   0  -7   29.77    3.39
  -1   0   7   27.53    3.75
   1   0  -7   35.90    6.70
   1   0  -7   23.34    6.27
  -1   0   7   17.81    2.98
  -1   0   7   25.22    4.17
   1   0  -7   28.83    6.06
   1   0  -7   26.00    5.39
   1   0  -7   26.58    3.80
  -1   0   7   26.54    6.24
   1   0  -6   38.63    5.96
   1   0  -6   39.78    7.21
   1   0  -6   36.30    3.85
  -1   0   6   34.66    3.72
  -1   0   6   33.61    4.88
   1   0  -6   37.17    3.72
   1   0  -6   41.77    6.57
  -1   0   6   37.90    4.55
   1   0  -6   36.27    4.19
  -1   0   6   41.39    4.28
   1   0  -6   42.52    5.05
  -1   0   6   40.29    6.60
  -1   0   6   37.43    4.69
  -1   0   6   39.26    4.17
   1   0  -6   41.90    7.57
  -1   0   6   37.11    6.72
   1   0  -6   47.27    6.83
   1   0  -6   37.65    4.14
   1   0  -6   43.35    6.27
  -1   0   5   79.28    8.38
   1   0  -5   72.09    5.06
   1   0  -5   71.34    7.44
   1   0  -5   67.91    5.09
  -1   0   5   63.18    4.77
  -1   0   5   63.55    5.06
  -1   0   5   72.17    6.00
  -1   0   5   63.30    8.17
  -1   0   5   70.17    6.33
   1   0  -5   76.13    5.61
   1   0  -5   68.52    6.07
   1   0  -5   71.00    7.74
   1   0  -5   61.34    6.88
   1   0  -5   73.53    7.98
  -1   0   5   78.19    5.99
   1   0  -5   61.47    5.35
   1   0  -5   61.74    8.09
  -1   0   5   76.38    5.46
   1   0  -5   63.21    4.94
   1   0  -5   64.78    8.59
   1   0  -4   71.37    6.58
   1   0  -4   64.42    4.39
  -1   0   4   68.67    6.95
   1   0  -4   73.92    4.82
  -1   0   4   77.45    3.50
  -1   0   4   72.35    4.81
   1   0  -4   61.15    4.74
  -1   0   4   61.96    5.26
   1   0  -4   74.52    7.15
  -1   0   4   66.90    4.72
   1   0  -4   73.33    5.06
  -1   0   4   64.56    5.10
   1   0  -4   65.75    5.49
  -1   0   4   55.88    4.17
  -1   0   4   73.78    5.25
   1   0  -4   65.36    7.38
   1   0  -4   53.88    7.13
   1   0  -4   74.15    4.84
   1   0  -4   71.16    7.00
  -1   0   4   53.73    6.69
   1   0  -4   73.02    6.69
   1   0  -3  198.77    8.41
   1   0  -3  147.62    7.70
   1   0  -3  201.21    8.44
  -1   0   3  164.28    8.56
   1   0  -3  182.53    8.29
   1   0  -3  174.73   11.28
  -1   0   3  190.58    8.25
  -1   0   3  160.85   10.70
  -1   0   3  190.42    8.26
  -1   0   3  171.28    8.33
  -1   0   3  166.15    7.78
   1   0  -3  187.98   10.67
  -1   0   3  185.25    8.84
  -1   0   3  181.78    7.13
   1   0  -3  169.51   11.45
   1   0  -3  186.77   10.60
   1   0  -3  166.47    8.93
   1   0  -3  189.97   10.26
  -1   0   3  176.09   10.55
   1   0  -3  187.71   10.09
  -1   0   2 3497.13  103.75
   1   0  -2 3504.34  105.45
   1   0  -2 3206.37  102.85
  -1   0   2 3407.65  103.75
  -1   0   2 3361.34  103.14
   1   0  -2 3337.21  106.91
   1   0  -2 3537.76  103.77
  -1   0   2 3343.94  106.10
   1   0  -2 3136.97  107.06
   1   0  -2 3569.21  106.14
  -1   0   2 3697.17  104.01
  -1   0   2 3021.52  106.25
   1   0  -2 3596.56  106.27
   1   0  -2 3563.47  105.60
   1   0  -1 6207.64  175.07
   1   0  -1 6083.19  173.40
   1   0  -1 5730.24  175.95
  -1   0   1 4937.89  175.32
  -1   0   1 5853.69  173.94
  -1   0   1 5539.95  174.72
   1   0  -1 6239.85  175.05
   1   0  -1 6188.59  173.51
   1   0  -1 5792.97  174.28
   1   0  -1 6203.71  175.33
  -1   0   1 5712.74  174.86
   1   0  -1 6094.95  175.92
  -1   0   1 5152.69  175.35
  -1   0   1 5182.47  175.16
  -1   0   1 5352.91  175.45
   1   0  -1 5804.99  174.45
  -1   0   1 5809.94  174.31
   1   0   0 1430.14   37.17
   1   0   0 1095.70   35.47
   1   0   0 1344.87   36.56
  -1   0   0 1172.63   36.62
  -1   0   0 1171.81   36.49
  -1   0   0 1232.69   36.62
  -1   0   0 1186.98   36.31
  -1   0   0 1030.38   35.40
   1   0   0 1221.37   36.51
   1   0   1 2441.00   71.83
   1   0   1 2087.70   74.03
  -1   0  -1 2545.23   71.32
  -1   0  -1 2412.15   73.19
  -1   0  -1 2309.23   72.61
   1   0   1 2075.78   72.44
   1   0   1 2098.73   71.76
  -1   0  -1 2562.13   73.76
   1   0   1 2371.57   71.79
   1   0   1 2831.11   76.72
  -1   0  -1 2481.20   73.39
  -1   0  -1 2536.94   73.55
  -1   0  -1 2428.41   73.62
  -1   0  -1 2286.86   72.87
  -1   0  -1 2644.66   73.67
   1   0   2   17.86    2.85
  -1   0  -2   16.68    1.56
  -1   0  -2   20.82    2.55
   1   0   2   19.99    3.46
   1   0   2   18.15    2.16
  -1   0  -2   17.62    2.35
  -1   0  -2   19.20    2.63
  -1   0  -2   17.34    0.94
  -1   0  -2   21.95    2.73
  -1   0  -2   21.05    2.59
  -1   0  -2   18.52    1.29
  -1   0  -2   19.16    1.63
  -1   0  -2   20.14    2.57
  -1   0  -2   20.65    2.42
   1   0   3 1020.24   37.97
  -1   0  -3 1024.68   38.85
   1   0   3 1251.93   34.71
  -1   0  -3 1011.83   34.69
  -1   0  -3 1093.92   39.61
   1   0   3 1187.78   35.41
  -1   0  -3 1140.05   37.44
  -1   0  -3 1014.30   40.69
  -1   0  -3 1165.54   39.93
  -1   0  -3 1075.67   35.01
   1   0   3 1103.36   34.96
   1   0   3 1128.53   45.89
  -1   0  -3 1051.28   39.53
   1   0   3 1065.10   35.21
  -1   0  -3 1091.33   39.39
  -1   0  -3 1054.94   38.82
  -1   0  -3 1095.57   36.63
   1   0   3 1184.86   41.53
  -1   0  -3  953.56   33.85
  -1   0  -4  449.97   21.95
   1   0   4  607.65   17.59
   1   0   4  575.49   18.03
  -1   0  -4  535.78   23.80
   1   0   4  518.31   24.71
   1   0   4  557.45   17.64
  -1   0  -4  484.75   18.06
   1   0   4  479.96   21.34
  -1   0  -4  529.99   23.05
  -1   0  -4  509.27   20.01
  -1   0  -4  465.52   22.67
  -1   0  -4  472.15   18.49
  -1   0  -4  510.96   16.79
   1   0   4  490.68   18.42
   1   0   4  483.94   17.21
   1   0   4  589.42   17.61
  -1   0  -4  439.19   23.80
  -1   0  -4  490.76   22.90
   1   0   4  464.13   28.29
  -1   0  -4  490.25   22.69
  -1   0  -4  456.17   16.78
  -1   0  -4  491.15   19.58
  -1   0  -4  484.37   22.08
   1   0   5  179.70    7.75
  -1   0  -5  204.42   13.10
  -1   0  -5  176.73    7.38
  -1   0  -5  152.73   13.37
  -1   0  -5  170.90    9.73
  -1   0  -5  163.81   11.79
   1   0   5  170.48   13.74
   1   0   5  179.31    8.99
  -1   0  -5  143.23    8.44
  -1   0  -5  181.18   12.90
   1   0   5  171.74   11.33
  -1   0  -5  165.29   12.45
   1   0   5  157.96   16.72
  -1   0  -5  175.98    8.49
  -1   0  -5  159.22   11.86
  -1   0  -5  164.93   12.21
   1   0   5  173.19    7.80
   1   0   5  149.12    7.32
  -1   0  -5  165.38   12.57
   1   0   5  167.88    7.65
  -1   0  -6  379.77   22.19
   1   0   6  447.40   15.88
   1   0   6  346.88   29.20
   1   0   6  401.64   25.32
   1   0   6  374.94   15.51
  -1   0  -6  388.38   17.49
  -1   0  -6  388.86   23.14
  -1   0  -6  364.74   24.59
  -1   0  -6  389.08   23.14
   1   0   6  388.64   15.61
  -1   0  -6  441.03   23.82
   1   0   6  383.02   15.96
   1   0   6  442.35   17.94
  -1   0  -6  421.79   16.95
   1   0   6  412.39   21.47
  -1   0  -6  399.24   22.15
  -1   0  -6  399.48   18.66
  -1   0  -6  420.73   23.23
  -1   0  -7  700.42   36.05
  -1   0  -7  654.19   38.02
  -1   0  -7  700.30   34.94
   1   0   7  730.39   39.39
  -1   0  -7  722.43   36.34
   1   0   7  729.88   33.70
  -1   0  -7  755.13   30.46
  -1   0  -7  690.03   34.50
  -1   0  -7  621.86   38.29
   1   0   7  702.37   26.31
  -1   0  -7  753.77   27.85
  -1   0  -7  731.89   28.89
  -1   0  -7  777.29   36.45
   1   0   7  683.27   26.30
   1   0   7  807.61   39.14
   1   0   7  583.30   26.29
   1   0   7  787.56   26.36
   1   0   7  814.16   29.52
  -1   0  -8  118.63   12.83
   1   0   8  107.67    6.12
   1   0   8  147.05   10.20
  -1   0  -8  122.48   13.73
  -1   0  -8  105.97    9.79
  -1   0  -8  124.40    8.73
  -1   0  -8  112.92    9.56
  -1   0  -8  118.18    7.68
   1   0   8  126.71   12.52
   1   0   8  103.00    7.52
  -1   0  -8  123.89   13.06
  -1   0  -8  115.11    9.95
  -1   0  -8  115.22    7.93
  -1   0  -8  112.28    9.26
   1   0   8  100.78   13.99
  -1   0  -8  118.58    9.33
   1   0   8  101.69    7.57
  -1   0  -8  104.68   14.66
   1   0   8   96.91    8.07
   1   0   8  115.43    7.50
  -1   0  -8  100.27   13.94
  -1   0  -8  123.98    7.96
  -1   0  -8  118.92   13.43
   1   0   8  117.86    7.98
   1   0   8  125.39   14.64
  -1   0  -8  114.76    9.89
  -1   0  -8  114.68   12.48
   1   0   9  776.20   31.14
  -1   0  -9  847.80   29.71
  -1   0  -9  836.14   41.43
   1   0   9  734.56   27.30
  -1   0  -9  811.55   30.36
   1   0   9  971.14   35.52
   1   0   9  836.90   29.98
  -1   0  -9  770.87   33.72
  -1   0  -9  806.27   30.16
   1   0   9  722.39   30.21
  -1   0  -9  767.35   33.18
   1   0   9  675.75   31.86
  -1   0  -9  716.61   45.04
   1   0   9  817.44   28.39
  -1   0  -9  764.25   40.91
   1   0   9  842.18   40.44
  -1   0  -9  765.98   34.65
   1   0   9  825.96   30.57
   1   0   9  809.34   45.42
  -1   0  -9  679.49   45.02
   1   0   9  760.41   27.59
   1   0   9  791.39   31.20
  -1   0  -9  745.04   34.81
  -1   0  -9  811.12   35.38
  -1   0  -9  771.09   30.41
  -1   0  -9  809.54   43.29
   1   0   9  726.45   45.71
  -1   0  -9  804.04   41.14
  -1   0  -9  799.55   42.93
   1   0  10  287.22   12.65
  -1   0 -10  295.97   13.75
   1   0  10  253.40   11.98
   1   0  10  258.22   14.99
   1   0  10  273.89   15.11
  -1   0 -10  259.48   13.58
  -1   0 -10  294.61   21.97
  -1   0 -10  243.61   16.59
  -1   0 -10  252.06   16.07
  -1   0 -10  242.46   15.50
   1   0  10  254.60   14.34
   1   0  10  251.58   11.84
  -1   0 -10  270.75   13.97
   1   0  10  248.02   16.26
  -1   0 -10  258.86   17.51
  -1   0 -10  243.07   13.56
   1   0  11   70.85    5.27
  -1   0 -11   76.68    6.07
   1   0  11   62.06    4.89
   1   0  11   69.50    5.28
  -1   0 -11   68.24    5.85
   1   0  11   63.30    6.29
  -1   0 -11   60.50    6.75
  -1   0 -11   63.96    7.10
   1   0  11   71.42    7.27
  -1   0 -11   64.82    8.00
  -1   0 -11   69.40    6.06
  -1   0 -11   64.82    7.61
  -1   0 -11   67.31    6.01
   1   0  12  206.04    9.58
  -1   0 -12  207.20   10.46
  -1   0 -12  188.97   12.13
   1   0  12  199.54    9.44
  -1   0 -12  179.50   10.02
  -1   0 -12  179.93   12.56
  -1   0 -12  203.97   10.74
  -1   0 -12  193.77   11.98
   1   0  12  200.87   11.57
   1   0  12  202.01    9.83
  -1   0 -12  182.54   10.15
  -1   0 -13    0.46    0.35
  -1   0 -13    1.39    0.71
  -1   0 -13    2.00    0.66
  -1   0 -13    1.81    1.03
   1   0  13    0.77    0.47
  -1   0 -13    0.71    0.70
  -1   0 -13    0.91    0.57
  -1   0 -13   -0.05    0.22
   1   0  13    1.45    0.62
   1   0  13    0.70    0.60
  -1   0 -14   37.86    3.05
  -1   0 -14   40.23    3.19
   1   0  14   35.44    3.68
   1   0  14   42.57    3.17
  -1   0 -14   38.92    2.74
   1   1 -13    0.14    0.36
  -1  -1  13   -0.50    0.35
   1   1 -13   -0.22    0.55
   1   1 -13    0.66    0.44
   1   1 -13    0.66    0.50
  -1  -1  13   -1.16    0.62
   1   1 -13    0.38    0.47
   1   1 -13   -0.07    0.34
  -1  -1  13   -0.05    0.24
   1   1 -12    1.15    0.79
  -1  -1  12    1.75    1.08
  -1  -1  12    0.58    0.38
   1   1 -12    0.04    0.27
   1   1 -12   -0.74    0.48
   1   1 -12    1.89    0.87
   1   1 -12    0.65    0.79
   1   1 -12    0.23    1.01
  -1  -1  12    0.33    0.50
   1   1 -12   -0.07    0.87
   1   1 -11   43.57    6.05
   1   1 -11   46.80    6.34
   1   1 -11   50.43    4.69
  -1  -1  11   49.65    4.50
   1   1 -11   43.14    3.91
   1   1 -11   47.82    5.91
  -1  -1  11   59.93    4.90
  -1  -1  11   56.82    5.73
   1   1 -11   48.71    5.80
   1   1 -11   48.28    4.55
   1   1 -11   56.51    5.26
   1   1 -11   39.97    6.13
  -1  -1  11   51.71    6.33
   1   1 -10  301.40   13.88
   1   1 -10  289.55   13.77
   1   1 -10  292.58   17.68
  -1  -1  10  282.06   13.46
   1   1 -10  266.99   12.64
   1   1 -10  266.34   16.31
  -1  -1  10  268.43   16.21
   1   1 -10  308.00   13.93
   1   1 -10  255.81   16.94
  -1  -1  10  283.92   16.88
   1   1 -10  279.21   16.31
  -1  -1  10  289.84   15.47
   1   1 -10  269.39   17.64
   1   1 -10  296.23   14.58
  -1  -1  10  311.39   13.78
   1   1  -9   73.24    5.74
  -1  -1   9   74.35   12.35
   1   1  -9   64.94    6.24
  -1  -1   9   69.77    6.49
   1   1  -9   65.21    7.61
   1   1  -9   65.40    7.21
  -1  -1   9   77.46    5.71
   1   1  -9   74.95    7.50
   1   1  -9   76.71    5.75
   1   1  -9   66.55    7.50
   1   1  -9   61.60   11.10
   1   1  -9   66.62   10.25
   1   1  -9   72.40    7.63
  -1  -1   9   75.15    7.55
  -1  -1   9   70.57    9.19
  -1  -1   9   66.92    7.12
   1   1  -9   67.92    7.94
  -1  -1   9   75.44    8.27
  -1  -1   9   70.18   11.25
   1   1  -9   76.50   11.43
   1   1  -9   71.34    6.07
  -1  -1   9   74.42    5.54
   1   1  -9   57.85   11.36
   1   1  -9   70.07    7.35
   1   1  -9   59.74    9.21
   1   1  -9   76.69   10.28
   1   1  -8    9.03    2.76
   1   1  -8    7.99    2.96
   1   1  -8    8.39    2.12
  -1  -1   8   11.27    2.42
   1   1  -8    9.89    1.90
   1   1  -8   10.82    2.82
   1   1  -8   10.11    2.36
  -1  -1   8   12.25    2.07
   1   1  -8    7.11    2.30
   1   1  -8    7.51    3.06
  -1  -1   8    9.83    1.68
   1   1  -8   11.51    2.25
  -1  -1   8    8.96    4.18
   1   1  -8    9.51    3.76
   1   1  -8   11.28    3.67
   1   1  -8    7.58    2.25
  -1  -1   8   12.43    4.19
  -1  -1   8    6.74    2.06
   1   1  -8   12.29    2.92
  -1  -1   8   10.77    2.66
  -1  -1   8   11.09    2.80
   1   1  -8   11.44    4.37
   1   1  -8    8.08    3.47
  -1  -1   8    3.87    1.97
  -1  -1   8   12.26    3.06
   1   1  -8    9.32    2.50
   1   1  -7   67.06    8.63
   1   1  -7   62.11    5.46
   1   1  -7   55.20    5.68
  -1  -1   7   63.04    9.08
   1   1  -7   42.63    8.12
   1   1  -7   56.22    5.83
  -1  -1   7   58.19    6.35
   1   1  -7   61.22    5.23
  -1  -1   7   62.56    5.86
   1   1  -7   57.39    6.46
  -1  -1   7   53.51    6.69
  -1  -1   7   60.91    6.43
   1   1  -7   60.92    8.73
  -1  -1   7   59.93    5.21
   1   1  -7   64.13    8.91
   1   1  -7   58.84    9.71
  -1  -1   7   51.16    8.79
  -1  -1   7   65.90    5.92
   1   1  -7   60.76    8.21
   1   1  -6    6.54    2.40
   1   1  -6    6.20    1.53
  -1  -1   6    6.29    1.57
  -1  -1   6    5.74    3.05
  -1  -1   6    3.59    1.20
   1   1  -6    5.43    1.67
  -1  -1   6    7.07    1.65
   1   1  -6    5.60    2.67
   1   1  -6    5.07    2.62
   1   1  -6   10.30    2.54
  -1  -1   6    6.05    2.01
   1   1  -6    8.21    3.18
   1   1  -6    3.98    1.22
   1   1  -6    6.03    2.45
  -1  -1   6    6.07    1.50
  -1  -1   6    5.42    2.48
  -1  -1   6    5.32    1.62
   1   1  -6    5.12    2.03
   1   1  -6    3.42    1.18
  -1  -1   5  132.21    8.02
   1   1  -5  103.11    9.20
   1   1  -5  106.78    9.73
   1   1  -5  111.39    6.81
  -1  -1   5   95.31    5.87
   1   1  -5   86.57   10.13
   1   1  -5  104.37    9.59
  -1  -1   5  108.29    6.67
   1   1  -5  119.69    7.37
   1   1  -5  102.32    7.81
   1   1  -5   99.52    6.55
  -1  -1   5  113.03    6.89
  -1  -1   5   95.50    7.09
   1   1  -5  106.39    7.78
   1   1  -5   93.28   10.14
  -1  -1   5  111.55    8.14
  -1  -1   5  117.42   10.24
  -1  -1   5  102.65   10.14
   1   1  -5  111.87    9.28
   1   1  -4  559.10   24.65
   1   1  -4  565.64   23.02
   1   1  -4  630.21   21.70
  -1  -1   4  539.83   22.25
   1   1  -4  543.70   21.96
   1   1  -4  534.41   20.66
  -1  -1   4  545.42   20.04
  -1  -1   4  553.17   21.73
   1   1  -4  601.50   24.82
   1   1  -4  613.67   21.81
  -1  -1   4  581.87   20.86
   1   1  -4  619.82   25.95
  -1  -1   4  615.09   21.33
   1   1  -4  555.29   20.66
   1   1  -4  595.91   25.68
  -1  -1   4  644.74   22.29
   1   1  -4  563.42   27.02
  -1  -1   4  517.44   29.77
  -1  -1   4  573.51   26.33
   1   1  -4  600.24   25.34
  -1  -1   4  574.88   20.53
  -1  -1   3 1056.40   33.64
  -1  -1   3 1039.31   33.01
  -1  -1   3  906.61   33.34
  -1  -1   3 1068.16   31.69
  -1  -1   3 1008.87   32.16
   1   1  -3 1020.04   33.47
   1   1  -3 1016.93   36.11
   1   1  -3 1042.92   36.47
  -1  -1   3 1009.73   32.68
   1   1  -3  993.38   35.64
   1   1  -3  948.50   37.34
  -1  -1   3  943.79   33.41
   1   1  -3  984.63   36.16
  -1  -1   3  858.88   39.61
  -1  -1   3  920.72   32.73
  -1  -1   3  966.40   36.68
   1   1  -3  985.20   32.86
   1   1  -3  993.85   32.59
   1   1  -3 1026.06   35.56
   1   1  -2 2450.92   78.07
   1   1  -2 2525.67   78.14
  -1  -1   2 2640.02   76.19
  -1  -1   2 2220.33   76.30
   1   1  -2 2579.17   78.52
  -1  -1   2 2706.79   77.08
   1   1  -2 2351.72   79.51
  -1  -1   2 3105.40   76.62
  -1  -1   2 2459.97   79.01
   1   1  -2 2672.07   78.90
  -1  -1   2 2294.94   81.76
   1   1  -2 2537.92   78.71
  -1  -1   2 2443.42   77.03
   1   1  -2 2171.77   75.38
   1   1  -1 8652.18  273.06
  -1  -1   1 9999.00  273.54
  -1  -1   1 8917.49  273.52
   1   1  -1 8754.62  273.28
  -1  -1   1 8163.65  274.77
   1   1  -1 8957.76  273.32
  -1  -1   1 8497.95  272.99
   1   1  -1 9326.64  273.39
   1   1  -1 8615.38  273.77
  -1  -1   1 8879.67  274.21
   1   1  -1 9153.63  273.23
   1   1  -1 9076.98  273.08
  -1  -1   0 1449.62   42.42
   1   1   0 1434.87   41.21
  -1  -1  -1 7275.68  211.28
   1   1   1 6368.34  209.54
   1   1   1 7224.41  210.56
   1   1   1 8179.53  211.87
  -1  -1  -1 8237.62  211.65
  -1  -1  -1 7865.70  213.25
   1   1   1 6142.92  210.06
  -1  -1  -1 6951.55  212.04
  -1  -1  -1 7560.77  211.62
  -1  -1  -1 8336.45  212.27
  -1  -1  -1 6585.35  212.08
  -1  -1  -1 7434.34  211.62
   1   1   1 6657.05  210.29
   1   1   1 8009.38  212.19
   1   1   1 6965.45  212.10
  -1  -1  -1 7427.97  211.25
  -1  -1  -2 3015.78  108.12
  -1  -1  -2 3646.29  106.67
  -1  -1  -2 3116.87  109.29
  -1  -1  -2 3519.16  106.98
   1   1   2 3159.16  109.86
  -1  -1  -2 3068.53  108.57
   1   1   2 3277.15  108.16
  -1  -1  -2 2892.06  109.32
   1   1   2 4075.30  105.62
  -1  -1  -2 3174.13  106.15
  -1  -1  -2 3142.09  108.64
  -1  -1  -2 3144.68  108.16
  -1  -1  -3  188.24   10.68
  -1  -1  -3  231.20    8.21
  -1  -1  -3  186.52   11.11
   1   1   3  254.67    7.84
   1   1   3  182.33   10.33
  -1  -1  -3  206.62    8.27
  -1  -1  -3  188.46   11.01
  -1  -1  -3  197.72    9.20
  -1  -1  -3  205.40   11.94
  -1  -1  -3  187.66   11.02
  -1  -1  -3  178.26   11.67
  -1  -1  -3  181.92    8.32
   1   1   3  229.87    8.34
   1   1   3  175.77   11.69
  -1  -1  -3  187.47   10.60
   1   1   3  227.14    7.93
  -1  -1  -4  431.75   20.35
  -1  -1  -4  500.78   22.33
   1   1   4  501.83   22.74
  -1  -1  -4  463.08   21.36
   1   1   4  447.18   19.85
   1   1   4  434.72   22.55
  -1  -1  -4  427.23   20.60
  -1  -1  -4  411.09   22.04
  -1  -1  -4  451.19   16.77
  -1  -1  -4  461.03   17.83
   1   1   4  452.55   15.61
  -1  -1  -4  444.89   20.38
   1   1   4  412.14   15.24
   1   1   4  567.77   16.74
  -1  -1  -4  399.79   22.25
  -1  -1  -4  455.63   21.20
   1   1   4  468.54   15.58
  -1  -1  -4  441.37   15.11
  -1  -1  -4  458.62   18.43
  -1  -1  -4  453.51   15.85
  -1  -1  -5  339.08   12.89
   1   1   5  351.47   17.76
  -1  -1  -5  335.17   18.28
   1   1   5  324.36   12.70
  -1  -1  -5  322.64   18.28
   1   1   5  372.63   13.39
  -1  -1  -5  362.83   14.33
   1   1   5  302.31   12.59
  -1  -1  -5  334.17   18.99
  -1  -1  -5  332.57   14.99
  -1  -1  -5  390.48   20.00
   1   1   5  311.21   12.54
  -1  -1  -5  353.44   18.30
  -1  -1  -5  318.79   20.36
  -1  -1  -5  349.21   19.38
  -1  -1  -5  299.53   20.28
   1   1   5  374.98   20.78
  -1  -1  -5  353.91   15.88
   1   1   5  317.58   20.41
  -1  -1  -6  253.60   16.81
  -1  -1  -6  255.40   17.52
   1   1   6  260.89   16.15
  -1  -1  -6  271.51   12.73
   1   1   6  266.41   13.09
   1   1   6  251.36   11.24
  -1  -1  -6  268.45   13.73
   1   1   6  246.57   11.08
   1   1   6  281.53   11.67
  -1  -1  -6  274.47   17.73
  -1  -1  -6  242.50   18.74
  -1  -1  -6  251.64   17.45
  -1  -1  -6  279.21   11.42
  -1  -1  -6  232.32   18.96
  -1  -1  -6  260.42   16.98
   1   1   6  271.26   18.94
  -1  -1  -6  270.34   14.39
   1   1   6  251.00   11.52
   1   1   6  236.54   18.87
  -1  -1  -6  260.70   16.74
  -1  -1  -7   46.39    7.21
   1   1   7   42.24    6.37
   1   1   7   45.54    4.09
  -1  -1  -7   46.63    7.04
  -1  -1  -7   48.88    7.36
   1   1   7   37.66    7.79
   1   1   7   44.30    4.15
  -1  -1  -7   50.58    7.81
  -1  -1  -7   44.44    7.38
   1   1   7   40.04    4.77
  -1  -1  -7   46.91    5.47
   1   1   7   35.17    3.98
   1   1   7   41.97    3.99
  -1  -1  -7   42.25    8.04
  -1  -1  -7   46.61    8.73
  -1  -1  -7   39.76    4.47
   1   1   7   44.66    7.91
  -1  -1  -7   41.08    5.33
  -1  -1  -7   41.84    6.62
  -1  -1  -8   38.38    7.12
  -1  -1  -8   36.60    5.36
  -1  -1  -8   41.67    4.36
   1   1   8   34.76    3.11
  -1  -1  -8   38.56    7.04
  -1  -1  -8   37.24    4.71
  -1  -1  -8   34.30    5.33
  -1  -1  -8   33.15    3.85
   1   1   8   33.12    4.07
   1   1   8   31.10    3.85
  -1  -1  -8   36.75    5.08
   1   1   8   33.31    6.32
  -1  -1  -8   32.31    5.08
   1   1   8   40.14    4.29
  -1  -1  -8   38.13    5.11
  -1  -1  -8   37.30    5.19
   1   1   8   37.11    4.16
   1   1   8   34.83    4.54
  -1  -1  -8   40.02    4.06
  -1  -1  -8   44.48    4.46
  -1  -1  -8   37.08    8.07
  -1  -1  -8   34.38    6.89
  -1  -1  -8   35.32    8.23
  -1  -1  -8   40.45    7.49
   1   1   8   42.64    5.42
   1   1   8   36.98    7.86
   1   1   8   34.62    8.14
  -1  -1  -8   40.66    7.12
   1   1   9  331.55   14.30
  -1  -1  -9  314.01   23.10
  -1  -1  -9  315.73   19.33
  -1  -1  -9  344.79   15.40
  -1  -1  -9  325.45   24.62
   1   1   9  314.59   13.30
  -1  -1  -9  306.01   17.47
  -1  -1  -9  276.26   26.07
  -1  -1  -9  344.74   19.19
   1   1   9  315.12   15.91
   1   1   9  290.08   15.60
   1   1   9  280.57   21.50
   1   1   9  303.35   17.27
  -1  -1  -9  330.19   14.35
  -1  -1  -9  324.85   15.34
  -1  -1  -9  307.57   16.92
   1   1   9  298.64   15.91
  -1  -1  -9  306.20   18.67
   1   1   9  304.66   13.47
   1   1   9  326.57   13.58
  -1  -1  -9  322.29   18.19
  -1  -1  -9  316.09   15.53
  -1  -1  -9  302.13   26.15
   1   1   9  358.95   19.01
  -1  -1  -9  326.71   23.33
   1   1   9  345.07   27.25
  -1  -1  -9  312.06   24.10
  -1  -1  -9  335.84   15.82
   1   1   9  272.53   26.03
   1   1  10    6.89    1.61
  -1  -1 -10    5.06    1.53
   1   1  10    5.76    1.40
   1   1  10    5.27    1.78
  -1  -1 -10    7.04    1.82
  -1  -1 -10    7.25    1.81
   1   1  10    6.47    2.09
   1   1  10    6.06    1.37
  -1  -1 -10    8.14    1.77
  -1  -1 -10    7.92    2.11
  -1  -1 -10    7.23    2.29
   1   1  10    4.15    1.55
   1   1  10    6.51    1.53
  -1  -1 -10    5.04    2.20
  -1  -1 -10    5.84    2.00
  -1  -1 -10    5.67    2.45
   1   1  11   51.61    4.59
  -1  -1 -11   54.10    5.10
   1   1  11   49.00    4.16
  -1  -1 -11   48.17    4.88
  -1  -1 -11   50.60    5.04
   1   1  11   52.25    5.68
  -1  -1 -11   47.60    6.33
  -1  -1 -11   52.37    5.24
  -1  -1 -11   46.09    5.91
  -1  -1 -11   49.22    5.95
   1   1  11   51.42    6.03
   1   1  11   48.37    4.39
  -1  -1 -11   47.28    6.74
   1   1  12   22.69    2.74
  -1  -1 -12   24.98    3.08
  -1  -1 -12   23.20    3.65
   1   1  12   19.66    2.33
   1   1  12   22.14    3.33
  -1  -1 -12   23.26    2.91
  -1  -1 -12   22.72    3.65
  -1  -1 -12   21.16    3.83
  -1  -1 -12   23.37    3.14
   1   1  12   23.26    2.80
  -1  -1 -12   16.69    2.51
  -1  -1 -13   65.24    5.99
  -1  -1 -13   74.91    5.02
  -1  -1 -13   70.93    5.60
  -1  -1 -13   70.42    4.56
  -1  -1 -13   72.06    5.79
   1   1  13   75.11    5.67
  -1  -1 -13   71.72    5.05
   1   1  13   81.43    4.96
   1   1  13   58.30    6.44
  -1  -1 -13   68.12    4.51
   1   1  13   76.73    4.61
  -1  -1 -14   27.10    2.52
   1   1  14   22.44    2.85
  -1  -1 -14   29.30    2.57
   1   1  14   27.59    2.51
  -1  -1 -14   25.75    2.18
   1   1  14   30.15    2.22
   1   2 -13  111.42    5.90
  -1  -2  13   97.82    5.36
   1   2 -13  101.45    5.27
   1   2 -13   96.97    5.96
   1   2 -13   86.94    6.17
  -1  -2  13   83.60    6.69
   1   2 -13  100.62    6.15
  -1  -2  13  121.95    6.29
   1   2 -13  108.75    6.07
  -1  -2  12   28.28    2.86
   1   2 -12   23.87    3.35
   1   2 -12   27.01    3.03
  -1  -2  12   24.69    2.79
   1   2 -12   35.92    3.33
   1   2 -12   24.37    2.76
  -1  -2  12   30.90    3.59
  -1  -2  12   27.41    2.57
   1   2 -12   27.41    3.25
   1   2 -12   24.98    3.50
   1   2 -12   23.56    3.63
   1   2 -11   27.83    4.84
   1   2 -11   34.81    3.65
   1   2 -11   33.97    3.76
  -1  -2  11   34.32    3.66
   1   2 -11   33.18    3.19
   1   2 -11   27.85    4.54
   1   2 -11   31.73    3.60
  -1  -2  11   32.27    3.26
  -1  -2  11   35.64    4.34
   1   2 -11   22.78    4.46
   1   2 -11   33.88    4.02
  -1  -2  11   38.82    3.69
   1   2 -11   31.04    4.45
   1   2 -11   28.66    4.33
  -1  -2  11   33.66    4.98
  -1  -2  10   18.62    2.58
   1   2 -10   17.45    2.75
  -1  -2  10   20.28    3.84
  -1  -2  10   18.22    2.68
   1   2 -10   19.00    3.76
   1   2 -10   16.27    2.80
   1   2 -10   19.64    2.86
  -1  -2  10   17.37    3.23
   1   2 -10   13.91    3.44
   1   2 -10   17.84    3.49
  -1  -2  10   18.60    3.67
   1   2 -10   22.97    4.46
  -1  -2  10   21.01    2.79
   1   2 -10   13.12    3.46
   1   2  -9   27.36    6.44
  -1  -2   9   25.09    3.05
  -1  -2   9   27.25    3.93
   1   2  -9   24.07    4.16
   1   2  -9   25.22    3.18
   1   2  -9   25.64    3.69
  -1  -2   9   28.24    5.70
   1   2  -9   27.83    4.51
   1   2  -9   27.85    4.86
   1   2  -9   27.85    5.99
  -1  -2   9   29.83    4.64
   1   2  -9   28.81    3.35
   1   2  -9   25.98    4.80
   1   2  -9   24.62    3.46
  -1  -2   9   23.92    6.86
   1   2  -9   25.03    4.37
   1   2  -9   23.51    4.20
   1   2  -9   22.58    4.43
  -1  -2   9   29.03    4.50
  -1  -2   9   29.04    5.20
   1   2  -9   24.36    6.75
   1   2  -9   24.62    6.07
  -1  -2   9   28.30    3.11
   1   2  -9   21.84    6.72
  -1  -2   9   29.13    3.35
   1   2  -9   17.27    5.04
   1   2  -9   27.36    3.55
  -1  -2   9   25.23    6.98
  -1  -2   9   25.96    4.78
   1   2  -9   23.15    4.26
  -1  -2   8   45.62    4.15
   1   2  -8   43.56    4.82
  -1  -2   8   47.55    4.11
  -1  -2   8   42.80    6.61
   1   2  -8   43.10    5.88
   1   2  -8   44.85    5.55
   1   2  -8   47.55    5.67
   1   2  -8   41.40    3.99
  -1  -2   8   54.21    5.90
  -1  -2   8   57.05    6.01
   1   2  -8   43.81    5.64
   1   2  -8   48.92    5.90
  -1  -2   8   46.03    4.78
  -1  -2   8   49.47    6.42
   1   2  -8   49.29    4.69
   1   2  -8   44.25    8.78
  -1  -2   8   50.00    6.28
   1   2  -8   43.57    7.93
  -1  -2   8   50.88    4.10
   1   2  -8   48.29    9.59
   1   2  -8   44.88    7.76
   1   2  -8   47.49    6.20
   1   2  -8   50.04    6.46
   1   2  -8   39.75    7.63
  -1  -2   8   48.92    8.88
   1   2  -8   43.43    5.56
  -1  -2   8   44.97    9.04
   1   2  -8   46.04    7.62
  -1  -2   7  113.17   10.36
   1   2  -7  117.07   11.82
   1   2  -7  116.12    9.12
   1   2  -7  112.71    8.00
  -1  -2   7  116.72   13.39
   1   2  -7  110.42    8.65
  -1  -2   7  114.21    9.23
   1   2  -7  117.78   12.35
   1   2  -7  111.77    9.45
  -1  -2   7  127.49    8.60
  -1  -2   7  130.84    9.76
   1   2  -7  118.37    7.95
  -1  -2   7  131.76    8.93
   1   2  -7  131.20   11.29
   1   2  -7  104.06   13.01
   1   2  -7   98.27   12.98
   1   2  -7  123.69   11.90
   1   2  -7  110.32   12.05
  -1  -2   7  144.14   14.07
   1   2  -7  101.97    8.29
   1   2  -6   36.26    5.85
   1   2  -6   37.11    4.61
   1   2  -6   30.57    3.83
  -1  -2   6   34.53    4.38
   1   2  -6   34.79    4.22
  -1  -2   6   33.72    4.86
  -1  -2   6   31.77    8.25
  -1  -2   6   37.03    3.90
  -1  -2   6   37.80    4.14
   1   2  -6   36.07    5.63
   1   2  -6   37.39    4.94
   1   2  -6   37.30    5.25
   1   2  -6   32.98    6.56
   1   2  -6   42.97    6.73
  -1  -2   6   35.05    4.48
   1   2  -6   40.75    6.31
   1   2  -6   37.53    4.11
  -1  -2   6   39.06    6.95
   1   2  -6   28.74    5.54
   1   2  -5 3024.33  105.92
   1   2  -5 3428.51  101.79
   1   2  -5 3206.02  106.17
  -1  -2   5 3340.29  103.60
  -1  -2   5 3581.38  102.49
  -1  -2   5 3344.93  100.57
  -1  -2   5 3198.84   99.87
  -1  -2   5 2940.04  100.90
  -1  -2   5 3109.59  117.25
   1   2  -5 3229.24  103.50
   1   2  -5 3121.23  103.51
   1   2  -5 3285.54  107.14
   1   2  -5 2928.13  109.47
   1   2  -5 3251.04  107.68
   1   2  -5 3096.31  107.26
  -1  -2   5 3401.28  110.09
   1   2  -5 3219.40   99.91
   1   2  -5 2930.30  100.11
   1   2  -4  711.74   29.89
   1   2  -4  705.44   26.31
   1   2  -4  722.63   26.17
  -1  -2   4  742.81   25.72
  -1  -2   4  752.57   26.19
   1   2  -4  733.06   27.05
  -1  -2   4  673.43   26.52
  -1  -2   4  765.99   27.35
  -1  -2   4  812.75   25.01
   1   2  -4  771.86   30.80
   1   2  -4  700.33   28.14
  -1  -2   4  782.39   37.68
  -1  -2   4  817.07   32.64
   1   2  -4  782.53   31.35
   1   2  -4  703.07   32.42
  -1  -2   4  677.42   27.57
   1   2  -4  756.94   30.18
   1   2  -4  732.66   30.87
  -1  -2   4  770.65   26.07
   1   2  -3 1008.14   37.47
  -1  -2   3 1216.98   40.08
  -1  -2   3 1033.69   34.15
  -1  -2   3 1045.54   34.50
  -1  -2   3  984.76   35.52
   1   2  -3 1054.60   37.52
  -1  -2   3 1162.46   33.43
   1   2  -3  980.43   35.28
  -1  -2   3 1074.78   35.20
   1   2  -3  916.63   36.13
  -1  -2   3  968.53   34.86
   1   2  -3 1000.31   39.49
   1   2  -3 1022.78   38.18
   1   2  -3 1088.08   38.54
  -1  -2   3 1075.10   35.42
  -1  -2   3 1065.91   43.61
   1   2  -3 1102.76   38.22
   1   2  -3 1077.23   35.01
   1   2  -2  331.62   14.07
  -1  -2   2  350.65   13.11
  -1  -2   2  330.87   11.92
   1   2  -2  296.62   11.41
   1   2  -2  350.17   14.25
  -1  -2   2  293.18   12.04
   1   2  -2  338.24   13.79
  -1  -2   2  308.42   12.33
  -1  -2   2  243.96   13.69
   1   2  -2  341.25   14.06
  -1  -2   2  345.75   17.00
   1   2  -2  298.04   10.30
   1   2  -2  357.20   14.04
   1   2  -2  322.08   13.58
   1   2  -2  329.53   13.46
   1   2  -1   56.48    3.69
  -1  -2   1   71.13    3.78
   1   2  -1   58.37    3.78
  -1  -2   1   47.67    3.87
  -1  -2   1   56.45    3.42
  -1  -2   1   45.11    3.18
   1   2  -1   58.49    3.88
  -1  -2   1   48.98    3.10
   1   2  -1   55.04    3.67
  -1  -2   1   60.81    4.72
   1   2  -1   41.81    3.18
   1   2  -1   54.06    2.80
   1   2  -1   52.20    3.48
   1   2  -1   54.27    3.77
  -1  -2   1   61.30    4.12
  -1  -2   0 2542.03   72.77
  -1  -2   0 2642.65   74.51
  -1  -2   0 2741.98   73.70
   1   2   0 2431.71   73.24
   1   2   0 2322.23   72.78
   1   2   0 2322.75   73.28
  -1  -2   0 2346.12   72.82
   1   2   0 2320.90   73.07
  -1  -2   0 2211.93   72.87
   1   2   0 2078.79   72.47
   1   2   0 2223.51   72.13
  -1  -2  -1 6278.51  180.81
  -1  -2  -1 6452.71  181.52
   1   2   1 6195.51  179.77
   1   2   1 6205.10  181.51
  -1  -2  -1 6070.09  181.98
  -1  -2  -1 6504.88  181.01
   1   2   1 5002.64  181.50
   1   2   1 6416.19  180.01
   1   2   1 5888.50  178.94
   1   2   1 5403.78  179.33
   1   2   1 5290.57  181.35
  -1  -2  -1 6263.66  181.77
  -1  -2  -1 7185.53  182.24
  -1  -2  -1 6197.67  181.10
   1   2   1 5430.94  181.74
  -1  -2  -1 6040.53  180.70
   1   2   1 5744.67  179.20
  -1  -2  -1 6472.97  183.17
  -1  -2  -2  171.92    8.77
   1   2   2  163.11    6.02
  -1  -2  -2  189.94    8.21
  -1  -2  -2  270.97    8.53
  -1  -2  -2  162.15    9.79
   1   2   2  180.90    6.77
  -1  -2  -2  209.12    9.45
  -1  -2  -2  201.61    7.70
  -1  -2  -2  180.70    9.23
   1   2   2  221.25    6.44
   1   2   2  203.12    9.57
  -1  -2  -2  170.77    9.72
   1   2   2  222.42    7.68
  -1  -2  -2  198.18   10.27
   1   2   2  180.85    9.95
  -1  -2  -2  219.38    8.82
   1   2   2  159.47    9.93
  -1  -2  -2  179.45    8.86
  -1  -2  -3 1543.82   48.81
  -1  -2  -3 1496.40   52.29
  -1  -2  -3 1564.48   53.25
  -1  -2  -3 1418.90   53.39
   1   2   3 1684.23   52.40
  -1  -2  -3 1631.82   51.04
  -1  -2  -3 1925.75   49.99
  -1  -2  -3 1580.46   47.84
  -1  -2  -3 1501.56   49.02
   1   2   3 1362.74   54.04
   1   2   3 1537.76   47.04
  -1  -2  -3 1469.53   51.57
  -1  -2  -3 1490.89   52.48
   1   2   3 1442.13   47.96
  -1  -2  -3 1319.77   53.49
  -1  -2  -3 1468.16   51.47
   1   2   3 1555.09   54.09
  -1  -2  -3 1580.90   50.74
  -1  -2  -4  463.20   21.29
  -1  -2  -4  471.85   17.72
   1   2   4  466.56   24.31
  -1  -2  -4  446.26   21.98
  -1  -2  -4  422.62   23.40
  -1  -2  -4  485.79   18.46
   1   2   4  491.13   21.66
  -1  -2  -4  494.83   16.61
  -1  -2  -4  492.38   21.57
   1   2   4  464.63   16.58
   1   2   4  547.83   17.66
  -1  -2  -4  515.45   20.08
   1   2   4  438.86   16.45
  -1  -2  -4  498.51   22.56
  -1  -2  -4  460.23   23.46
  -1  -2  -4  484.64   22.22
  -1  -2  -4  495.64   20.01
  -1  -2  -4  595.05   18.38
   1   2   4  508.73   24.06
  -1  -2  -5 1655.87   51.37
   1   2   5 1694.42   61.36
  -1  -2  -5 1556.69   60.71
  -1  -2  -5 1728.24   54.74
  -1  -2  -5 1455.30   60.69
   1   2   5 1505.73   61.49
   1   2   5 1323.10   49.89
  -1  -2  -5 1464.86   57.44
  -1  -2  -5 1699.49   54.81
   1   2   5 1709.32   57.57
  -1  -2  -5 1663.21   52.48
  -1  -2  -5 1623.70   58.52
   1   2   5 1525.61   50.04
  -1  -2  -5 1689.74   59.36
  -1  -2  -5 1641.91   57.55
   1   2   5 1755.20   51.20
  -1  -2  -5 1595.17   57.31
  -1  -2  -6 1334.86   42.34
  -1  -2  -6 1270.47   51.19
  -1  -2  -6 1284.59   45.96
   1   2   6 1182.99   41.15
   1   2   6 1306.72   49.39
   1   2   6 1095.98   41.45
  -1  -2  -6 1279.07   43.60
  -1  -2  -6 1239.39   49.16
  -1  -2  -6 1241.32   53.40
  -1  -2  -6 1325.48   45.87
  -1  -2  -6 1228.80   49.15
   1   2   6 1342.78   42.12
  -1  -2  -6 1114.47   52.82
  -1  -2  -6 1131.76   48.67
  -1  -2  -6 1272.01   50.77
   1   2   6 1310.08   41.24
   1   2   6 1313.35   53.78
   1   2   6 1136.19   53.50
  -1  -2  -7   17.62    4.33
  -1  -2  -7   23.31    3.09
   1   2   7   18.50    2.91
   1   2   7   21.13    2.89
  -1  -2  -7   17.38    4.57
  -1  -2  -7   20.32    3.23
  -1  -2  -7   18.89    3.66
   1   2   7   19.02    2.74
  -1  -2  -7   19.27    4.58
  -1  -2  -7   15.57    4.82
  -1  -2  -7   21.71    5.11
  -1  -2  -7   22.13    5.72
  -1  -2  -7   20.97    3.89
   1   2   7   19.36    5.04
   1   2   7   15.89    5.31
   1   2   7   24.56    5.00
  -1  -2  -7   19.80    4.56
  -1  -2  -8  830.47   42.20
  -1  -2  -8  913.55   31.40
   1   2   8  762.96   45.54
   1   2   8  801.76   31.34
   1   2   8  877.91   34.78
  -1  -2  -8  754.07   44.59
  -1  -2  -8  842.80   30.93
   1   2   8  855.50   40.26
  -1  -2  -8  847.97   31.34
  -1  -2  -8  817.77   40.24
  -1  -2  -8  823.47   34.05
  -1  -2  -8  834.15   33.68
  -1  -2  -8  818.43   40.02
  -1  -2  -8  893.18   36.37
   1   2   8  867.39   29.92
  -1  -2  -8  844.07   40.65
  -1  -2  -8  831.42   35.18
   1   2   8  755.41   31.15
  -1  -2  -8  830.97   33.39
  -1  -2  -8  797.91   44.32
  -1  -2  -8  883.09   31.72
  -1  -2  -8  891.59   30.27
   1   2   8  785.71   28.63
  -1  -2  -8  783.53   40.91
   1   2   8  881.03   45.79
  -1  -2  -8  853.68   36.09
   1   2   8  757.66   31.08
   1   2   9  780.74   28.49
  -1  -2  -9  772.50   41.32
  -1  -2  -9  771.40   39.75
  -1  -2  -9  823.47   29.93
  -1  -2  -9  757.40   32.26
  -1  -2  -9  784.52   29.47
  -1  -2  -9  749.66   32.17
   1   2   9  716.93   30.12
   1   2   9  867.32   41.16
  -1  -2  -9  717.07   33.38
  -1  -2  -9  803.65   28.62
   1   2   9  787.02   31.02
   1   2   9  787.22   27.81
  -1  -2  -9  749.26   34.69
  -1  -2  -9  736.12   32.48
   1   2   9  753.75   30.87
   1   2   9  722.11   27.34
  -1  -2  -9  728.76   43.58
  -1  -2  -9  769.80   41.75
  -1  -2  -9  702.65   44.65
   1   2   9  813.39   34.20
  -1  -2  -9  786.22   30.17
   1   2   9  799.88   45.44
  -1  -2  -9  767.89   34.83
  -1  -2  -9  759.66   29.60
   1   2   9  713.08   45.71
  -1  -2  -9  797.33   39.73
   1   2  10  227.93   11.60
  -1  -2 -10  244.18   11.67
   1   2  10  222.33   13.54
  -1  -2 -10  210.64   11.94
  -1  -2 -10  226.76   12.00
   1   2  10  203.32   12.68
  -1  -2 -10  238.86   16.49
  -1  -2 -10  216.24   15.05
  -1  -2 -10  216.29   14.26
  -1  -2 -10  213.71   13.90
  -1  -2 -10  242.84   12.59
   1   2  10  192.59   10.45
   1   2  10  226.19   13.82
  -1  -2 -10  229.97   12.72
   1   2  10  223.79   11.05
  -1  -2 -10  207.81   15.49
  -1  -2 -11    9.72    2.54
  -1  -2 -11    8.60    1.97
   1   2  11    8.96    2.31
   1   2  11    7.85    1.66
  -1  -2 -11    8.38    1.92
   1   2  11   10.39    2.00
   1   2  11   11.19    2.58
  -1  -2 -11    8.74    2.39
  -1  -2 -11    6.20    2.06
  -1  -2 -11    9.89    2.19
  -1  -2 -11   10.54    2.00
   1   2  11   10.71    1.99
  -1  -2 -11   10.07    3.05
  -1  -2 -11    7.37    1.73
  -1  -2 -12   28.22    3.87
  -1  -2 -12   27.51    4.22
  -1  -2 -12   23.29    2.81
   1   2  12   17.88    3.91
   1   2  12   23.91    3.49
   1   2  12   26.11    2.78
  -1  -2 -12   30.85    4.22
   1   2  12   26.87    3.09
  -1  -2 -12   24.28    3.17
  -1  -2 -12   27.48    3.29
   1   2  12   30.66    3.19
  -1  -2 -12   25.33    3.02
   1   2  13    6.89    1.29
   1   2  13    7.50    1.61
   1   2  13    5.62    1.17
  -1  -2 -13    4.93    1.23
  -1  -2 -13    6.19    1.49
  -1  -2 -13    7.22    1.41
  -1  -2 -13    6.75    1.59
   1   2  13    3.52    1.42
   1   3 -13   48.79    3.33
  -1  -3  13   44.22    3.06
   1   3 -13   39.84    2.68
  -1  -3  13   28.23    3.28
   1   3 -13   33.77    3.19
   1   3 -13   40.27    3.16
   1   3 -13   36.08    3.07
   1   3 -13   44.46    3.38
   1   3 -12   10.60    1.75
  -1  -3  12    9.06    1.46
  -1  -3  12   12.38    1.99
   1   3 -12   10.03    1.60
   1   3 -12   10.00    1.83
   1   3 -12    9.04    1.68
   1   3 -12    7.47    1.77
  -1  -3  12   11.24    1.74
   1   3 -12    9.22    2.13
   1   3 -12    9.18    1.90
  -1  -3  11    9.02    1.55
   1   3 -11   10.16    1.90
   1   3 -11    5.64    1.69
  -1  -3  11    8.57    1.67
  -1  -3  11   10.45    2.02
   1   3 -11    6.60    1.93
   1   3 -11    7.65    1.61
   1   3 -11    9.56    1.92
   1   3 -11    2.93    1.45
   1   3 -11    9.70    1.96
  -1  -3  11   10.64    1.84
   1   3 -11    7.13    1.59
  -1  -3  10   27.03    3.18
   1   3 -10   25.29    3.23
  -1  -3  10   26.03    3.24
   1   3 -10   25.91    4.45
   1   3 -10   27.18    4.71
   1   3 -10   27.98    4.29
   1   3 -10   26.81    4.65
  -1  -3  10   28.21    4.47
   1   3 -10   23.59    4.12
  -1  -3  10   29.46    4.70
   1   3 -10   26.17    3.56
   1   3 -10   27.33    3.40
  -1  -3  10   31.35    3.97
   1   3 -10   30.53    3.78
   1   3 -10   22.79    4.41
  -1  -3   9    3.55    1.53
  -1  -3   9    1.96    0.66
   1   3  -9    2.30    0.92
   1   3  -9    4.09    1.73
  -1  -3   9    2.57    0.86
   1   3  -9    2.46    1.41
   1   3  -9    2.69    1.11
  -1  -3   9    1.68    0.89
   1   3  -9    2.16    1.14
   1   3  -9    3.75    1.58
   1   3  -9    2.67    1.49
  -1  -3   9    1.97    0.96
  -1  -3   9    1.69    1.00
   1   3  -9    1.44    0.62
   1   3  -9    1.48    1.65
   1   3  -9    3.23    1.27
   1   3  -8   57.47    8.83
  -1  -3   8   69.07    5.34
   1   3  -8   69.06    6.21
   1   3  -8   60.82    5.01
  -1  -3   8   80.64    7.10
   1   3  -8   67.14    6.96
   1   3  -8   66.78    7.11
  -1  -3   8   61.56    7.33
   1   3  -8   67.27    7.33
   1   3  -8   62.01    7.22
  -1  -3   8   77.90    8.14
   1   3  -8   67.12    6.81
  -1  -3   8   65.93    6.76
   1   3  -8   62.84    7.36
   1   3  -8   65.00    8.68
   1   3  -8   49.93    9.68
   1   3  -8   68.40    5.72
   1   3  -8   49.75    9.46
   1   3  -8   64.34    9.77
   1   3  -8   69.51   10.11
  -1  -3   8   78.87   11.19
  -1  -3   8   65.85    4.99
   1   3  -8   60.50    6.70
   1   3  -8   68.32    5.62
  -1  -3   8   68.32   11.32
   1   3  -8   79.22    7.70
   1   3  -8   58.58    8.55
   1   3  -7   12.29    2.80
   1   3  -7    4.17    2.08
   1   3  -7    6.51    2.21
  -1  -3   7    8.14    3.95
  -1  -3   7    8.07    1.96
   1   3  -7   10.38    3.45
   1   3  -7    9.40    2.34
   1   3  -7   12.40    3.51
  -1  -3   7    8.18    2.25
  -1  -3   7    6.34    2.18
  -1  -3   7    9.57    2.25
   1   3  -7    8.40    3.77
   1   3  -7    7.46    2.74
   1   3  -7    6.82    1.96
   1   3  -7    5.62    2.56
  -1  -3   7    5.76    3.05
  -1  -3   7    7.31    2.18
   1   3  -7   10.62    3.55
   1   3  -7    8.45    2.35
   1   3  -6  617.24   35.40
   1   3  -6  736.33   27.99
  -1  -3   6  678.08   28.51
   1   3  -6  641.01   33.51
  -1  -3   6  815.24   32.12
  -1  -3   6  744.40   27.27
   1   3  -6  726.72   28.80
  -1  -3   6  734.92   27.72
   1   3  -6  652.05   32.41
   1   3  -6  700.15   30.21
   1   3  -6  678.31   31.48
   1   3  -6  681.38   34.01
  -1  -3   6  725.35   44.06
  -1  -3   6  818.56   30.28
   1   3  -6  854.87   30.30
   1   3  -6  655.03   33.20
   1   3  -6  687.76   26.62
  -1  -3   6  763.11   37.31
   1   3  -6  667.69   27.78
   1   3  -6  636.97   32.51
   1   3  -5  489.68   20.35
   1   3  -5  417.35   25.34
  -1  -3   5  481.60   18.64
  -1  -3   5  431.17   19.52
   1   3  -5  425.59   21.23
  -1  -3   5  475.81   19.07
   1   3  -5  437.86   22.03
  -1  -3   5  508.34   32.31
   1   3  -5  443.27   23.40
   1   3  -5  480.47   24.56
  -1  -3   5  536.13   21.09
   1   3  -5  423.33   23.59
   1   3  -5  557.39   21.33
   1   3  -5  472.48   23.98
  -1  -3   5  531.85   26.94
   1   3  -5  439.66   19.28
   1   3  -5  474.82   18.98
   1   3  -5  430.49   22.80
   1   3  -4 1359.28   51.63
  -1  -3   4 1511.10   61.60
  -1  -3   4 1645.05   55.84
   1   3  -4 1312.37   50.53
   1   3  -4 1353.95   51.25
  -1  -3   4 1430.43   47.16
   1   3  -4 1339.60   54.38
   1   3  -4 1384.91   48.56
  -1  -3   4 1298.45   47.49
   1   3  -4 1352.62   52.43
   1   3  -4 1410.18   52.68
   1   3  -4 1382.43   46.22
  -1  -3   4 1456.85   46.65
   1   3  -4 1664.13   49.66
   1   3  -4 1450.55   52.56
  -1  -3   4 1529.32   47.99
   1   3  -4 1436.98   48.02
   1   3  -4 1531.66   48.04
  -1  -3   4 1581.40   49.22
   1   3  -3   49.16    5.20
   1   3  -3   49.00    3.53
   1   3  -3   60.43    4.73
  -1  -3   3   55.44    3.88
   1   3  -3   62.45    3.85
  -1  -3   3   36.03    5.24
  -1  -3   3   51.69    3.53
   1   3  -3   53.60    4.50
  -1  -3   3   60.65    4.74
   1   3  -3   46.53    5.06
  -1  -3   3   43.62    3.78
   1   3  -3   47.67    5.32
  -1  -3   3   56.42    7.68
   1   3  -3   43.67    4.96
  -1  -3   3   57.55    4.61
   1   3  -3   47.65    5.43
   1   3  -3   52.39    5.45
   1   3  -3   46.84    4.95
   1   3  -3   58.87    4.53
   1   3  -2   53.55    4.82
   1   3  -2   61.73    3.51
   1   3  -2   53.96    3.67
  -1  -3   2   57.21    6.49
   1   3  -2   53.39    4.69
   1   3  -2   52.84    4.83
  -1  -3   2   60.88    4.63
  -1  -3   2   56.62    4.19
  -1  -3   2   50.62    3.41
   1   3  -2   53.71    5.28
  -1  -3   2   48.74    3.58
   1   3  -2   51.62    4.89
  -1  -3   2   41.86    4.93
   1   3  -2   52.73    5.01
   1   3  -2   57.33    5.02
   1   3  -2   52.47    4.06
   1   3  -2   54.74    3.59
   1   3  -1  102.32    5.86
   1   3  -1  122.49    6.05
   1   3  -1  136.30    5.93
   1   3  -1  112.41    7.07
  -1  -3   1  102.58    5.30
   1   3  -1  116.55    7.21
  -1  -3   1  116.66    7.68
  -1  -3   1  142.45    7.27
  -1  -3   1  146.94    8.83
   1   3  -1  153.89    6.63
   1   3  -1  113.07    5.20
  -1  -3   1  111.56    6.17
   1   3  -1  116.75    7.02
  -1  -3   1  137.75    7.20
   1   3  -1  123.93    7.17
   1   3  -1  111.85    6.67
  -1  -3   1  104.67    6.58
  -1  -3   0  591.14   21.12
   1   3   0  479.73   19.19
   1   3   0  717.90   20.65
  -1  -3   0  548.21   20.05
   1   3   0  543.36   21.07
  -1  -3   0  621.03   21.97
  -1  -3   0  578.89   20.61
   1   3   0  526.06   21.23
  -1  -3   0  726.37   23.02
  -1  -3   0  544.76   20.68
   1   3   0  569.51   19.36
  -1  -3   0  596.43   21.86
  -1  -3   0  591.80   21.12
   1   3   0  561.60   21.29
   1   3   0  544.19   20.58
  -1  -3  -1  113.10    5.99
   1   3   1   90.18    5.85
  -1  -3  -1   99.41    5.97
   1   3   1   84.11    4.50
  -1  -3  -1   97.80    5.59
   1   3   1  100.14    6.03
  -1  -3  -1   96.62    6.64
   1   3   1  123.48    6.05
  -1  -3  -1  114.36    6.79
   1   3   1   88.89    6.39
   1   3   1   94.43    6.38
  -1  -3  -1  113.52    6.92
   1   3   1   95.65    5.04
  -1  -3  -1  100.35    6.03
  -1  -3  -1   97.88    6.73
   1   3   1   86.55    6.32
   1   3   1   95.36    4.24
  -1  -3  -2 1442.01   45.26
  -1  -3  -2 1393.22   47.30
  -1  -3  -2 1410.65   44.55
   1   3   2 1305.20   42.27
  -1  -3  -2 1321.47   43.45
  -1  -3  -2 1359.07   47.07
  -1  -3  -2 1423.84   46.46
   1   3   2 1245.69   46.71
   1   3   2 1428.83   46.08
  -1  -3  -2 1427.06   47.02
   1   3   2 1364.62   42.32
   1   3   2 1264.20   47.32
  -1  -3  -2 1392.08   45.76
   1   3   2 1348.89   43.36
   1   3   2 1150.23   46.80
  -1  -3  -2 1404.08   45.12
  -1  -3  -3 4071.27  124.95
  -1  -3  -3 3956.47  122.65
  -1  -3  -3 4044.22  126.92
  -1  -3  -3 3998.59  121.44
   1   3   3 4236.21  126.00
   1   3   3 3957.46  120.66
   1   3   3 4049.12  121.78
  -1  -3  -3 4180.27  125.33
  -1  -3  -3 3957.03  127.44
   1   3   3 4179.79  121.05
   1   3   3 3782.20  128.50
  -1  -3  -3 3747.01  127.49
  -1  -3  -3 4015.07  125.73
  -1  -3  -3 3801.46  123.58
   1   3   3 3742.63  127.55
   1   3   3 3544.57  128.16
  -1  -3  -3 4014.69  124.80
  -1  -3  -4 1215.54   42.50
  -1  -3  -4 1178.99   43.01
  -1  -3  -4 1178.12   39.72
  -1  -3  -4 1141.66   44.60
   1   3   4 1079.30   45.85
   1   3   4 1242.32   44.10
  -1  -3  -4 1099.04   45.21
  -1  -3  -4 1165.70   38.24
  -1  -3  -4 1133.76   41.21
  -1  -3  -4 1149.57   43.87
   1   3   4 1130.37   37.23
  -1  -3  -4 1152.04   42.92
   1   3   4 1014.62   46.42
   1   3   4 1197.63   38.44
  -1  -3  -4 1051.87   45.61
   1   3   4 1274.69   39.04
  -1  -3  -4 1374.48   40.33
   1   3   4 1120.55   47.12
  -1  -3  -5  124.13   10.59
  -1  -3  -5  126.59   10.17
  -1  -3  -5  120.38    7.66
  -1  -3  -5  109.39   10.15
  -1  -3  -5  127.39   11.82
  -1  -3  -5  123.45    9.98
   1   3   5  132.00   10.62
  -1  -3  -5  116.60    7.86
  -1  -3  -5  128.20    6.69
   1   3   5  126.46    6.54
   1   3   5  118.64   11.71
  -1  -3  -5  135.12    9.60
   1   3   5  129.01   12.83
  -1  -3  -5  114.72   11.59
   1   3   5  121.25    7.06
   1   3   5  138.36    7.17
  -1  -3  -5  122.32    8.86
  -1  -3  -5  146.68    7.82
   1   3   5  111.34   12.00
  -1  -3  -6  117.52    7.89
   1   3   6  130.83    7.05
  -1  -3  -6  128.93   11.26
  -1  -3  -6  107.09   10.81
  -1  -3  -6  113.87    8.30
  -1  -3  -6  133.21   10.18
   1   3   6  128.83    7.22
  -1  -3  -6  116.74   12.86
   1   3   6  119.75    7.46
  -1  -3  -6  110.12   12.12
   1   3   6  108.90   12.78
  -1  -3  -6  118.73   11.27
   1   3   6  119.28   10.95
  -1  -3  -6  117.52    9.30
   1   3   6  114.23   12.56
   1   3   6  103.75   12.76
  -1  -3  -6  115.35   10.57
  -1  -3  -7   79.82    9.27
  -1  -3  -7   82.18    6.67
  -1  -3  -7   79.04    7.89
   1   3   7   77.31    9.38
  -1  -3  -7   60.72    8.58
  -1  -3  -7   80.44    7.13
  -1  -3  -7   82.06    8.40
   1   3   7   75.05    6.20
  -1  -3  -7   66.18    9.97
   1   3   7   63.52   10.75
  -1  -3  -7   62.79   10.05
  -1  -3  -7   69.00    9.18
   1   3   7   65.77   10.25
   1   3   7   71.01   11.21
  -1  -3  -7   75.15    9.16
   1   3   7   73.03    5.82
  -1  -3  -8  169.42   15.14
  -1  -3  -8  188.02   11.32
  -1  -3  -8  172.45   15.31
  -1  -3  -8  181.89    9.50
   1   3   8  173.54   15.66
  -1  -3  -8  168.49   11.43
   1   3   8  159.26   10.28
  -1  -3  -8  169.46    9.78
  -1  -3  -8  171.04   11.83
   1   3   8  158.82    8.45
  -1  -3  -8  154.76   12.04
   1   3   8  174.59    9.00
  -1  -3  -8  181.65   10.33
  -1  -3  -8  167.65   11.65
  -1  -3  -8  176.69    9.66
  -1  -3  -8  153.06   12.29
  -1  -3  -8  179.12   13.79
   1   3   8  169.77   12.21
   1   3   8  166.13   10.75
  -1  -3  -8  150.39   16.54
  -1  -3  -8  180.31   10.61
   1   3   8  156.71   18.16
  -1  -3  -8  152.56   17.32
  -1  -3  -8  131.39   13.81
  -1  -3  -8  170.47   15.99
   1   3   8  188.78   18.92
   1   3   8  179.97   10.60
  -1  -3  -8  175.83   10.14
   1   3   8  162.56    9.20
   1   3   8  164.99   18.78
   1   3   9   74.78    5.94
  -1  -3  -9   75.92    6.43
  -1  -3  -9   79.17    6.06
   1   3   9   73.31    5.60
  -1  -3  -9   76.02    5.78
  -1  -3  -9   73.19   10.24
  -1  -3  -9   67.91    5.83
  -1  -3  -9   73.77    7.33
  -1  -3  -9   66.00    7.34
   1   3   9   72.79    6.73
  -1  -3  -9   60.46    7.39
  -1  -3  -9   68.79    7.28
   1   3   9   73.77    5.43
  -1  -3  -9   74.20    8.99
   1   3   9   80.09    8.49
   1   3   9   71.00    7.11
  -1  -3  -9   80.46    6.82
  -1  -3  -9   69.60    6.08
  -1  -3  -9   68.16    8.11
   1   3  10   29.83    3.64
  -1  -3 -10   29.88    3.86
   1   3  10   28.79    3.38
   1   3  10   28.91    4.17
  -1  -3 -10   34.11    3.68
  -1  -3 -10   32.58    3.71
   1   3  10   27.77    3.32
  -1  -3 -10   25.98    4.75
  -1  -3 -10   27.26    4.41
  -1  -3 -10   35.25    6.23
   1   3  10   17.49    4.44
  -1  -3 -10   34.40    4.90
   1   3  10   25.73    4.36
  -1  -3 -10   27.17    3.86
  -1  -3 -10   28.34    3.66
  -1  -3 -10   27.72    3.56
  -1  -3 -10   28.88    5.15
   1   3  11   43.07    4.33
  -1  -3 -11   43.67    4.66
  -1  -3 -11   41.43    5.71
  -1  -3 -11   39.67    4.04
   1   3  11   37.66    4.73
   1   3  11   40.04    3.99
  -1  -3 -11   45.44    5.46
  -1  -3 -11   39.91    5.00
   1   3  11   29.60    5.44
  -1  -3 -11   37.86    4.43
   1   3  11   43.73    4.12
  -1  -3 -11   38.16    4.06
  -1  -3 -11   42.51    4.10
  -1  -3 -11   32.11    5.25
  -1  -3 -12   10.75    2.04
  -1  -3 -12   10.08    1.67
  -1  -3 -12   12.03    2.48
  -1  -3 -12    9.48    1.66
   1   3  12   11.44    2.17
   1   3  12   11.37    1.86
   1   3  12   12.34    2.07
  -1  -3 -12   12.04    2.44
  -1  -3 -12   11.12    2.07
   1   3  12   13.61    2.04
   1   3  12    9.68    2.52
  -1  -3 -13   31.92    2.94
   1   3  13   28.90    2.42
   1   3  13   33.67    3.22
   1   3  13   26.50    3.83
  -1  -3 -13   31.98    3.30
  -1  -3 -13   32.61    3.35
  -1  -3 -13   28.97    2.86
   1   3  13   30.93    2.73
   1   3  13   30.69    2.82
   1   4 -13    6.81    1.06
  -1  -4  13    6.03    0.95
   1   4 -13    6.09    1.12
  -1  -4  12   20.65    2.09
   1   4 -12   26.71    2.65
   1   4 -12   23.85    2.86
  -1  -4  12   25.51    2.56
   1   4 -12   21.88    2.23
   1   4 -12   23.04    2.56
   1   4 -12   19.71    2.86
   1   4 -12   25.16    2.99
   1   4 -12   23.76    2.72
  -1  -4  12   25.52    2.41
   1   4 -11    5.55    1.38
   1   4 -11    5.63    1.73
  -1  -4  11    8.72    1.72
   1   4 -11    6.10    1.93
   1   4 -11    5.28    1.56
   1   4 -11    7.21    1.48
  -1  -4  11    6.16    1.31
   1   4 -11    7.08    1.68
  -1  -4  11    7.17    1.51
   1   4 -11    6.03    1.56
   1   4 -11    5.41    1.43
  -1  -4  10   31.92    3.53
   1   4 -10   38.89    3.85
   1   4 -10   36.98    4.14
  -1  -4  10   39.68    3.94
   1   4 -10   34.73    3.77
   1   4 -10   33.81    5.06
  -1  -4  10   37.89    5.06
   1   4 -10   32.82    4.57
   1   4 -10   30.70    4.31
  -1  -4  10   39.35    5.35
   1   4 -10   36.05    4.11
   1   4 -10   27.92    4.65
   1   4 -10   36.35    5.43
  -1  -4   9   29.98    3.49
  -1  -4   9   22.94    3.96
   1   4  -9   21.45    4.11
   1   4  -9   20.01    4.17
   1   4  -9   24.94    3.16
   1   4  -9   22.26    3.93
   1   4  -9   20.73    4.15
   1   4  -9   23.95    4.08
  -1  -4   9   25.93    4.33
   1   4  -9   23.50    3.34
  -1  -4   9   29.05    5.20
  -1  -4   9   27.83    3.27
   1   4  -9   27.14    3.55
   1   4  -9   23.27    4.30
   1   4  -8    6.37    3.08
  -1  -4   8    9.11    3.19
  -1  -4   8    8.94    1.84
   1   4  -8    9.90    2.81
  -1  -4   8   10.08    1.92
  -1  -4   8    8.14    1.67
   1   4  -8   12.41    2.98
   1   4  -8    9.16    2.52
   1   4  -8    4.98    1.82
   1   4  -8    8.61    1.86
   1   4  -8    8.35    2.60
   1   4  -8    4.94    2.70
   1   4  -8   10.86    2.84
  -1  -4   8    6.38    2.14
  -1  -4   8    9.24    2.27
   1   4  -8   10.80    4.76
   1   4  -8    8.21    2.37
  -1  -4   8    7.68    1.50
   1   4  -8    9.35    3.61
   1   4  -8    1.09    1.47
  -1  -4   8   -1.51    4.34
   1   4  -8    8.53    2.64
   1   4  -8    8.49    2.06
  -1  -4   8    7.22    2.55
   1   4  -8   10.48    3.57
  -1  -4   8   12.02    3.09
   1   4  -8    7.69    2.48
   1   4  -7   68.36    6.90
  -1  -4   7   61.11    4.83
  -1  -4   7   60.40    6.09
   1   4  -7   53.98    8.08
   1   4  -7   58.57    5.74
  -1  -4   7   55.83    4.35
   1   4  -7   54.29    4.49
   1   4  -7   47.98    5.75
  -1  -4   7   59.84    5.12
  -1  -4   7   61.23    4.87
   1   4  -7   59.07    6.66
   1   4  -7   63.25    6.66
   1   4  -7   54.66    6.32
   1   4  -7   51.71    5.68
   1   4  -7   53.90    6.73
   1   4  -7   58.78    8.14
  -1  -4   7   54.59    6.51
  -1  -4   7   61.60    5.80
   1   4  -7   49.96    8.11
   1   4  -7   50.97    9.13
  -1  -4   7   48.55   11.50
  -1  -4   7   62.27    6.96
   1   4  -7   47.01    7.96
  -1  -4   7   57.12    4.87
   1   4  -7   45.05    7.65
   1   4  -7   56.25    6.16
   1   4  -7   51.98    4.75
  -1  -4   7   61.68    9.96
   1   4  -7   47.73    7.56
   1   4  -6   18.25    3.27
   1   4  -6   24.72    5.09
   1   4  -6   23.59    3.80
  -1  -4   6   19.69    5.29
  -1  -4   6   26.65    3.40
   1   4  -6   17.80    4.74
  -1  -4   6   26.82    3.64
   1   4  -6   19.04    3.88
   1   4  -6   20.44    4.50
   1   4  -6   24.08    4.91
  -1  -4   6   17.82    3.23
   1   4  -6   18.98    4.48
  -1  -4   6   22.08    7.64
  -1  -4   6   26.63    4.15
   1   4  -6   27.63    4.18
   1   4  -6   19.84    4.81
   1   4  -6   19.10    4.54
   1   4  -6   20.43    3.01
   1   4  -5  147.59   12.22
  -1  -4   5  173.53    9.53
  -1  -4   5  173.82    9.03
   1   4  -5  153.04   10.22
   1   4  -5  145.83   12.00
  -1  -4   5  155.50    9.84
   1   4  -5  141.66   13.66
   1   4  -5  166.85   13.40
  -1  -4   5  172.79   18.69
  -1  -4   5  185.43   11.10
   1   4  -5  155.86   13.07
   1   4  -5  155.99   12.61
  -1  -4   5  190.70   15.41
   1   4  -5  168.66   10.16
   1   4  -5  156.54    9.30
   1   4  -5  152.27   12.17
   1   4  -5  186.48   10.95
   1   4  -4   10.64    2.67
  -1  -4   4   17.13    2.39
  -1  -4   4   15.55    2.09
   1   4  -4   18.74    2.91
   1   4  -4   16.00    2.72
   1   4  -4   14.10    3.31
  -1  -4   4   11.81    2.15
  -1  -4   4   11.96    3.82
   1   4  -4   14.37    3.46
   1   4  -4   13.77    2.09
  -1  -4   4   13.49    4.46
  -1  -4   4   18.89    2.99
   1   4  -4   10.28    2.99
   1   4  -4   16.31    3.58
   1   4  -4   10.82    2.76
  -1  -4   4   14.85    2.50
   1   4  -4   13.25    3.16
   1   4  -4   14.72    2.58
   1   4  -3  272.13   15.45
   1   4  -3  270.39   16.01
   1   4  -3  358.20   13.73
  -1  -4   3  333.01   14.94
  -1  -4   3  306.69   11.92
  -1  -4   3  296.11   12.35
  -1  -4   3  337.54   14.59
  -1  -4   3  248.79   17.15
   1   4  -3  284.28   16.24
   1   4  -3  271.23   16.00
  -1  -4   3  253.97   12.44
   1   4  -3  321.84   14.18
  -1  -4   3  354.86   22.30
   1   4  -3  273.82   15.42
   1   4  -3  291.02   12.79
   1   4  -3  289.43   15.97
   1   4  -3  337.80   14.34
   1   4  -3  304.53   16.29
  -1  -4   2  247.03   11.86
   1   4  -2  223.08   10.65
   1   4  -2  245.12   10.27
  -1  -4   2  298.72   12.98
  -1  -4   2  208.57    9.23
  -1  -4   2  197.18    9.41
   1   4  -2  213.59   12.23
   1   4  -2  199.89   12.44
  -1  -4   2  195.07   13.35
   1   4  -2  224.92   13.60
   1   4  -2  213.67    9.85
   1   4  -2  217.52   12.75
  -1  -4   2  271.80   16.76
   1   4  -2  218.50   10.14
   1   4  -2  215.87   12.44
  -1  -4   2  239.29   11.24
   1   4  -2  225.13   12.62
   1   4  -2  208.31   11.95
   1   4  -1  255.84   10.71
  -1  -4   1  297.86   13.24
   1   4  -1  225.70   10.53
   1   4  -1  255.31   10.57
   1   4  -1  233.66   12.78
   1   4  -1  233.44   12.84
   1   4  -1  270.01   14.88
  -1  -4   1  207.26    9.13
  -1  -4   1  232.92   13.45
  -1  -4   1  302.21   15.72
   1   4  -1  250.24   10.97
   1   4  -1  221.23   12.29
  -1  -4   1  255.55   11.35
  -1  -4   1  258.56   11.95
   1   4  -1  244.46   12.68
   1   4  -1  225.53   11.95
  -1  -4   1  209.08   11.72
   1   4   0   20.60    2.74
  -1  -4   0   20.90    2.80
   1   4   0   20.04    3.02
   1   4   0   19.91    2.21
   1   4   0   22.34    2.48
  -1  -4   0   21.60    2.61
  -1  -4   0   19.61    2.73
  -1  -4   0   23.77    3.44
  -1  -4   0   30.07    4.06
   1   4   0   22.16    3.35
   1   4   0   19.64    2.07
   1   4   0   23.93    2.74
  -1  -4   0   20.86    3.23
   1   4   0   23.44    3.30
   1   4   0   19.42    3.01
   1   4   0   18.33    2.73
  -1  -4  -1  705.07   27.10
   1   4   1  722.50   27.27
   1   4   1  660.80   28.31
  -1  -4  -1  725.78   27.52
   1   4   1  854.58   26.54
   1   4   1  687.82   28.37
  -1  -4  -1  717.00   26.43
   1   4   1  669.61   23.56
  -1  -4  -1  807.41   27.51
   1   4   1  674.01   28.76
  -1  -4  -1  911.13   30.51
   1   4   1  674.56   24.75
  -1  -4  -1  851.87   29.61
   1   4   1  663.59   24.56
  -1  -4  -1  699.73   28.43
  -1  -4  -1  718.24   28.51
   1   4   1  703.94   27.59
  -1  -4  -2  591.28   22.18
  -1  -4  -2  514.05   21.15
   1   4   2  512.72   19.05
   1   4   2  558.36   22.57
   1   4   2  446.20   23.24
   1   4   2  662.01   21.39
  -1  -4  -2  554.75   23.31
  -1  -4  -2  519.48   20.37
   1   4   2  500.13   18.42
  -1  -4  -2  624.36   24.39
   1   4   2  530.79   19.47
   1   4   2  501.62   24.06
  -1  -4  -2  630.12   24.84
  -1  -4  -2  570.61   22.67
   1   4   2  506.21   23.60
  -1  -4  -2  523.06   23.39
   1   4   2  515.25   22.69
  -1  -4  -3 2452.81   76.23
  -1  -4  -3 2331.86   75.72
  -1  -4  -3 2246.29   74.01
  -1  -4  -3 2341.24   76.76
   1   4   3 2371.02   77.09
  -1  -4  -3 2318.87   76.99
  -1  -4  -3 2172.77   72.55
  -1  -4  -3 2184.89   77.76
   1   4   3 2156.53   79.78
   1   4   3 2124.87   71.16
  -1  -4  -3 2458.90   79.13
  -1  -4  -3 2397.13   79.49
   1   4   3 2214.53   71.53
   1   4   3 2336.68   72.13
   1   4   3 2148.24   78.95
   1   4   3 2045.85   79.44
  -1  -4  -4  222.02   13.15
  -1  -4  -4  201.34   11.25
  -1  -4  -4  191.41   13.63
   1   4   4  221.50   13.89
   1   4   4  265.94   11.77
  -1  -4  -4  215.59   13.22
  -1  -4  -4  210.34   10.33
   1   4   4  196.27    9.76
  -1  -4  -4  215.25   14.77
   1   4   4  206.07   15.87
  -1  -4  -4  214.89   15.24
  -1  -4  -4  213.92   13.61
   1   4   4  219.86   10.07
   1   4   4  187.95   14.80
   1   4   4  183.88   15.18
  -1  -4  -4  216.60   13.03
  -1  -4  -5  138.40   10.86
  -1  -4  -5  130.17    8.67
  -1  -4  -5  117.43   10.94
   1   4   5  123.31   10.83
   1   4   5  156.12    8.78
  -1  -4  -5  123.70    7.51
  -1  -4  -5  131.35   10.46
  -1  -4  -5  124.41   12.28
  -1  -4  -5  125.21   12.03
  -1  -4  -5  137.44   10.73
   1   4   5  121.19   12.91
   1   4   5  116.64    7.44
  -1  -4  -5  144.01    8.72
  -1  -4  -5  115.79   10.60
   1   4   5  133.04    7.41
   1   4   5  118.07   12.43
   1   4   5  112.34   12.59
  -1  -4  -6   37.19    4.60
   1   4   6   40.53    8.05
  -1  -4  -6   30.77    5.88
   1   4   6   36.97    6.21
  -1  -4  -6   46.68    6.56
   1   4   6   52.34    4.94
  -1  -4  -6   48.76    7.11
  -1  -4  -6   43.71    6.08
   1   4   6   35.56    4.10
  -1  -4  -6   41.46    7.31
   1   4   6   34.77    7.56
  -1  -4  -6   46.93    7.93
  -1  -4  -6   46.44    6.52
   1   4   6   39.33    3.75
  -1  -4  -6   40.19    5.31
   1   4   6   42.96    7.89
   1   4   7   54.45    4.67
  -1  -4  -7   50.85    7.49
  -1  -4  -7   54.08    5.87
  -1  -4  -7   55.75    5.15
  -1  -4  -7   56.45    4.95
  -1  -4  -7   60.16    5.05
   1   4   7   50.73    5.43
   1   4   7   54.21    9.98
   1   4   7   68.55    5.74
  -1  -4  -7   46.97    8.75
   1   4   7   39.26    6.27
  -1  -4  -7   45.18    5.92
   1   4   7   53.83    4.40
  -1  -4  -7   53.81    5.91
  -1  -4  -7   57.97    7.63
  -1  -4  -7   60.36    6.12
  -1  -4  -7   54.83    9.26
  -1  -4  -7   50.62    5.07
  -1  -4  -7   57.03    8.41
   1   4   7   56.06    8.52
  -1  -4  -7   48.10    6.22
   1   4   7   51.93    9.37
  -1  -4  -7   48.19    4.74
  -1  -4  -7   41.26    7.40
   1   4   7   39.89    8.65
  -1  -4  -7   54.45    7.79
  -1  -4  -8   95.52   11.07
  -1  -4  -8  108.82    8.88
  -1  -4  -8   99.79    7.54
  -1  -4  -8   99.10   13.55
   1   4   8   95.47    6.50
  -1  -4  -8   96.91    6.95
  -1  -4  -8   78.02   10.52
  -1  -4  -8  100.83    6.98
   1   4   8  100.99   11.90
   1   4   8   89.04    7.36
  -1  -4  -8   84.65    8.54
  -1  -4  -8   81.41    8.68
   1   4   8   88.47   12.99
  -1  -4  -8   91.06    8.18
  -1  -4  -8  106.50    7.28
  -1  -4  -8  103.00   10.75
   1   4   8   91.08    8.14
   1   4   8   89.68   13.74
  -1  -4  -8   90.42   12.61
  -1  -4  -8   93.63    7.45
   1   4   8   97.87    6.21
  -1  -4  -8  106.58   12.31
  -1  -4  -8   91.16    6.99
   1   4   8   94.28    6.77
   1   4   8   99.76   14.59
  -1  -4  -8   96.92    8.27
  -1  -4  -8   99.18   11.28
   1   4   8   73.66    9.15
  -1  -4  -9  231.99   12.98
  -1  -4  -9  250.92   13.17
  -1  -4  -9  251.75   14.45
  -1  -4  -9  250.35   12.43
  -1  -4  -9  240.48   12.09
  -1  -4  -9  211.83   14.71
   1   4   9  236.80   13.30
   1   4   9  229.77   11.29
   1   4   9  214.84   11.45
   1   4   9  239.38   12.36
  -1  -4  -9  218.02   13.96
  -1  -4  -9  250.99   12.52
   1   4   9  229.12   14.45
  -1  -4  -9  240.53   17.78
   1   4   9  182.35   15.59
  -1  -4  -9  218.04   12.09
   1   4  10  334.41   15.12
  -1  -4 -10  315.98   16.98
  -1  -4 -10  321.89   15.47
   1   4  10  240.09   18.08
  -1  -4 -10  320.06   14.61
  -1  -4 -10  318.84   14.24
  -1  -4 -10  337.40   17.09
  -1  -4 -10  320.52   20.87
   1   4  10  300.57   14.23
   1   4  10  272.31   15.00
  -1  -4 -10  304.05   15.28
   1   4  10  299.83   13.84
   1   4  10  303.29   15.67
  -1  -4 -10  298.57   14.39
  -1  -4 -10  331.45   14.96
  -1  -4 -11   53.86    4.64
  -1  -4 -11   53.59    5.00
   1   4  11   57.36    5.09
   1   4  11   53.16    4.68
  -1  -4 -11   56.48    4.61
   1   4  11   39.91    6.13
  -1  -4 -11   55.97    5.68
   1   4  11   54.54    5.23
  -1  -4 -11   52.30    5.58
   1   4  11   48.42    4.84
   1   4  11   54.52    4.51
  -1  -4 -11   50.86    4.94
  -1  -4 -11   45.10    4.23
   1   4  12   13.47    2.10
  -1  -4 -12   12.86    2.06
  -1  -4 -12   13.64    2.37
   1   4  12   14.67    2.27
   1   4  12   12.87    1.97
  -1  -4 -12   11.50    1.99
   1   4  12    9.67    2.69
  -1  -4 -12   11.65    1.74
   1   4  12   11.93    1.82
  -1  -4 -12   11.12    2.13
  -1  -4 -13   21.53    2.20
   1   4  13   19.00    2.81
  -1  -4 -13   18.39    1.99
   1   4  13   19.20    1.89
  -1  -4 -13   23.58    2.46
  -1  -4 -13   19.39    2.08
  -1  -4 -13   23.14    2.48
   1   4  13   20.76    1.95
   1   4  13   27.37    2.49
  -1  -5  12    3.45    0.72
   1   5 -12    3.94    0.86
  -1  -5  12    3.51    0.77
   1   5 -12    2.74    0.77
   1   5 -12    3.93    0.92
   1   5 -12    5.27    1.18
  -1  -5  12    3.67    0.85
  -1  -5  11   18.84    2.29
   1   5 -11   21.40    2.45
  -1  -5  11   22.85    2.50
   1   5 -11   20.94    2.36
   1   5 -11   16.30    2.27
   1   5 -11   19.35    2.94
   1   5 -11   18.00    2.77
   1   5 -11   16.02    2.49
  -1  -5  11   22.39    2.49
   1   5 -11   22.31    2.73
   1   5 -11   22.64    2.82
  -1  -5  10   44.34    4.06
   1   5 -10   46.92    4.07
  -1  -5  10   43.82    3.92
   1   5 -10   39.76    4.00
   1   5 -10   34.34    4.75
   1   5 -10   36.90    4.55
   1   5 -10   35.60    4.72
   1   5 -10   41.58    4.34
   1   5 -10   36.77    4.49
   1   5 -10   38.75    4.18
   1   5  -9    1.51    0.83
  -1  -5   9    1.88    1.08
  -1  -5   9    1.97    0.70
  -1  -5   9    2.04    0.95
  -1  -5   9    1.26    0.61
   1   5  -9    2.37    1.84
   1   5  -9    2.69    1.44
   1   5  -9    2.43    0.99
   1   5  -9    4.23    2.01
   1   5  -9    2.39    2.74
   1   5  -9    2.79    1.53
   1   5  -9    2.55    1.14
   1   5  -9    2.31    1.55
  -1  -5   8  123.90    7.21
   1   5  -8  114.81    9.81
   1   5  -8   99.85    8.68
   1   5  -8  104.87    7.13
  -1  -5   8  108.70    7.16
  -1  -5   8  125.55    9.83
   1   5  -8  103.36    9.73
   1   5  -8   94.40   11.74
  -1  -5   8  125.44   10.85
   1   5  -8  118.18    9.64
  -1  -5   8  112.28    7.53
  -1  -5   8  125.96    7.80
   1   5  -8  109.75    9.68
   1   5  -8  108.20    7.71
   1   5  -8  100.82    8.49
   1   5  -7   57.45    8.53
  -1  -5   7   68.93    5.45
   1   5  -7   75.30    6.87
  -1  -5   7   67.46    4.91
   1   5  -7   89.10    8.06
   1   5  -7   68.97    6.92
   1   5  -7   65.91    7.10
  -1  -5   7   75.75    7.07
   1   5  -7   70.45    7.11
  -1  -5   7   73.53    5.61
   1   5  -7   60.20    6.31
   1   5  -7   73.63    7.42
   1   5  -7   67.51    7.75
   1   5  -7   65.40    9.15
  -1  -5   7   75.98    7.80
   1   5  -7   64.37    5.38
   1   5  -7   74.55    7.64
  -1  -5   7   85.65    8.56
   1   5  -7   44.05    8.79
   1   5  -7   55.39    8.74
  -1  -5   7   72.03   14.60
   1   5  -7   57.22    9.03
   1   5  -7   55.38    8.66
   1   5  -7   65.55    5.60
  -1  -5   7   75.75   11.50
   1   5  -7   61.90    8.81
  -1  -5   7   70.47    5.71
   1   5  -6   19.26    3.57
   1   5  -6   19.07    4.69
  -1  -5   6   23.85    2.84
  -1  -5   6   23.35    3.58
   1   5  -6   25.60    4.05
  -1  -5   6   20.51    2.76
   1   5  -6   20.10    4.61
  -1  -5   6   20.14    2.84
   1   5  -6   19.40    3.96
  -1  -5   6   21.36    2.78
  -1  -5   6   23.93    4.22
   1   5  -6   16.93    3.56
  -1  -5   6   24.39    3.96
   1   5  -6   15.47    5.10
   1   5  -6   15.30    4.37
   1   5  -6   19.58    2.69
  -1  -5   6   18.54    7.08
   1   5  -6   17.41    4.79
   1   5  -6   19.69    4.74
   1   5  -6   18.36    2.72
   1   5  -6   22.44    3.30
  -1  -5   6   25.03    6.29
   1   5  -6   18.58    4.52
   1   5  -5   32.18    4.56
   1   5  -5   43.73    5.10
   1   5  -5   30.28    3.94
  -1  -5   5   36.55    9.04
   1   5  -5   30.75    5.49
  -1  -5   5   29.73    3.68
   1   5  -5   35.21    5.96
  -1  -5   5   32.75    4.21
   1   5  -5   31.56    6.67
   1   5  -5   23.93    5.11
   1   5  -5   30.95    5.90
  -1  -5   5   41.32    5.23
   1   5  -5   29.77    5.48
  -1  -5   5   43.53    7.56
   1   5  -5   31.30    4.19
   1   5  -5   34.00    4.01
   1   5  -5   28.06    5.17
   1   5  -4   46.01    6.34
   1   5  -4   61.81    5.71
  -1  -5   4   53.28    4.59
   1   5  -4   49.69    6.62
   1   5  -4   45.45    5.27
   1   5  -4   40.86    6.25
  -1  -5   4   50.67    4.91
  -1  -5   4   42.86    7.52
   1   5  -4   49.48    6.86
  -1  -5   4   69.83   11.29
   1   5  -4   51.78    4.93
   1   5  -4   49.27    6.82
  -1  -5   4   56.52    5.80
  -1  -5   4   58.23    5.87
   1   5  -4   50.18    6.69
   1   5  -4   54.46    5.45
   1   5  -4   43.16    6.01
   1   5  -3  193.70   14.00
   1   5  -3  205.69   13.77
  -1  -5   3  189.51   15.62
   1   5  -3  224.16   11.80
   1   5  -3  256.09   12.47
   1   5  -3  215.39   14.17
   1   5  -3  221.46   14.39
  -1  -5   3  210.97   10.18
   1   5  -3  197.26   14.39
  -1  -5   3  206.07   10.60
  -1  -5   3  301.76   15.05
  -1  -5   3  241.52   19.45
   1   5  -3  204.62   11.10
   1   5  -3  188.02   13.89
  -1  -5   3  241.63   12.61
  -1  -5   3  236.83   12.99
   1   5  -3  224.76   12.09
   1   5  -3  197.10   13.34
   1   5  -2  339.11   18.40
   1   5  -2  325.67   19.49
   1   5  -2  436.11   17.16
   1   5  -2  364.05   16.05
  -1  -5   2  389.12   17.69
   1   5  -2  342.54   19.06
   1   5  -2  344.59   18.26
  -1  -5   2  333.75   20.55
   1   5  -2  354.22   19.31
  -1  -5   2  476.95   20.04
  -1  -5   2  414.70   24.46
   1   5  -2  381.54   16.30
   1   5  -2  344.03   18.73
  -1  -5   2  408.47   17.28
   1   5  -2  363.06   19.02
   1   5  -2  339.02   15.14
   1   5  -1  507.40   19.78
  -1  -5   1  521.57   21.78
   1   5  -1  527.61   20.26
  -1  -5   1  480.15   21.78
  -1  -5   1  605.47   27.81
  -1  -5   1  609.99   24.25
   1   5  -1  468.68   23.13
   1   5  -1  539.32   25.69
   1   5  -1  514.69   20.02
  -1  -5   1  483.33   24.50
   1   5  -1  457.37   22.09
   1   5  -1  481.47   23.43
   1   5  -1  500.28   23.22
   1   5  -1  536.54   20.71
  -1  -5   1  531.36   21.05
   1   5  -1  494.71   23.16
  -1  -5   1  456.14   22.20
  -1  -5   0  274.85   14.70
   1   5   0  273.38   14.22
   1   5   0  304.54   13.14
  -1  -5   0  283.33   14.32
  -1  -5   0  311.80   16.15
  -1  -5   0  282.20   16.32
   1   5   0  310.05   13.67
   1   5   0  253.03   12.15
   1   5   0  276.93   16.03
   1   5   0  298.86   13.64
   1   5   0  280.57   15.85
   1   5   0  272.41   15.49
  -1  -5   0  335.39   17.99
   1   5   0  285.57   15.84
  -1  -5   0  269.10   13.31
   1   5   0  271.87   14.93
  -1  -5  -1  473.36   20.36
  -1  -5  -1  438.05   19.85
   1   5   1  425.67   19.91
   1   5   1  411.41   21.22
   1   5   1  474.05   18.75
   1   5   1  541.63   19.79
   1   5   1  432.49   22.12
  -1  -5  -1  492.42   22.60
  -1  -5  -1  567.21   24.26
  -1  -5  -1  401.84   20.10
  -1  -5  -1  425.96   19.08
   1   5   1  411.87   17.15
  -1  -5  -1  426.92   21.21
   1   5   1  419.54   21.57
   1   5   1  416.14   20.44
  -1  -5  -2   76.20    6.67
  -1  -5  -2   58.73    5.82
   1   5   2   70.13    5.67
   1   5   2   59.68    4.64
  -1  -5  -2   56.74    5.30
   1   5   2   60.57    7.38
  -1  -5  -2   55.99    6.42
   1   5   2   59.53    4.21
  -1  -5  -2   71.53    7.44
  -1  -5  -2   79.17    8.00
  -1  -5  -2   64.72    6.60
   1   5   2   89.15    6.47
   1   5   2   59.72    7.05
   1   5   2   58.12    7.11
   1   5   2   65.31    6.57
  -1  -5  -2   56.46    6.68
   1   5   2   72.76    7.19
  -1  -5  -3   28.99    4.90
  -1  -5  -3   38.92    5.00
  -1  -5  -3   35.37    4.44
   1   5   3   27.82    3.02
   1   5   3   30.72    4.71
   1   5   3   41.03    4.47
   1   5   3   42.83    4.37
  -1  -5  -3   37.09    5.29
  -1  -5  -3   28.91    3.65
  -1  -5  -3   40.21    5.80
   1   5   3   33.93    5.96
   1   5   3   30.09    3.31
  -1  -5  -3   37.80    5.78
  -1  -5  -3   33.20    4.85
   1   5   3   32.93    5.55
   1   5   3   29.19    5.46
   1   5   3   30.42    4.99
  -1  -5  -4  107.07    9.20
  -1  -5  -4   88.31    9.42
   1   5   4   99.61   10.94
   1   5   4   98.04    9.45
   1   5   4   87.72   10.78
   1   5   4  118.44    7.87
  -1  -5  -4  107.04    9.64
  -1  -5  -4  104.33    7.42
  -1  -5  -4  106.03   10.59
   1   5   4   83.37    6.25
  -1  -5  -4  110.52   11.05
  -1  -5  -4   94.61    9.22
   1   5   4  136.85    8.67
   1   5   4   95.20   11.12
  -1  -5  -4  103.12    8.17
  -1  -5  -5  191.55   13.78
  -1  -5  -5  193.44   12.21
  -1  -5  -5  145.62   13.43
  -1  -5  -5  183.67   13.82
   1   5   5  184.26   14.57
   1   5   5  208.95   11.42
  -1  -5  -5  199.36   16.01
   1   5   5  168.24   10.21
   1   5   5  175.71   16.80
  -1  -5  -5  199.85   16.37
  -1  -5  -5  193.09   14.60
  -1  -5  -5  183.63   10.80
   1   5   5  168.85   15.99
  -1  -5  -5  203.08   12.01
   1   5   5  155.07   15.89
  -1  -5  -5  189.43   13.80
   1   5   6   73.16    5.54
  -1  -5  -6   74.25    8.67
  -1  -5  -6   69.52    7.22
  -1  -5  -6   73.21    6.04
  -1  -5  -6   59.11    8.56
  -1  -5  -6   75.79    6.02
   1   5   6   70.99    9.19
   1   5   6   84.92    7.06
  -1  -5  -6   82.06    6.86
  -1  -5  -6   77.42    9.03
  -1  -5  -6   71.84    5.85
   1   5   6   64.43    7.83
   1   5   6   72.57    5.30
   1   5   6   69.61    6.40
  -1  -5  -6   78.17   10.28
  -1  -5  -6   65.58    5.83
  -1  -5  -6   77.15    6.77
   1   5   6   75.32   11.36
  -1  -5  -6   75.89   10.54
  -1  -5  -6   79.23    9.55
   1   5   6  103.71    7.64
   1   5   6   64.45   10.22
  -1  -5  -6   69.47    5.76
   1   5   6   67.70   10.94
  -1  -5  -6   78.40    9.02
   1   5   7   15.58    2.54
  -1  -5  -7   13.45    4.13
   1   5   7    8.03    3.14
  -1  -5  -7   17.52    3.78
  -1  -5  -7   11.80    4.60
  -1  -5  -7   15.50    2.77
   1   5   7    8.25    3.86
  -1  -5  -7   14.61    2.92
   1   5   7   14.33    2.87
   1   5   7   12.88    2.80
  -1  -5  -7   20.46    5.21
  -1  -5  -7   13.36    2.54
  -1  -5  -7   18.95    4.70
   1   5   7   21.87    5.43
  -1  -5  -7    9.14    3.77
  -1  -5  -7   18.52    3.11
  -1  -5  -7   10.54    3.58
  -1  -5  -7   13.55    2.58
   1   5   7   22.26    6.83
   1   5   7    9.89    2.05
  -1  -5  -7   14.99    3.21
   1   5   7   17.29    5.19
  -1  -5  -7   11.83    2.40
  -1  -5  -7   15.68    4.46
   1   5   8   13.01    2.41
  -1  -5  -8   11.64    2.35
  -1  -5  -8   14.60    2.75
  -1  -5  -8   13.60    3.32
  -1  -5  -8   13.80    2.89
  -1  -5  -8   14.21    2.58
   1   5   8   11.83    3.74
   1   5   8    9.44    1.96
  -1  -5  -8   14.59    3.02
  -1  -5  -8   13.36    2.60
  -1  -5  -8   14.63    4.20
   1   5   8   10.20    2.42
   1   5   8    9.26    2.40
  -1  -5  -8   11.07    2.25
  -1  -5  -9   73.10    6.49
  -1  -5  -9   83.01    6.62
   1   5   9   73.32    5.98
  -1  -5  -9   92.24   10.65
   1   5   9   63.63    5.42
   1   5   9   69.12    8.75
  -1  -5  -9   79.73    6.48
  -1  -5  -9   84.86    7.52
   1   5   9   74.12    6.95
   1   5   9   81.14    8.19
  -1  -5  -9   74.91    6.59
   1   5   9   86.14    5.90
  -1  -5  -9   74.37    6.06
  -1  -5  -9   81.58    7.55
   1   5   9   81.90    6.47
   1   5  10  146.38    8.10
  -1  -5 -10  145.91   10.09
  -1  -5 -10  142.91    9.13
  -1  -5 -10  155.63   10.18
   1   5  10  129.23    9.25
   1   5  10  118.36   11.26
  -1  -5 -10  149.77    8.95
  -1  -5 -10  138.59    8.68
  -1  -5 -10  140.51   13.14
   1   5  10  138.86    8.62
  -1  -5 -10  130.95    8.88
   1   5  10  146.56    9.02
  -1  -5 -11   40.41    4.10
   1   5  11   36.31    5.44
   1   5  11   45.66    4.19
  -1  -5 -11   42.09    4.64
  -1  -5 -11   41.69    3.93
   1   5  11   42.52    4.44
   1   5  11   41.08    3.57
  -1  -5 -11   42.00    4.48
  -1  -5 -11   39.94    4.09
  -1  -5 -11   42.02    3.91
   1   5  11   42.33    4.17
  -1  -5 -12  106.98    6.31
   1   5  12  113.29    5.69
  -1  -5 -12  132.95    7.23
  -1  -5 -12  101.90    6.10
  -1  -5 -12  103.18    6.22
   1   5  12  123.72    6.57
   1   5  12   98.06    7.96
  -1  -5 -12  117.41    7.03
  -1  -5 -12  101.73    5.77
   1   5  12  124.08    6.80
  -1  -6  12   28.63    2.09
   1   6 -12   35.07    2.62
   1   6 -12   35.61    2.69
  -1  -6  12   30.00    2.19
  -1  -6  11   13.96    1.82
   1   6 -11   15.49    1.82
  -1  -6  11   14.03    1.68
   1   6 -11   15.66    2.08
   1   6 -11   14.67    2.06
  -1  -6  11   15.98    1.95
   1   6 -11   14.34    2.01
   1   6 -10    1.68    0.87
  -1  -6  10    1.59    0.81
   1   6 -10    1.67    0.79
  -1  -6  10    1.47    0.63
   1   6 -10    1.44    0.71
   1   6 -10    1.15    0.64
   1   6 -10    1.29    0.86
   1   6 -10    1.54    0.78
   1   6 -10    0.90    0.67
  -1  -6  10    1.52    0.67
   1   6 -10    1.27    0.69
  -1  -6   9   16.70    2.54
  -1  -6   9   19.82    2.47
   1   6  -9   13.43    3.98
   1   6  -9   22.74    2.96
  -1  -6   9   19.21    2.52
   1   6  -9   15.22    3.08
   1   6  -9   20.15    3.33
   1   6  -9   18.26    3.18
   1   6  -9   18.31    3.36
  -1  -6   9   18.88    3.60
   1   6  -9   19.40    2.88
   1   6  -9   19.46    2.98
   1   6  -9   19.56    3.90
   1   6  -8   89.87    8.40
  -1  -6   8  113.89    7.28
  -1  -6   8  109.71    6.55
  -1  -6   8   96.95    7.03
   1   6  -8  100.20    8.58
   1   6  -8   96.12    8.19
   1   6  -8  103.35    7.51
   1   6  -8   89.98    7.78
  -1  -6   8  114.67    9.21
   1   6  -8   80.64   11.06
   1   6  -8  110.04    7.45
  -1  -6   8  101.20    6.82
   1   6  -8   98.73    6.85
   1   6  -8   98.41    9.21
  -1  -6   7  231.11   11.69
  -1  -6   7  230.90   12.09
  -1  -6   7  257.04   14.23
   1   6  -7  209.99   13.77
   1   6  -7  221.97   13.79
   1   6  -7  216.46   13.31
   1   6  -7  197.90   12.59
   1   6  -7  226.19   18.87
   1   6  -7  218.76   11.72
  -1  -6   7  238.36   11.67
   1   6  -7  219.56   11.97
   1   6  -7  237.95   14.86
   1   6  -6    2.45    1.05
  -1  -6   6   -1.01    1.49
   1   6  -6    1.24    0.82
  -1  -6   6    1.09    0.57
   1   6  -6    0.31    0.86
   1   6  -6    1.44    0.78
  -1  -6   6   -0.04    0.78
   1   6  -6    2.30    0.97
   1   6  -6    2.48    1.49
   1   6  -6    0.89    1.13
   1   6  -6    1.55    1.26
  -1  -6   6    0.55    0.42
   1   6  -6    1.24    1.30
   1   6  -6    1.91    0.88
   1   6  -6    0.14    1.41
  -1  -6   6    2.02    1.12
   1   6  -6    1.43    2.26
   1   6  -6    2.61    2.15
   1   6  -6   -0.58    1.78
  -1  -6   6    2.81    1.19
   1   6  -6    2.72    2.03
   1   6  -6    1.89    1.10
   1   6  -5  123.77    8.15
  -1  -6   5  150.09    8.08
   1   6  -5  130.27   12.42
  -1  -6   5  149.32    8.85
   1   6  -5  198.94   12.07
   1   6  -5  150.95   10.52
  -1  -6   5  154.39    9.10
  -1  -6   5  172.27   10.04
   1   6  -5  128.77   12.52
  -1  -6   5  151.70    8.78
   1   6  -5  145.34   11.16
   1   6  -5  155.66   14.39
   1   6  -5  140.69   13.55
  -1  -6   5  165.94   20.53
   1   6  -5  129.15   13.11
   1   6  -5  131.76   12.81
  -1  -6   5  200.70   12.90
   1   6  -5  140.31   10.47
   1   6  -5  157.38    9.98
   1   6  -4  154.76   13.36
   1   6  -4  168.86   11.14
   1   6  -4  160.25   11.70
   1   6  -4  191.30   11.77
  -1  -6   4  201.74   12.79
  -1  -6   4  188.57    9.98
   1   6  -4  177.49   14.33
  -1  -6   4  192.41    9.83
   1   6  -4  170.35   14.52
  -1  -6   4  202.54   12.93
  -1  -6   4  233.91   15.02
   1   6  -4  179.93   15.12
  -1  -6   4  149.80   16.03
   1   6  -4  159.31   14.15
   1   6  -4  168.82   14.00
   1   6  -4  186.90   11.77
   1   6  -4  150.28   13.02
  -1  -6   4  216.63   22.13
   1   6  -3  671.62   32.97
   1   6  -3  845.67   31.31
   1   6  -3  759.82   29.90
  -1  -6   3  850.66   31.68
   1   6  -3  705.94   35.08
  -1  -6   3  627.68   36.45
   1   6  -3  695.99   34.24
  -1  -6   3  985.05   35.90
  -1  -6   3  828.90   44.08
   1   6  -3  708.34   29.48
   1   6  -3  641.20   33.60
   1   6  -3  702.14   33.77
  -1  -6   3  834.14   32.50
   1   6  -3  727.85   33.98
   1   6  -3  810.09   30.80
   1   6  -3  647.78   32.39
   1   6  -2  297.04   18.12
   1   6  -2  294.26   19.49
  -1  -6   2  329.38   16.38
   1   6  -2  329.55   16.90
  -1  -6   2  267.04   19.97
   1   6  -2  293.17   18.71
  -1  -6   2  349.79   24.64
   1   6  -2  290.10   15.19
  -1  -6   2  392.66   20.03
   1   6  -2  311.89   15.20
   1   6  -2  274.36   18.35
   1   6  -2  290.94   18.24
  -1  -6   2  338.41   17.41
   1   6  -2  319.81   18.80
   1   6  -2  369.42   16.94
   1   6  -2  280.29   17.50
   1   6  -1  358.15   16.26
   1   6  -1  380.15   17.36
   1   6  -1  388.36   22.34
   1   6  -1  349.26   18.23
  -1  -6   1  387.63   23.98
   1   6  -1  346.48   20.43
   1   6  -1  358.63   16.99
  -1  -6   1  416.17   20.99
   1   6  -1  329.77   19.92
  -1  -6   1  320.47   21.16
   1   6  -1  325.50   19.41
  -1  -6   1  364.86   18.23
   1   6  -1  359.67   20.03
  -1  -6   1  378.40   17.61
   1   6  -1  324.74   18.80
  -1  -6   1  306.26   18.74
   1   6  -1  349.17   15.66
   1   6   0  250.23   12.16
   1   6   0  231.79   14.15
  -1  -6   0  224.09   16.27
   1   6   0  254.86   13.54
  -1  -6   0  253.21   17.93
  -1  -6   0  233.40   13.95
   1   6   0  258.88   17.67
   1   6   0  222.00   15.70
   1   6   0  236.66   12.05
   1   6   0  244.21   13.03
   1   6   0  219.82   15.43
   1   6   0  223.83   15.33
  -1  -6   0  256.67   16.06
   1   6   0  253.31   16.09
   1   6   0  204.17   14.15
  -1  -6   0  209.20   14.20
  -1  -6  -1   14.75    3.21
   1   6   1   13.72    2.42
  -1  -6  -1   11.70    2.85
  -1  -6  -1    8.88    2.78
   1   6   1   12.00    3.08
   1   6   1    7.98    2.75
  -1  -6  -1   11.34    2.67
   1   6   1   13.75    2.69
  -1  -6  -1   14.01    3.33
   1   6   1    9.29    2.88
   1   6   1   11.77    3.79
   1   6   1   12.98    2.36
  -1  -6  -1   14.48    3.50
   1   6   1   10.50    2.31
   1   6   1   11.74    3.07
   1   6   1   13.51    3.51
   1   6   1   14.58    3.31
  -1  -6  -2  159.00   11.60
  -1  -6  -2  151.40   10.96
   1   6   2  159.34   12.00
  -1  -6  -2  134.18   11.44
  -1  -6  -2  171.31   13.55
   1   6   2  168.83   10.50
   1   6   2  153.92    9.15
   1   6   2  151.11   13.05
  -1  -6  -2  150.29   10.38
   1   6   2  153.11   12.32
   1   6   2  152.26   13.48
  -1  -6  -2  176.79   14.03
  -1  -6  -2  147.10   11.73
   1   6   2  149.35   10.01
   1   6   2  158.07   13.35
  -1  -6  -2  134.22   11.92
  -1  -6  -3   26.82    4.53
  -1  -6  -3   24.65    3.81
  -1  -6  -3   28.36    5.34
   1   6   3   27.36    4.02
  -1  -6  -3   23.09    4.63
  -1  -6  -3   28.34    5.43
   1   6   3   23.63    4.63
   1   6   3   22.30    5.49
  -1  -6  -3   25.35    5.40
   1   6   3   24.41    3.70
   1   6   3   30.07    3.76
  -1  -6  -3   24.03    4.55
   1   6   3   26.69    5.62
  -1  -6  -3   23.85    4.20
   1   6   3   21.30    4.88
   1   6   3   26.23    5.19
  -1  -6  -4  542.14   25.91
  -1  -6  -4  484.44   23.69
  -1  -6  -4  403.31   25.45
   1   6   4  475.81   26.14
  -1  -6  -4  467.01   22.11
   1   6   4  543.58   23.10
   1   6   4  457.11   28.30
  -1  -6  -4  469.74   25.76
   1   6   4  473.75   20.78
  -1  -6  -4  548.59   28.95
   1   6   4  496.67   30.16
  -1  -6  -4  589.85   30.30
  -1  -6  -4  495.95   26.19
   1   6   4  481.96   21.80
  -1  -6  -4  510.95   23.46
   1   6   4  447.86   28.69
   1   6   4  491.65   27.42
  -1  -6  -5 1310.17   49.02
  -1  -6  -5 1209.21   45.70
  -1  -6  -5 1204.51   42.25
  -1  -6  -5 1107.32   40.36
   1   6   5 1003.64   38.60
  -1  -6  -5 1185.28   41.24
  -1  -6  -5 1144.26   40.75
   1   6   5 1129.43   49.32
  -1  -6  -5 1151.23   40.30
   1   6   5 1339.10   44.74
   1   6   5 1022.30   44.73
  -1  -6  -5 1197.80   49.25
  -1  -6  -5 1279.32   42.48
  -1  -6  -5 1196.29   43.47
   1   6   5 1025.60   41.37
   1   6   5 1126.62   42.15
  -1  -6  -5 1035.40   40.22
  -1  -6  -5 1380.44   54.20
   1   6   5 1210.59   55.63
  -1  -6  -5 1402.90   55.28
  -1  -6  -5 1235.14   49.88
   1   6   5 1178.56   42.78
   1   6   5 1216.16   54.74
  -1  -6  -5 1223.32   44.76
   1   6   5 1170.17   55.11
  -1  -6  -5  901.00   47.11
   1   6   5 1239.85   52.20
  -1  -6  -6  890.26   38.05
  -1  -6  -6  777.52   33.80
  -1  -6  -6  718.92   29.01
  -1  -6  -6  564.70   35.05
  -1  -6  -6  802.13   29.93
   1   6   6  723.08   37.85
  -1  -6  -6  748.89   28.95
   1   6   6  673.61   27.48
   1   6   6  875.23   32.73
   1   6   6  671.84   30.06
   1   6   6  679.96   33.55
  -1  -6  -6  794.03   30.95
  -1  -6  -6  762.69   29.35
  -1  -6  -6  857.27   31.20
  -1  -6  -6  815.43   37.90
  -1  -6  -6  692.99   29.03
  -1  -6  -6  920.53   42.77
   1   6   6  831.27   44.97
  -1  -6  -6  909.31   43.42
   1   6   6  834.26   31.34
  -1  -6  -6  823.25   38.57
   1   6   6  718.79   31.08
   1   6   6  773.85   42.69
   1   6   6  738.18   42.99
   1   6   6  816.34   40.98
   1   6   6  787.41   28.73
   1   6   7  144.51   11.14
   1   6   7  157.02    9.46
  -1  -6  -7  164.89   10.19
   1   6   7  181.06   12.14
   1   6   7  127.71   11.98
   1   6   7  134.12    8.66
  -1  -6  -7  167.18   11.01
  -1  -6  -7  160.18    9.89
  -1  -6  -7  165.66   14.86
   1   6   7  140.07   10.37
  -1  -6  -7  140.82    9.53
  -1  -6  -7  146.69    9.60
  -1  -6  -7  159.18   12.55
  -1  -6  -7  175.77   11.04
  -1  -6  -8   27.17    3.85
   1   6   8   24.29    3.93
  -1  -6  -8   32.19    5.35
   1   6   8   25.48    5.14
  -1  -6  -8   32.36    4.10
   1   6   8   22.68    3.21
  -1  -6  -8   23.12    3.53
   1   6   8   32.40    3.78
  -1  -6  -8   30.85    4.45
  -1  -6  -8   31.58    3.98
  -1  -6  -8   35.57    4.56
  -1  -6  -8   26.54    5.97
   1   6   8   28.49    4.69
   1   6   8   36.97    4.22
  -1  -6  -9   38.14    4.36
  -1  -6  -9   43.51    4.71
  -1  -6  -9   35.60    4.16
   1   6   9   30.20    4.42
   1   6   9   36.66    3.93
   1   6   9   39.33    4.22
   1   6   9   33.39    5.86
  -1  -6  -9   45.90    5.14
  -1  -6  -9   39.52    6.93
  -1  -6  -9   37.98    4.37
  -1  -6  -9   41.10    4.96
  -1  -6  -9   42.50    4.51
   1   6   9   45.25    4.58
  -1  -6 -10   16.40    2.62
   1   6  10   22.08    3.37
   1   6  10   19.50    2.82
  -1  -6 -10   22.42    3.01
  -1  -6 -10   19.48    2.72
   1   6  10   19.79    2.62
   1   6  10   18.06    3.69
  -1  -6 -10   17.40    2.69
  -1  -6 -10   20.40    2.82
  -1  -6 -10   20.56    3.14
  -1  -6 -10   19.12    3.09
   1   6  10   18.51    2.76
   1   6  11    3.94    1.06
  -1  -6 -11    4.25    1.12
  -1  -6 -11    3.71    1.03
  -1  -6 -11    4.01    1.02
   1   6  11    4.29    1.16
  -1  -6 -11    5.09    1.20
   1   6  11    5.20    1.63
   1   6  11    3.02    1.26
  -1  -6 -11    4.05    1.20
  -1  -6 -11    5.39    1.24
   1   6  11    3.83    1.19
  -1  -6 -11    5.18    1.35
  -1  -6 -12   40.77    3.05
   1   6  12   46.78    3.38
   1   6  12   48.79    4.35
   1   6  12   44.13    3.92
  -1  -6 -12   45.54    3.39
  -1  -6 -12   39.05    2.81
  -1  -6 -12   46.53    3.39
  -1  -6 -12   41.12    3.07
   1   6  12   49.20    3.49
  -1  -7  11   36.39    2.69
   1   7 -11   43.02    3.18
   1   7 -11   42.30    3.18
  -1  -7  11   41.60    2.74
   1   7 -11   40.35    3.06
  -1  -7  10   57.15    4.17
   1   7 -10   60.43    3.90
   1   7 -10   61.97    4.54
   1   7 -10   62.90    4.65
  -1  -7  10   64.89    4.20
   1   7 -10   57.59    4.59
  -1  -7   9   56.37    4.48
   1   7  -9   50.57    3.98
   1   7  -9   55.41    4.55
   1   7  -9   50.44    4.54
   1   7  -9   53.56    4.81
  -1  -7   9   46.69    3.85
  -1  -7   9   56.77    4.28
  -1  -7   8   94.32    6.37
   1   7  -8   87.50    6.24
   1   7  -8   71.66    6.42
   1   7  -8   84.41    7.21
  -1  -7   8   89.95    6.36
   1   7  -8   79.22    6.89
  -1  -7   8   85.16    6.00
   1   7  -8   70.97   10.46
   1   7  -8   91.39    6.68
   1   7  -8   81.39    7.32
   1   7  -8   92.66    8.71
   1   7  -8   91.78    6.84
  -1  -7   7   48.10    4.44
   1   7  -7   49.70    5.02
   1   7  -7   45.65    5.54
   1   7  -7   37.06    4.77
  -1  -7   7   49.22    4.65
   1   7  -7   45.53    5.13
   1   7  -7   44.60    5.63
   1   7  -7   53.56    9.12
   1   7  -7   43.66    4.68
  -1  -7   7   49.60    4.86
   1   7  -7   48.21    4.51
   1   7  -7   49.52    6.35
  -1  -7   6  149.38    8.44
   1   7  -6  130.50   10.15
  -1  -7   6  137.08    8.44
  -1  -7   6  137.43    8.88
   1   7  -6  139.81   10.23
   1   7  -6  127.56    9.63
  -1  -7   6  151.81    8.98
   1   7  -6  130.21    8.70
   1   7  -6  130.57   14.43
   1   7  -6  138.68    9.02
   1   7  -6  149.78   11.37
  -1  -7   5  188.25    9.71
  -1  -7   5  187.64   10.76
  -1  -7   5  184.90   10.48
  -1  -7   5  195.45   10.65
   1   7  -5  186.23   12.96
   1   7  -5  193.97   17.27
   1   7  -5  172.18   10.32
   1   7  -5  197.49   13.14
  -1  -7   4  388.86   16.19
   1   7  -4  506.75   22.03
  -1  -7   4  423.75   17.96
   1   7  -4  390.71   25.82
  -1  -7   4  392.62   17.72
  -1  -7   4  409.12   17.87
  -1  -7   4  366.10   17.01
   1   7  -4  405.51   21.69
   1   7  -4  387.02   20.47
  -1  -7   4  489.90   22.97
   1   7  -4  400.01   20.39
   1   7  -3  303.01   14.45
   1   7  -3  377.21   19.10
  -1  -7   3  340.18   15.69
   1   7  -3  286.06   19.62
  -1  -7   3  329.16   15.43
  -1  -7   3  326.73   14.68
  -1  -7   3  323.42   14.96
   1   7  -3  378.80   18.16
   1   7  -3  316.41   22.31
  -1  -7   3  268.41   22.89
   1   7  -3  284.90   20.62
  -1  -7   3  355.83   29.56
   1   7  -3  308.29   17.41
   1   7  -3  273.58   20.27
  -1  -7   3  447.93   23.63
   1   7  -3  297.59   20.34
  -1  -7   3  343.88   19.59
   1   7  -3  312.09   20.68
   1   7  -3  271.82   19.50
  -1  -7   3  398.60   19.68
   1   7  -3  362.64   18.16
   1   7  -2   57.23    7.16
   1   7  -2   57.97    7.77
   1   7  -2   59.54    8.78
   1   7  -2   55.83    4.93
  -1  -7   2   61.52    5.36
   1   7  -2   60.57    7.86
  -1  -7   2   66.70    5.78
   1   7  -2   67.24    7.53
  -1  -7   2   67.76    5.66
   1   7  -2   66.71    8.86
  -1  -7   2   58.31    4.83
  -1  -7   2   46.61    8.60
  -1  -7   2   70.36   11.80
   1   7  -2   62.41    6.62
   1   7  -2   60.19    8.37
   1   7  -2   58.99    8.03
   1   7  -2   63.13    6.38
  -1  -7   2   60.28    7.24
   1   7  -2   58.32    7.95
  -1  -7   2   61.13    5.12
  -1  -7   2   71.52    7.35
   1   7  -2   68.45    6.84
  -1  -7   2   63.69    8.40
  -1  -7   1   56.56    7.77
   1   7  -1   54.11    6.85
   1   7  -1   51.03    7.63
  -1  -7   1   51.17    4.90
   1   7  -1   60.14    6.73
  -1  -7   1   51.33    4.87
  -1  -7   1   51.68    4.25
  -1  -7   1   48.46    4.73
  -1  -7   1   59.46    6.97
  -1  -7   1   45.59    4.20
   1   7  -1   47.58    7.74
   1   7  -1   47.44    7.44
  -1  -7   1   61.28   10.11
   1   7  -1   54.00    5.65
   1   7  -1   43.00    5.46
  -1  -7   1   55.71    8.73
   1   7  -1   41.50    6.63
   1   7  -1   48.22    7.15
   1   7  -1   48.64    6.92
  -1  -7   1   36.29    6.17
  -1  -7   0   14.87    3.76
   1   7   0   18.20    3.65
  -1  -7   0   13.85    4.37
  -1  -7   0   17.77    2.67
  -1  -7   0   15.73    2.60
  -1  -7   0   19.80    3.92
   1   7   0   17.63    3.87
   1   7   0   13.66    2.67
   1   7   0   17.18    4.76
   1   7   0   20.09    4.65
  -1  -7   0   18.41    5.33
  -1  -7   0   16.64    4.22
   1   7   0   17.02    4.44
   1   7   0   17.48    3.36
   1   7   0   12.71    3.57
  -1  -7   0   16.89    3.57
   1   7   0   10.00    2.82
   1   7   0   18.06    4.08
   1   7   0   17.51    2.86
   1   7   1   33.11    4.04
  -1  -7  -1   27.24    5.08
  -1  -7  -1   31.80    5.05
   1   7   1   32.01    5.46
   1   7   1   30.89    4.18
  -1  -7  -1   28.80    3.68
   1   7   1   34.76    5.04
   1   7   1   35.53    6.61
  -1  -7  -1   27.38    3.54
  -1  -7  -1   44.85    8.00
  -1  -7  -1   36.16    6.64
   1   7   1   29.50    5.89
  -1  -7  -1   32.70    3.71
   1   7   1   33.58    4.63
   1   7   1   31.68    5.96
   1   7   1   36.20    6.48
  -1  -7  -1   35.38    5.35
   1   7   1   37.97    6.54
  -1  -7  -1   29.44    5.78
   1   7   1   32.41    5.78
  -1  -7  -2   33.28    5.74
   1   7   2   36.26    4.26
  -1  -7  -2   28.33    3.49
  -1  -7  -2   27.34    4.78
  -1  -7  -2   30.67    3.80
  -1  -7  -2   29.20    4.77
  -1  -7  -2   29.55    3.48
   1   7   2   35.40    5.15
   1   7   2   20.75    2.92
  -1  -7  -2   26.31    3.52
   1   7   2   33.03    4.31
  -1  -7  -2   32.00    6.08
   1   7   2   30.95    5.58
   1   7   2   31.56    6.20
  -1  -7  -2   27.43    5.82
   1   7   2   23.97    5.58
   1   7   2   28.50    4.40
  -1  -7  -2   33.62    6.79
   1   7   2   36.30    6.93
   1   7   2   32.52    6.23
  -1  -7  -2   28.81    4.91
   1   7   2   28.21    5.66
   1   7   2   36.31    6.37
  -1  -7  -3  195.11   14.77
  -1  -7  -3  160.67   14.98
  -1  -7  -3  194.94   14.12
  -1  -7  -3  174.76   10.22
   1   7   3  219.21   12.49
   1   7   3  181.54   15.07
  -1  -7  -3  184.67   11.13
  -1  -7  -3  199.21   13.51
   1   7   3  225.05   17.98
  -1  -7  -3  190.32   10.21
   1   7   3  212.33   13.90
   1   7   3  205.60   17.47
   1   7   3  181.52   10.21
   1   7   3  183.54   11.45
  -1  -7  -3  167.95   10.36
   1   7   3  187.49   12.45
  -1  -7  -3  203.03   11.71
  -1  -7  -3  186.86   10.83
  -1  -7  -3  216.17   11.95
  -1  -7  -3  220.57   17.71
   1   7   3  215.75   18.65
   1   7   3  198.96   13.38
  -1  -7  -3  233.02   18.77
   1   7   3  210.07   13.02
  -1  -7  -3  177.34   14.86
  -1  -7  -3  202.18   14.00
   1   7   3  204.83   17.62
   1   7   3  199.42   16.32
  -1  -7  -4    9.54    3.04
  -1  -7  -4    7.12    1.79
  -1  -7  -4    8.53    2.65
  -1  -7  -4    9.60    2.65
  -1  -7  -4   12.94    2.47
   1   7   4    6.75    1.83
  -1  -7  -4    7.51    1.85
   1   7   4    7.68    1.95
  -1  -7  -4    9.57    1.89
  -1  -7  -4    9.47    2.26
   1   7   4    8.74    2.57
   1   7   4    7.50    2.01
  -1  -7  -4   10.84    2.54
   1   7   4   10.54    3.01
  -1  -7  -4   10.45    3.49
   1   7   4   13.51    4.12
  -1  -7  -4    7.59    2.77
  -1  -7  -4   14.55    4.59
  -1  -7  -4    7.51    1.95
   1   7   4    6.62    3.40
  -1  -7  -4    8.82    3.56
  -1  -7  -4   13.31    4.11
   1   7   4    9.81    2.48
   1   7   4    9.35    2.64
  -1  -7  -4    7.27    2.79
   1   7   4    8.87    3.84
   1   7   4    6.98    3.01
  -1  -7  -5  342.72   22.68
  -1  -7  -5  356.73   21.98
  -1  -7  -5  319.71   19.73
  -1  -7  -5  303.25   15.25
   1   7   5  286.60   16.49
  -1  -7  -5  268.56   21.25
   1   7   5  334.89   19.63
  -1  -7  -5  333.55   16.44
   1   7   5  345.82   25.84
   1   7   5  324.18   22.66
   1   7   5  337.08   25.98
  -1  -7  -5  325.03   14.70
   1   7   5  379.33   19.86
  -1  -7  -5  323.16   22.01
   1   7   5  302.72   15.14
   1   7   5  307.74   18.18
   1   7   5  331.23   14.84
  -1  -7  -5  343.82   17.02
  -1  -7  -5  330.07   16.05
  -1  -7  -5  357.47   17.10
  -1  -7  -5  344.47   18.81
  -1  -7  -5  381.55   25.55
   1   7   5  329.21   26.17
  -1  -7  -5  385.94   26.29
   1   7   5  356.36   18.00
   1   7   5  354.98   24.49
  -1  -7  -5  296.25   15.37
  -1  -7  -6  535.69   27.22
  -1  -7  -6  486.99   21.44
  -1  -7  -6  530.43   22.72
  -1  -7  -6  533.12   21.29
   1   7   6  595.25   26.41
   1   7   6  480.92   24.85
   1   7   6  503.60   26.25
   1   7   6  427.81   20.57
   1   7   6  517.47   21.01
  -1  -7  -6  521.24   29.69
   1   7   6  469.09   23.13
  -1  -7  -6  485.84   21.67
  -1  -7  -6  589.53   23.82
  -1  -7  -6  521.02   22.26
  -1  -7  -6  574.05   23.80
  -1  -7  -7  306.90   18.75
  -1  -7  -7  246.75   13.26
  -1  -7  -7  281.76   20.40
  -1  -7  -7  277.57   14.42
  -1  -7  -7  264.35   13.13
   1   7   7  225.00   12.76
   1   7   7  254.10   16.34
  -1  -7  -7  260.40   13.82
   1   7   7  246.10   14.90
   1   7   7  250.52   16.00
   1   7   7  261.38   13.11
   1   7   7  243.87   16.91
  -1  -7  -7  233.72   13.28
  -1  -7  -7  304.91   15.47
  -1  -7  -7  302.21   15.22
   1   7   7  300.77   13.92
  -1  -7  -8   19.27    3.00
   1   7   8   21.65    3.76
  -1  -7  -8   23.86    3.53
  -1  -7  -8   20.27    3.14
  -1  -7  -8   25.21    3.18
   1   7   8   20.15    4.14
  -1  -7  -8   25.37    3.54
  -1  -7  -8   26.44    3.96
  -1  -7  -8   26.23    3.79
   1   7   8   23.22    3.25
  -1  -7  -8   22.88    5.38
   1   7   8   16.70    2.88
   1   7   8   18.27    3.95
   1   7   8   25.30    3.34
  -1  -7  -9    5.23    1.61
   1   7   9    3.75    1.29
   1   7   9    3.18    1.06
  -1  -7  -9    3.63    1.12
   1   7   9    6.33    2.16
  -1  -7  -9    4.13    1.35
  -1  -7  -9    5.31    1.50
   1   7   9    2.82    1.06
   1   7   9    2.09    1.47
   1   7   9    3.09    1.15
  -1  -7  -9    3.04    1.16
   1   7   9    3.04    1.51
  -1  -7  -9    4.75    1.37
  -1  -7  -9    6.40    1.75
   1   7  10    1.02    0.68
   1   7  10   -1.09    0.79
  -1  -7 -10    1.38    0.88
  -1  -7 -10    0.56    0.44
   1   7  10    1.57    0.72
  -1  -7 -10   -0.24    0.28
  -1  -7 -10    0.49    0.40
  -1  -7 -10    0.47    0.35
  -1  -7 -10    1.14    0.60
   1   7  10    1.08    0.98
  -1  -7 -10    0.35    0.34
   1   7  10   -2.00    1.32
   1   7  10    0.20    0.48
  -1  -7 -11   83.62    4.89
  -1  -7 -11   84.17    5.00
   1   7  11  102.67    5.66
   1   7  11   91.05    6.48
  -1  -7 -11   91.28    5.38
  -1  -7 -11   95.06    5.51
  -1  -7 -11   91.71    5.16
   1   7  11   97.77    6.35
  -1  -7 -11   81.90    4.96
   1   7  11   96.76    5.97
   1   7  11  100.62    5.48
  -1  -8  10    9.52    1.29
   1   8 -10   12.54    1.63
   1   8 -10   14.25    1.70
  -1  -8  10    9.72    1.19
   1   8 -10   11.03    1.59
  -1  -8   9   15.73    2.01
   1   8  -9   14.17    2.04
  -1  -8   9   13.46    1.71
   1   8  -9   12.90    1.98
  -1  -8   9   12.58    1.60
   1   8  -9   13.97    2.14
  -1  -8   8   18.90    2.39
  -1  -8   8   19.00    2.21
  -1  -8   8   16.01    2.26
   1   8  -8   18.67    2.73
  -1  -8   8   15.13    2.21
   1   8  -8   18.22    2.48
   1   8  -8   17.48    2.65
  -1  -8   7   32.58    3.40
  -1  -8   7   32.51    3.69
  -1  -8   7   36.01    3.26
   1   8  -7   30.18    3.72
  -1  -8   7   34.29    3.63
   1   8  -7   29.72    3.41
   1   8  -7   32.07    3.84
   1   8  -6   37.83    4.33
  -1  -8   6   38.63    3.89
  -1  -8   6   40.74    4.35
  -1  -8   6   40.86    4.24
   1   8  -6   41.67    8.16
  -1  -8   6   47.08    3.80
   1   8  -6   38.37    4.41
   1   8  -6   37.28    5.41
  -1  -8   5   29.73    3.27
   1   8  -5   29.60    6.70
  -1  -8   5   25.28    3.32
  -1  -8   5   32.69    3.96
  -1  -8   5   28.34    3.58
   1   8  -5   30.24    3.88
   1   8  -5   27.16    4.75
   1   8  -5   28.70    4.77
  -1  -8   4  332.01   14.01
  -1  -8   4  336.93   15.40
  -1  -8   4  320.62   15.31
   1   8  -4  304.72   18.61
  -1  -8   4  325.96   15.52
  -1  -8   4  308.26   14.91
   1   8  -4  325.29   24.05
   1   8  -4  311.03   15.40
   1   8  -4  320.68   18.08
   1   8  -3   13.80    3.15
   1   8  -3   11.99    2.36
  -1  -8   3    9.86    2.31
  -1  -8   3   13.49    2.58
  -1  -8   3   10.92    2.19
  -1  -8   3   12.98    2.42
   1   8  -3   16.07    4.89
   1   8  -3    8.18    2.64
   1   8  -2   14.17    3.33
  -1  -8   2   11.49    3.38
   1   8  -2   13.06    2.38
   1   8  -2   19.35    2.97
   1   8  -2   10.73    3.03
  -1  -8   2   10.87    2.45
  -1  -8   2   14.19    2.73
  -1  -8   2   14.83    2.57
   1   8  -2   14.86    3.11
  -1  -8   2   11.83    2.38
  -1  -8   2   12.27    2.20
   1   8  -2   17.95    4.15
   1   8  -2   12.12    4.11
  -1  -8   2   17.77    5.05
   1   8  -2   12.61    3.38
   1   8  -1   34.25    6.01
   1   8  -1   28.79    3.74
   1   8  -1   33.09    4.00
  -1  -8   1   35.57    4.17
  -1  -8   1   46.88    7.79
   1   8  -1   39.55    6.38
  -1  -8   1   35.99    4.26
  -1  -8   1   32.23    3.71
  -1  -8   1   36.28    4.58
  -1  -8   1   32.24    3.58
   1   8  -1   32.19    6.87
   1   8  -1   26.21    4.68
  -1  -8   1   35.17    5.97
   1   8  -1   40.49    5.50
   1   8  -1   32.91    4.80
  -1  -8   0   33.75    3.71
   1   8   0   41.60    5.44
   1   8   0   36.39    4.26
  -1  -8   0   34.82    4.27
   1   8   0   42.18    6.73
  -1  -8   0   38.49    4.44
  -1  -8   0   31.82    3.47
  -1  -8   0   36.21    4.30
  -1  -8   0   41.07    7.44
   1   8   0   33.38    6.07
   1   8   0   39.50    5.69
   1   8   0   39.17    7.44
  -1  -8   0   42.34    6.47
  -1  -8  -1   58.19    5.65
   1   8   1   74.75    9.27
   1   8   1   72.96    7.52
   1   8   1   68.09    6.08
  -1  -8  -1   59.44    5.83
   1   8   1   64.42    7.28
  -1  -8  -1   62.55    5.05
   1   8   1   71.75    8.38
  -1  -8  -1   65.82    5.85
   1   8   1   64.61    5.57
  -1  -8  -1   57.81    7.57
   1   8   1   88.66    7.97
   1   8   1   69.95    7.02
   1   8   1   56.74    9.02
  -1  -8  -1   72.22    8.56
  -1  -8  -1   64.97    9.47
  -1  -8  -2   87.62    6.78
  -1  -8  -2   98.89    8.01
   1   8   2   97.06   11.08
   1   8   2   94.44    7.48
  -1  -8  -2   88.27    7.35
   1   8   2  114.25   10.77
  -1  -8  -2  102.29    7.36
   1   8   2   90.11    6.93
  -1  -8  -2   92.03    9.64
   1   8   2   95.28    8.49
  -1  -8  -2   87.17    7.13
   1   8   2  110.10    9.44
  -1  -8  -2   98.65    8.03
   1   8   2   82.38   11.07
   1   8   2   96.92    9.04
   1   8   2  107.02    8.99
  -1  -8  -2   97.13   11.79
  -1  -8  -2   89.39    9.71
  -1  -8  -3  102.02    8.21
  -1  -8  -3  103.19    7.36
   1   8   3  109.68    9.43
  -1  -8  -3   93.84    7.80
   1   8   3  131.88   13.48
   1   8   3  131.07   11.68
  -1  -8  -3  110.84    7.70
   1   8   3  100.61    7.52
  -1  -8  -3  108.67   10.41
   1   8   3  115.02    9.87
  -1  -8  -3   98.94    7.70
  -1  -8  -3  114.00    8.66
   1   8   3  111.51    8.82
   1   8   3  102.00    9.29
  -1  -8  -4  389.00   23.13
  -1  -8  -4  388.64   17.72
  -1  -8  -4  403.31   19.31
   1   8   4  424.25   21.38
  -1  -8  -4  392.20   18.95
  -1  -8  -4  433.77   19.74
   1   8   4  494.17   24.92
  -1  -8  -4  408.57   17.83
   1   8   4  445.40   22.50
   1   8   4  358.01   17.72
  -1  -8  -4  400.38   22.36
   1   8   4  390.85   19.87
   1   8   4  399.50   20.85
  -1  -8  -4  379.29   18.35
  -1  -8  -5  173.74   14.22
  -1  -8  -5  165.43   10.04
  -1  -8  -5  194.53   13.95
  -1  -8  -5  180.15   11.44
  -1  -8  -5  178.46   11.14
   1   8   5  210.57   15.11
  -1  -8  -5  176.98   10.03
   1   8   5  155.93   10.12
   1   8   5  170.32   11.88
   1   8   5  186.46   13.58
   1   8   5  177.82   12.79
  -1  -8  -5  168.49   10.65
  -1  -8  -5  192.01   11.63
  -1  -8  -5  161.02   10.25
   1   8   5  187.00   12.58
  -1  -8  -6   31.10    3.83
  -1  -8  -6   31.04    5.67
  -1  -8  -6   30.68    4.18
   1   8   6   33.21    5.70
  -1  -8  -6   33.15    4.15
  -1  -8  -6   35.21    3.77
   1   8   6   30.47    4.05
   1   8   6   34.61    3.84
   1   8   6   32.66    5.39
  -1  -8  -6   31.80    4.28
  -1  -8  -6   36.68    4.61
   1   8   6   37.48    5.37
  -1  -8  -6   30.45    3.93
   1   8   6   36.58    5.05
  -1  -8  -7   21.29    3.04
   1   8   7   18.06    2.67
   1   8   7   26.71    3.54
  -1  -8  -7   21.04    3.34
  -1  -8  -7   23.98    3.55
   1   8   7   21.78    3.22
   1   8   7   19.73    4.01
   1   8   7   22.55    3.03
  -1  -8  -7   26.35    3.60
  -1  -8  -7   19.25    3.25
   1   8   7   20.86    3.96
  -1  -8  -7   24.22    3.38
   1   8   7   24.09    3.95
   1   8   8    0.69    0.61
  -1  -8  -8    0.34    0.51
   1   8   8    0.24    0.32
  -1  -8  -8    1.32    1.02
  -1  -8  -8   -0.04    0.25
   1   8   8   -0.39    0.36
  -1  -8  -8    0.18    0.59
   1   8   8   -0.11    0.98
   1   8   8    0.47    0.29
   1   8   8    1.92    1.14
   1   8   8    0.59    0.56
  -1  -8  -8    1.26    0.86
  -1  -8  -8   -0.28    0.44
  -1  -8  -9   19.56    2.42
   1   8   9   24.46    2.70
  -1  -8  -9   23.46    2.94
   1   8   9   23.34    3.34
   1   8   9   23.49    3.40
   1   8   9   25.29    2.97
  -1  -8  -9   20.64    2.60
  -1  -8  -9   32.22    3.52
  -1  -8  -9   21.13    2.71
  -1  -8  -9   23.45    2.94
   1   8   9   25.73    3.83
   1   8   9   22.66    2.73
   1   8   9   25.71    2.77
   1   8  10    5.00    0.98
  -1  -8 -10    5.84    0.98
   1   8  10    4.53    1.11
  -1  -8 -10    5.20    1.14
   1   8  10    7.16    1.31
   1   8  10    7.93    1.72
   1   8  10    8.45    1.39
   1   8  10    6.94    1.54
  -1  -8 -10    6.32    1.21
  -1  -8 -10    5.57    1.15
  -1  -8 -10    6.31    1.25
  -1  -9   9   13.10    1.45
   1   9  -9   17.92    1.90
   1   9  -9   18.61    2.07
  -1  -9   8   11.98    1.60
  -1  -9   8   10.42    1.51
   1   9  -8   13.21    1.90
   1   9  -8   12.88    1.98
   1   9  -8   11.29    1.71
   1   9  -8   13.25    2.06
  -1  -9   7    5.20    1.14
  -1  -9   7    4.10    1.03
  -1  -9   7    5.80    1.25
   1   9  -7    6.25    1.46
   1   9  -7    7.16    1.51
   1   9  -7    6.13    1.49
  -1  -9   6   26.85    2.80
   1   9  -6   29.53    3.64
  -1  -9   6   29.45    3.35
  -1  -9   6   30.06    3.41
   1   9  -6   27.83    3.16
   1   9  -6   27.21    3.51
  -1  -9   5   15.68    2.52
  -1  -9   5   13.82    2.31
  -1  -9   5   16.31    2.68
   1   9  -5   20.86    3.11
  -1  -9   5   14.35    2.05
   1   9  -5   18.19    2.89
  -1  -9   4   30.93    3.59
  -1  -9   4   29.85    3.66
  -1  -9   4   28.11    3.59
  -1  -9   4   28.67    3.48
   1   9  -4   32.97    7.24
   1   9  -4   30.31    3.90
   1   9  -4   21.38    4.38
   1   9  -4   32.41    4.88
   1   9  -3  195.78   11.21
   1   9  -3  191.32   11.09
  -1  -9   3  189.39   10.79
  -1  -9   3  180.09   10.65
  -1  -9   3  181.33   10.51
  -1  -9   3  186.27   10.27
   1   9  -3  201.72   18.49
   1   9  -3  175.30   13.89
  -1  -9   2   87.88    6.68
   1   9  -2   81.31    6.91
   1   9  -2  101.84    7.47
   1   9  -2  104.42   10.83
  -1  -9   2   92.74    7.37
  -1  -9   2   86.56    6.98
   1   9  -2   83.51   11.58
  -1  -9   2   79.36    6.16
   1   9  -2   96.12    9.73
   1   9  -1   28.15    3.99
   1   9  -1   37.60    4.46
  -1  -9   1   34.08    4.06
   1   9  -1   33.38    7.11
  -1  -9   1   32.06    4.28
  -1  -9   1   32.22    4.11
  -1  -9   1   33.38    3.82
   1   9  -1   35.55    6.19
   1   9  -1   33.50    5.51
  -1  -9   1   31.54    3.60
   1   9   0   69.01    6.37
   1   9   0   85.61    7.06
  -1  -9   0   70.99    6.28
   1   9   0   89.62   10.30
  -1  -9   0   81.22    7.15
  -1  -9   0   71.62    5.71
  -1  -9   0   66.92    6.16
   1   9   0   78.88   10.91
   1   9   0   77.68    8.67
  -1  -9   0   76.72    6.60
  -1  -9   0   74.06    5.59
   1   9   1    5.14    1.75
   1   9   1    4.97    1.66
  -1  -9  -1    4.72    1.44
  -1  -9  -1    6.38    1.96
   1   9   1    4.48    1.38
  -1  -9  -1    4.77    1.23
  -1  -9  -1    6.96    1.91
   1   9   1    2.64    0.69
   1   9   1    9.80    3.35
   1   9   1    6.47    2.32
   1   9   2  172.71   11.33
   1   9   2  225.76   12.76
  -1  -9  -2  205.82   12.09
   1   9   2  274.67   19.20
  -1  -9  -2  224.00   12.18
   1   9   2  223.32   12.13
   1   9   2  235.14   14.36
   1   9   2  226.47   13.76
  -1  -9  -2  196.18   12.35
   1   9   2  206.11   14.64
  -1  -9  -2  201.44   11.85
   1   9   3   89.86    7.56
   1   9   3  125.90    8.93
  -1  -9  -3  109.10    8.29
  -1  -9  -3  113.44    8.24
  -1  -9  -3  114.17    8.71
   1   9   3  126.36   12.68
  -1  -9  -3  119.18    8.18
   1   9   3  112.72    8.21
   1   9   3  119.19    9.57
  -1  -9  -3  112.47    8.69
   1   9   3  137.59    9.81
   1   9   3  125.14   10.20
   1   9   3  106.23    9.85
   1   9   4   71.37    6.51
   1   9   4  101.62    7.77
  -1  -9  -4   96.91    7.57
   1   9   4  107.74    9.34
   1   9   4  103.89   11.25
  -1  -9  -4   89.35    6.82
  -1  -9  -4   89.33    7.16
   1   9   4   89.85    7.25
   1   9   4  102.84    8.76
  -1  -9  -4  101.11    7.94
   1   9   4   93.85    8.12
  -1  -9  -4   98.37    7.83
   1   9   4   73.38    7.95
  -1  -9  -5   10.47    1.98
  -1  -9  -5   10.19    2.19
   1   9   5    5.73    1.57
   1   9   5   12.35    2.50
   1   9   5   10.89    2.23
  -1  -9  -5    9.59    1.95
   1   9   5   10.10    2.54
  -1  -9  -5    8.47    2.14
   1   9   5    8.05    2.45
  -1  -9  -5    9.32    2.21
   1   9   5    8.58    2.64
  -1  -9  -5   11.35    2.41
  -1  -9  -6   24.61    3.11
   1   9   6   24.47    3.17
   1   9   6   31.68    3.85
  -1  -9  -6   31.10    3.85
  -1  -9  -6   30.41    3.87
  -1  -9  -6   29.95    3.25
   1   9   6   27.91    3.65
  -1  -9  -6   28.57    3.63
   1   9   6   33.81    4.79
   1   9   6   30.99    4.42
  -1  -9  -6   33.50    4.09
   1   9   6   29.33    4.28
  -1  -9  -7    0.88    0.53
   1   9   7    1.41    0.61
  -1  -9  -7    1.28    0.29
   1   9   7    1.84    0.67
  -1  -9  -7    1.51    0.77
   1   9   7    3.11    1.19
  -1  -9  -7    0.04    0.40
  -1  -9  -7    2.34    0.97
  -1  -9  -7    2.47    0.96
   1   9   7    3.05    1.28
   1   9   7    0.24    0.92
   1   9   8   10.03    2.13
   1   9   8   11.59    1.83
  -1  -9  -8   13.53    2.08
   1   9   8   13.43    2.13
   1   9   8   12.89    2.40
   1   9   8   13.70    1.86
   1   9   8   13.84    2.40
  -1  -9  -8   10.83    1.83
  -1  -9  -8   12.42    1.97
  -1  -9  -8    8.81    1.69
  -1  -9  -9  116.39    6.09
  -1  -9  -9  119.43    6.28
   1   9   9  130.00    6.57
   1   9   9  106.18    6.85
   1  10  -7    3.36    0.84
  -1 -10   7    3.87    0.85
  -1 -10   7    3.75    0.82
   1  10  -7    4.40    1.14
   1  10  -7    3.69    0.82
   1  10  -7    3.23    0.83
   1  10  -6    2.99    0.96
   1  10  -6    2.10    0.70
  -1 -10   6    2.50    0.76
  -1 -10   6    2.82    0.83
   1  10  -6    2.06    0.74
  -1 -10   5    6.53    1.31
   1  10  -5    8.83    1.55
  -1 -10   5    4.40    1.18
   1  10  -5    6.29    1.51
   1  10  -5    7.13    1.65
  -1 -10   4    0.58    0.22
  -1 -10   4    0.23    0.77
  -1 -10   4    0.02    0.23
   1  10  -4    1.17    0.51
   1  10  -4    0.23    0.54
   1  10  -3  140.37    8.69
  -1 -10   3  127.56    7.73
  -1 -10   3  124.23    7.84
  -1 -10   3  125.99    7.76
  -1 -10   3  121.63    7.52
   1  10  -3  129.60    8.44
   1  10  -2  210.91   11.72
  -1 -10   2  205.33   11.06
  -1 -10   2  207.43   11.02
  -1 -10   2  194.86   10.43
   1  10  -2  203.46   11.19
  -1 -10   2  194.32   10.15
   1  10  -1   62.36    5.89
   1  10  -1   68.71    6.03
  -1 -10   1   58.19    5.50
  -1 -10   1   66.16    5.74
  -1 -10   1   60.71    5.08
  -1 -10   1   61.99    4.91
   1  10  -1   65.58    5.63
   1  10   0    2.42    0.99
   1  10   0    6.27    1.86
  -1 -10   0    4.19    1.24
  -1 -10   0    6.35    1.69
  -1 -10   0    7.29    1.76
  -1 -10   0    3.35    1.24
  -1 -10   0    5.59    1.26
   1  10   1   21.00    3.38
   1  10   1   24.80    3.65
  -1 -10  -1   19.46    2.96
  -1 -10  -1   26.26    3.66
  -1 -10  -1   23.31    3.26
  -1 -10  -1   22.91    2.73
   1  10   2    1.45    0.77
   1  10   2    3.49    1.37
  -1 -10  -2    2.63    1.28
  -1 -10  -2    3.31    1.32
  -1 -10  -2    2.45    0.93
   1  10   2    3.49    1.11
  -1 -10  -2    2.64    1.05
   1  10   3    2.66    1.13
   1  10   3    2.98    1.19
  -1 -10  -3    3.25    1.23
  -1 -10  -3    3.96    1.46
  -1 -10  -3    3.60    1.26
  -1 -10  -3    1.98    0.83
   1  10   3    4.38    1.54
   1  10   4   32.59    3.84
   1  10   4   34.35    4.14
  -1 -10  -4   31.84    3.77
  -1 -10  -4   32.01    3.88
  -1 -10  -4   32.88    3.63
   1  10   4   30.02    3.72
  -1 -10  -4   29.43    3.54
   1  10   4   39.32    4.51
   1  10   5  106.78    7.09
   1  10   5  118.76    8.24
   1  10   5  131.54    8.14
  -1 -10  -5  104.32    7.18
  -1 -10  -5  122.75    7.58
  -1 -10  -5  114.89    6.85
   1  10   5  126.44    7.97
  -1 -10  -5  104.52    7.06
   1  10   6  173.26    8.87
   1  10   6  202.29   10.02
  -1 -10  -6  186.16    9.53
  -1 -10  -6  173.41    9.15
  -1 -10  -6  181.42    9.05
  -1 -10  -6  173.80    8.28
   1  10   6  205.41   10.16
   1  10   6  195.77   10.64
   1  10   7   75.16    4.97
  -1 -10  -7   69.98    4.77
  -1 -10  -7   63.90    4.50
   1  10   7   74.53    5.55
   1  10   7   76.92    5.24
  -1 -10  -8   19.91    1.98
  -1 -10  -8   20.80    2.00
  -1 -11   5   13.54    1.57
   1  11  -5   17.49    2.22
  -1 -11   5   14.58    1.66
   1  11  -5   15.97    1.97
  -1 -11   4   27.36    2.54
  -1 -11   4   25.93    2.50
   1  11  -4   29.68    3.15
   1  11  -4   30.68    3.00
   1  11  -3  184.79    9.40
   1  11  -3  201.76    9.32
  -1 -11   3  158.56    8.09
  -1 -11   3  163.31    7.96
  -1 -11   3  163.97    8.09
   1  11  -3  182.14    8.96
   1  11  -2   19.35    2.69
  -1 -11   2   15.80    2.14
  -1 -11   2   17.04    2.27
   1  11  -2   16.60    2.41
  -1 -11   2   18.23    2.20
  -1 -11   2   18.73    2.18
   1  11  -1    8.42    1.86
   1  11  -1    7.44    1.53
  -1 -11   1    5.77    1.35
  -1 -11   1    7.39    1.56
   1  11  -1    6.85    1.63
  -1 -11   1    5.88    1.12
  -1 -11   1    6.92    1.30
   1  11   0   28.73    3.55
   1  11   0   31.62    3.59
  -1 -11   0   29.27    3.30
  -1 -11   0   27.24    3.06
  -1 -11   0   27.34    2.63
   1  11   0   25.10    2.97
   1  11   1    1.62    0.98
   1  11   1    2.77    1.20
  -1 -11  -1    1.48    0.65
  -1 -11  -1    1.43    0.64
   1  11   1    0.54    0.20
   1  11   2    1.58    0.84
   1  11   2    0.72    0.38
  -1 -11  -2    1.95    0.74
  -1 -11  -2    2.39    0.98
  -1 -11  -2    3.34    0.90
   1  11   3    5.55    1.41
   1  11   3    4.44    1.10
   1  11   3    4.65    1.28
  -1 -11  -3    3.60    0.98
  -1 -11  -3    3.94    1.16
  -1 -11  -3    3.77    1.12
   1  11   4   24.05    2.81
   1  11   4   31.77    3.34
  -1 -11  -4   23.57    2.59
  -1 -11  -4   24.20    2.71
  -1 -11  -4   24.74    2.52
   1  11   4   26.92    2.90
   1  11   5  206.42    9.22
   1  11   5  250.79   10.34
  -1 -11  -5  195.24    8.89
  -1 -11  -5  198.78    8.93
  -1 -11  -5  182.67    8.17
   1  11   5  243.76   10.01
   1  12   0   91.00    5.25
  -1 -12   0   69.37    4.12
   1  12   1   -0.28    0.35
  -1 -12  -1    0.61    0.34
   2 -10  -4    6.06    1.36
   2 -10  -4    6.65    1.14
  -2  10   4    9.41    1.62
  -2  10   4    8.74    1.93
  -2  10   4    7.62    1.69
  -2  10   3   86.75    6.87
   2 -10  -3   59.32    5.24
  -2  10   3   71.32    4.94
   2 -10  -3   62.57    3.90
   2 -10  -3   71.44    4.49
  -2  10   3   76.25    5.17
  -2  10   3   84.44    6.57
  -2  10   3   78.39    5.41
  -2  10   2    9.22    2.33
  -2  10   2    8.35    1.61
  -2  10   2    9.80    1.77
   2 -10  -2    7.64    1.39
  -2  10   2    7.98    1.58
   2 -10  -2    7.10    1.29
  -2  10   2    8.27    2.08
   2 -10  -2   10.47    1.44
   2 -10  -2    6.18    1.60
  -2  10   2   10.45    1.86
  -2  10   1  183.65    9.54
  -2  10   1  164.23    9.16
  -2  10   1  193.88   11.38
   2 -10  -1  155.78    7.64
   2 -10  -1  152.30    7.68
  -2  10   1  176.48    8.68
   2 -10  -1  146.21    7.54
  -2  10   1  176.38    8.89
   2 -10  -1  133.23    9.21
   2 -10  -1  149.21    7.20
  -2  10   1  175.49   10.80
  -2  10   1  198.71   11.77
  -2  10   0    0.13    0.68
  -2  10   0   -0.89    0.58
  -2  10   0    1.13    0.68
  -2  10   0    0.05    0.74
   2 -10   0    0.47    0.46
   2 -10   0    0.50    0.52
  -2  10   0   -1.54    0.86
   2 -10   0    0.77    0.87
   2 -10   0    0.98    0.63
  -2  10   0    0.12    0.72
  -2  10  -1   51.35    4.74
  -2  10  -1   48.77    4.52
   2 -10   1   38.45    3.33
  -2  10  -1   47.77    5.41
  -2  10  -1   45.02    5.15
  -2  10  -1   45.22    5.13
   2 -10   1   41.58    3.30
  -2  10  -2   25.26    3.23
  -2  10  -2   20.81    2.76
  -2  10  -2   21.55    3.59
   2 -10   2   19.15    2.17
  -2  10  -2   18.51    3.21
  -2  10  -2   20.35    3.29
   2 -10   2   19.52    2.15
  -2  10  -3    4.43    1.22
  -2  10  -3    3.22    1.71
  -2  10  -3    2.40    0.83
   2 -10   3    2.37    0.67
  -2  10  -3    3.69    1.28
  -2  10  -3    2.92    1.16
   2 -10   3    2.98    0.85
  -2  10  -4   64.88    4.55
   2 -10   4   53.90    3.53
  -2  10  -4   69.12    5.84
  -2  10  -4   67.63    5.60
  -2  10  -4   62.38    5.34
   2 -10   4   53.49    3.47
   2  -9  -6   57.89    3.94
  -2   9   6   60.52    4.63
  -2   9   6   62.69    5.06
  -2   9   6   68.36    5.78
   2  -9  -6   49.31    4.67
  -2   9   6   67.11    5.97
  -2   9   5    3.45    1.00
  -2   9   5    1.62    0.66
   2  -9  -5    2.46    0.55
  -2   9   5    2.90    1.54
  -2   9   5    2.62    1.51
   2  -9  -5    2.56    1.08
  -2   9   5    4.63    1.51
   2  -9  -5    3.75    1.06
  -2   9   4    7.46    1.72
   2  -9  -4    8.51    1.63
   2  -9  -4    8.49    1.44
  -2   9   4    8.48    2.06
   2  -9  -4    6.89    1.93
  -2   9   4   12.42    2.74
  -2   9   4   11.75    2.43
  -2   9   4   10.95    2.77
  -2   9   3   39.07    4.13
  -2   9   3   35.13    4.12
   2  -9  -3   37.09    3.67
   2  -9  -3   35.40    4.80
  -2   9   3   33.96    4.19
   2  -9  -3   31.18    3.07
   2  -9  -3   31.59    2.78
  -2   9   3   41.96    5.54
  -2   9   3   41.61    4.86
  -2   9   3   41.82    5.82
  -2   9   2   61.77    5.76
  -2   9   2   61.93    5.88
   2  -9  -2   54.00    4.67
  -2   9   2   58.81    5.67
   2  -9  -2   52.88    6.07
   2  -9  -2   53.00    4.37
  -2   9   2   70.42    7.55
  -2   9   2   61.02    6.08
  -2   9   2   77.59    8.15
   2  -9  -2   53.88    4.02
   2  -9  -1    8.06    1.48
  -2   9   1    8.74    2.18
  -2   9   1    8.67    2.19
  -2   9   1   10.12    2.10
   2  -9  -1    8.97    1.69
   2  -9  -1    7.75    1.66
  -2   9   1   12.12    3.24
   2  -9  -1    8.77    2.55
  -2   9   1   12.61    3.27
  -2   9   1    9.92    2.43
  -2   9   0    6.40    2.54
  -2   9   0    5.73    1.85
  -2   9   0    5.55    1.92
   2  -9   0    4.61    1.35
  -2   9   0    5.20    1.56
   2  -9   0    4.05    1.10
   2  -9   0    4.61    1.24
   2  -9   0    2.08    1.46
  -2   9   0    3.78    1.51
  -2   9   0    4.08    1.89
  -2   9  -1   23.26    3.75
  -2   9  -1   18.74    3.22
  -2   9  -1   16.23    3.66
   2  -9   1   17.79    2.47
   2  -9   1   16.99    3.45
  -2   9  -1   19.79    2.89
  -2   9  -1   17.59    2.87
   2  -9   1   17.52    2.56
  -2   9  -1   16.47    3.45
   2  -9   1   16.13    2.21
  -2   9  -1   18.95    4.17
  -2   9  -2   35.50    4.56
  -2   9  -2   38.25    4.64
  -2   9  -2   39.06    5.44
   2  -9   2   29.52    3.11
   2  -9   2   28.58    3.27
  -2   9  -2   33.53    5.08
  -2   9  -2   43.79    6.03
   2  -9   2   28.42    4.53
   2  -9   3    3.45    0.79
  -2   9  -3    7.17    1.89
  -2   9  -3    4.19    1.43
   2  -9   3    6.05    1.44
  -2   9  -3    4.63    1.78
  -2   9  -3    4.80    2.02
   2  -9   3    3.94    1.10
  -2   9  -3    7.03    1.70
  -2   9  -3    3.20    1.65
   2  -9   4    8.13    1.26
  -2   9  -4    7.27    1.92
  -2   9  -4    7.45    1.75
  -2   9  -4    9.63    2.38
   2  -9   4    7.18    1.48
  -2   9  -4    8.60    2.42
   2  -9   4    6.70    1.42
  -2   9  -4    6.55    2.10
  -2   9  -4    7.48    1.75
  -2   9  -5   42.81    4.20
  -2   9  -5   45.13    4.04
   2  -9   5   37.01    3.29
  -2   9  -5   45.38    5.32
  -2   9  -5   46.46    5.31
   2  -9   5   40.96    3.35
  -2   9  -5   51.88    4.59
  -2   9  -5   44.46    5.49
   2  -9   5   34.75    2.80
   2  -9   6  144.36    6.60
  -2   9  -6  166.84    7.93
  -2   9  -6  153.20    9.75
  -2   9  -6  140.40    9.01
  -2   9  -6  149.30    9.45
   2  -9   6  140.01    6.69
   2  -9   6  137.97    6.67
  -2   9  -6  164.85   10.22
  -2   9  -6  186.26    8.98
   2  -9   7   56.11    3.25
  -2   9  -7   59.62    5.03
  -2   9  -7   57.44    4.86
  -2   9  -7   57.98    5.08
  -2   9  -7   57.20    4.72
  -2   9  -7   66.21    4.44
  -2   8   8    1.28    0.59
  -2   8   8    1.81    0.64
  -2   8   8    1.70    0.93
   2  -8  -8    2.45    0.59
  -2   8   8    1.92    0.61
  -2   8   8    2.10    0.85
   2  -8  -8    3.49    1.15
  -2   8   8    2.43    0.80
   2  -8  -8    2.96    1.08
  -2   8   7   32.26    4.48
  -2   8   7   28.48    3.64
   2  -8  -7   29.91    2.89
   2  -8  -7   26.02    2.65
   2  -8  -7   23.05    3.34
  -2   8   7   33.44    3.52
  -2   8   7   25.77    2.82
   2  -8  -7   26.47    3.53
  -2   8   7   27.01    3.94
  -2   8   7   22.41    2.61
  -2   8   6   28.80    3.22
   2  -8  -6   29.28    3.06
  -2   8   6   29.84    3.79
   2  -8  -6   26.18    2.50
  -2   8   6   35.04    5.17
   2  -8  -6   29.18    4.13
  -2   8   6   36.59    4.99
  -2   8   6   33.35    4.36
   2  -8  -6   31.38    4.26
  -2   8   6   31.08    3.40
  -2   8   5    5.78    1.61
   2  -8  -5    2.99    1.11
  -2   8   5    6.50    1.68
  -2   8   5    6.23    1.88
  -2   8   5    4.93    1.81
   2  -8  -5    5.03    1.48
  -2   8   5    4.72    1.38
  -2   8   5    5.40    2.19
  -2   8   5    5.32    2.02
   2  -8  -5    3.84    1.57
   2  -8  -5    5.98    1.30
  -2   8   4  107.24    7.85
   2  -8  -4   95.33    6.06
   2  -8  -4   97.32    6.66
  -2   8   4  112.72    8.62
   2  -8  -4   94.61    5.45
  -2   8   4  111.12   10.44
  -2   8   4  114.51   10.15
   2  -8  -4  103.10    8.90
  -2   8   4  108.67    9.07
   2  -8  -4  101.01    8.82
  -2   8   4   99.77    6.99
  -2   8   3   54.36    5.55
  -2   8   3   60.91    6.02
   2  -8  -3   53.44    6.44
   2  -8  -3   50.86    4.74
  -2   8   3   55.51    5.98
   2  -8  -3   50.78    4.37
  -2   8   3   59.41    7.36
   2  -8  -3   50.48    6.26
  -2   8   3   69.00    8.31
   2  -8  -3   53.00    3.97
  -2   8   3   63.11    6.89
  -2   8   2    3.36    1.61
  -2   8   2    5.73    2.00
   2  -8  -2    4.49    1.40
   2  -8  -2    4.57    1.24
  -2   8   2    7.10    2.63
  -2   8   2    3.92    1.81
  -2   8   2    1.83    1.05
   2  -8  -2    3.16    1.33
   2  -8  -2    4.97    1.16
  -2   8   2    4.94    1.85
  -2   8   1   29.81    4.28
  -2   8   1   25.21    4.05
   2  -8  -1   21.44    2.62
   2  -8  -1   22.22    3.10
   2  -8  -1   21.69    2.88
  -2   8   1   25.25    3.99
  -2   8   1   27.40    6.00
  -2   8   1   30.19    5.61
  -2   8   1   33.44    5.44
   2  -8  -1   22.79    4.35
  -2   8   1   27.32    4.31
  -2   8   0   14.41    3.11
  -2   8   0   12.39    2.70
   2  -8   0   12.43    2.31
  -2   8   0   13.45    4.08
   2  -8   0   11.85    2.13
  -2   8   0   16.42    4.05
  -2   8   0   16.10    3.84
   2  -8   0   13.19    3.24
   2  -8   0   12.21    2.05
  -2   8   0   16.43    3.32
  -2   8   0   14.92    3.11
  -2   8   0   14.05    3.88
  -2   8  -1    5.50    2.10
  -2   8  -1    3.71    1.27
  -2   8  -1    5.51    1.82
   2  -8   1    4.80    1.40
  -2   8  -1    3.55    2.34
  -2   8  -1    4.06    1.88
   2  -8   1    3.21    1.01
  -2   8  -1    4.10    2.04
  -2   8  -1    4.50    2.15
   2  -8   1    4.67    2.08
   2  -8   1    5.96    1.45
  -2   8  -1    5.73    2.68
   2  -8   2   51.88    3.75
  -2   8  -2   60.61    6.53
  -2   8  -2   54.97    7.10
  -2   8  -2   59.33    6.26
  -2   8  -2   61.07    8.99
   2  -8   2   52.93    4.81
  -2   8  -2   64.23    5.83
  -2   8  -2   58.44    7.52
  -2   8  -2   50.87    6.79
   2  -8   2   45.24    6.19
  -2   8  -2   58.15    8.36
   2  -8   2   49.92    4.37
  -2   8  -2   57.23    5.79
   2  -8   3   47.25    3.62
  -2   8  -3   50.40    5.88
  -2   8  -3   47.84    5.45
   2  -8   3   48.37    4.53
  -2   8  -3   57.54    7.32
  -2   8  -3   54.34    6.98
  -2   8  -3   46.78    6.27
   2  -8   3   42.44    5.91
   2  -8   3   45.83    4.20
  -2   8  -3   45.65    7.46
  -2   8  -3   46.23    5.14
   2  -8   4    7.99    1.35
  -2   8  -4    6.92    1.81
  -2   8  -4   10.25    2.37
  -2   8  -4   11.27    3.07
   2  -8   4    6.85    1.63
  -2   8  -4   11.65    3.08
  -2   8  -4    8.91    2.80
   2  -8   4    6.16    1.36
  -2   8  -4    7.35    1.97
  -2   8  -5   36.68    5.30
  -2   8  -5   47.36    6.17
  -2   8  -5   55.97    5.63
   2  -8   5   41.25    3.42
  -2   8  -5   43.42    4.91
  -2   8  -5   39.54    4.48
   2  -8   5   38.25    3.82
   2  -8   5   38.63    3.69
  -2   8  -5   41.97    5.98
  -2   8  -6   13.64    3.24
   2  -8   6   12.84    1.82
  -2   8  -6   13.59    2.37
  -2   8  -6    9.88    1.85
  -2   8  -6    8.72    2.49
  -2   8  -6   13.62    3.26
   2  -8   6    8.85    1.67
  -2   8  -6   12.02    2.37
   2  -8   6   10.51    1.68
  -2   8  -7   50.03    5.74
   2  -8   7   43.85    3.42
  -2   8  -7   49.21    5.59
  -2   8  -7   44.18    5.08
  -2   8  -7   44.48    5.15
   2  -8   7   46.28    3.35
   2  -8   8    7.83    1.24
  -2   8  -8    8.71    1.91
  -2   8  -8    6.38    1.80
  -2   8  -8    8.25    1.90
  -2   8  -8    7.42    1.92
  -2   8  -8    9.15    1.73
  -2   8  -9   20.27    2.46
  -2   8  -9   27.20    2.51
  -2   7   9   18.32    2.90
   2  -7  -9   13.15    1.89
   2  -7  -9   16.39    1.74
  -2   7   9   18.77    2.31
  -2   7   9   15.56    2.23
  -2   7   9   20.71    3.14
   2  -7  -9   17.53    2.52
   2  -7  -9   19.36    2.05
   2  -7  -9   15.29    2.39
  -2   7   9   18.78    2.35
   2  -7  -8   52.67    5.28
   2  -7  -8   59.23    4.67
   2  -7  -8   50.51    3.87
  -2   7   8   53.81    4.56
  -2   7   8   59.72    6.15
  -2   7   8   58.34    6.36
  -2   7   8   55.39    4.71
   2  -7  -8   60.93    5.61
  -2   7   8   56.78    5.38
   2  -7  -8   53.60    4.25
  -2   7   8   48.78    4.46
  -2   7   7  124.60    9.98
   2  -7  -7  115.49    8.85
   2  -7  -7  104.12    7.07
   2  -7  -7  103.21    5.66
   2  -7  -7  119.22    8.96
   2  -7  -7  110.59    6.61
  -2   7   7  117.58    8.04
  -2   7   7  126.90   10.65
   2  -7  -7  110.22    7.00
  -2   7   7  118.33    8.87
  -2   7   7  108.50    7.53
  -2   7   7  107.74    7.52
   2  -7  -6  232.24   12.16
   2  -7  -6  232.68   11.43
   2  -7  -6  263.33   14.99
  -2   7   6  253.70   13.72
   2  -7  -6  229.04   10.47
  -2   7   6  265.39   17.05
  -2   7   6  236.69   12.69
   2  -7  -6  249.35   12.15
  -2   7   6  258.09   14.99
  -2   7   6  264.38   16.33
   2  -7  -6  273.55   15.19
  -2   7   6  224.56   12.59
   2  -7  -5  242.84   16.36
  -2   7   5  263.29   13.56
   2  -7  -5  267.78   13.17
   2  -7  -5  258.61   12.33
  -2   7   5  274.65   14.89
   2  -7  -5  250.80   11.46
  -2   7   5  301.35   18.74
  -2   7   5  250.79   13.48
  -2   7   5  278.76   17.35
   2  -7  -5  279.48   16.04
   2  -7  -5  256.63   10.63
  -2   7   5  271.93   16.13
   2  -7  -5  292.82   16.34
  -2   7   5  252.65   13.60
   2  -7  -4   99.19    9.61
  -2   7   4  104.94    8.09
   2  -7  -4  111.48    7.20
  -2   7   4  110.78    8.90
   2  -7  -4  103.44    6.48
  -2   7   4  105.08   10.71
   2  -7  -4   98.22    9.30
  -2   7   4  102.35    7.63
  -2   7   4  110.14   10.42
   2  -7  -4  105.68    9.37
   2  -7  -4  116.75    9.76
   2  -7  -4  100.11    5.74
  -2   7   4  116.47    9.98
  -2   7   4  104.08    7.84
  -2   7   3  210.61   12.51
  -2   7   3  226.41   13.15
  -2   7   3  234.79   17.70
   2  -7  -3  221.59   14.60
   2  -7  -3  220.84   11.30
  -2   7   3  228.62   13.83
  -2   7   3  258.29   17.34
   2  -7  -3  201.42   14.34
   2  -7  -3  234.34   14.90
  -2   7   3  243.14   16.31
   2  -7  -3  224.05    9.96
  -2   7   3  244.23   15.18
  -2   7   3  226.85   12.11
   2  -7  -3  219.13   10.70
  -2   7   3  218.75   12.21
  -2   7   2   29.59    4.22
   2  -7  -2   29.98    2.92
  -2   7   2   29.53    4.31
   2  -7  -2   27.89    3.37
  -2   7   2   28.97    4.80
  -2   7   2   31.81    5.35
  -2   7   2   32.30    4.67
  -2   7   2   35.04    6.52
   2  -7  -2   27.79    3.12
  -2   7   2   38.55    6.19
   2  -7  -2   28.09    4.80
   2  -7  -2   32.99    5.05
   2  -7  -2   24.08    4.49
   2  -7  -1    5.03    2.03
  -2   7   1    7.12    2.04
  -2   7   1    4.66    1.59
  -2   7   1    9.57    2.62
   2  -7  -1    5.35    1.33
  -2   7   1    5.93    2.74
  -2   7   1    8.98    2.75
  -2   7   1    9.32    3.32
   2  -7  -1    5.73    1.18
   2  -7  -1    5.91    2.25
  -2   7   1    5.20    2.08
   2  -7  -1    4.52    1.80
   2  -7  -1    6.93    1.66
  -2   7   1    6.47    2.72
  -2   7   0    2.02    1.35
  -2   7   0    3.53    1.29
  -2   7   0    5.66    1.90
   2  -7   0    3.21    1.07
   2  -7   0    3.69    1.12
  -2   7   0    2.64    2.00
   2  -7   0    4.44    1.30
  -2   7   0    3.33    1.59
  -2   7   0    4.07    1.72
   2  -7   0    6.30    2.45
  -2   7   0    5.05    1.84
  -2   7   0    2.29    1.47
   2  -7   0    4.36    1.81
   2  -7   1   78.16    4.57
  -2   7  -1   71.26    8.93
  -2   7  -1   80.12    7.61
  -2   7  -1   71.68    7.07
  -2   7  -1   78.02   10.11
   2  -7   1   77.92    8.16
   2  -7   1   78.60    5.89
  -2   7  -1   73.39    6.80
  -2   7  -1   89.41    9.32
  -2   7  -1   78.28    7.36
  -2   7  -1   81.89    8.72
   2  -7   1   67.81    7.70
   2  -7   1   70.21    5.10
   2  -7   1   73.00    5.67
   2  -7   2  360.93   13.70
  -2   7  -2  378.42   19.06
  -2   7  -2  358.81   20.39
  -2   7  -2  350.99   18.16
  -2   7  -2  369.40   17.99
  -2   7  -2  390.30   24.55
  -2   7  -2  351.87   16.87
  -2   7  -2  352.04   17.04
   2  -7   2  344.78   14.79
   2  -7   2  332.40   15.35
  -2   7  -2  396.63   21.72
  -2   7  -2  355.79   22.56
   2  -7   2  295.90   18.69
   2  -7   3  408.53   15.43
  -2   7  -3  422.65   20.58
  -2   7  -3  396.76   19.57
  -2   7  -3  450.04   26.21
   2  -7   3  341.60   20.56
   2  -7   3  377.33   16.97
  -2   7  -3  418.82   22.27
  -2   7  -3  399.32   21.77
   2  -7   3  391.82   16.44
  -2   7  -3  408.28   19.14
  -2   7  -3  416.28   24.86
  -2   7  -3  439.53   23.27
  -2   7  -4   98.72   12.86
   2  -7   4   90.15    5.43
  -2   7  -4   84.68    7.77
  -2   7  -4   76.62    7.11
  -2   7  -4   98.88   10.97
   2  -7   4   85.39    5.65
  -2   7  -4   82.32    8.76
  -2   7  -4   84.89    8.70
   2  -7   4   80.19    5.83
   2  -7   4   79.91    6.14
  -2   7  -4   89.44    9.31
  -2   7  -4   86.10    7.53
  -2   7  -4   91.06   10.59
   2  -7   5   13.66    1.96
  -2   7  -5   10.57    2.52
  -2   7  -5   10.21    2.30
  -2   7  -5   15.67    3.99
   2  -7   5   11.80    1.97
  -2   7  -5   11.14    3.15
   2  -7   5   11.04    2.14
   2  -7   5   13.59    2.19
  -2   7  -5   12.94    3.56
  -2   7  -5   14.26    3.39
  -2   7  -5   10.97    4.25
  -2   7  -5   10.76    2.51
  -2   7  -5    9.07    3.10
   2  -7   6    1.91    0.64
  -2   7  -6    3.91    1.48
  -2   7  -6    2.66    1.09
   2  -7   6    1.49    0.83
   2  -7   6    2.34    1.05
  -2   7  -6    0.87    0.76
  -2   7  -6   -0.22    0.94
  -2   7  -6    2.85    1.95
   2  -7   6    1.11    0.24
  -2   7  -6    2.81    1.32
  -2   7  -6    0.72    0.96
  -2   7  -6    1.85    0.98
   2  -7   7   40.59    3.52
  -2   7  -7   39.48    4.14
  -2   7  -7   41.61    4.17
   2  -7   7   37.13    3.59
  -2   7  -7   36.68    5.39
  -2   7  -7   39.00    5.31
  -2   7  -7   37.60    5.13
  -2   7  -7   36.64    5.37
  -2   7  -7   44.06    4.96
  -2   7  -7   42.68    4.33
   2  -7   8   10.70    1.62
  -2   7  -8    9.63    2.68
   2  -7   8   11.62    1.80
  -2   7  -8    8.57    2.25
  -2   7  -8    8.74    2.37
  -2   7  -8   12.73    2.72
  -2   7  -8   12.34    2.40
  -2   7  -8   11.49    2.02
   2  -7   9    0.84    0.47
  -2   7  -9    0.63    0.34
  -2   7  -9    0.68    0.46
  -2   7  -9    1.74    0.95
   2  -7   9   -0.03    0.26
  -2   7  -9    0.17    0.39
  -2   7  -9    0.28    0.28
  -2   7  -9   -0.50    0.72
   2  -7  10   11.75    1.31
  -2   7 -10   12.15    1.90
  -2   7 -10   12.09    2.06
  -2   7 -10    9.84    1.85
  -2   7 -10    9.54    1.76
  -2   7 -10   14.08    1.80
   2  -6 -10  101.16    5.80
   2  -6 -10   86.18    4.42
  -2   6  10  112.52    7.72
  -2   6  10  109.11    7.31
   2  -6 -10  100.08    6.45
   2  -6 -10   94.11    5.40
   2  -6 -10   99.63    6.35
  -2   6  10  103.65    5.97
  -2   6  10   98.44    5.94
   2  -6  -9  122.61    8.31
   2  -6  -9  113.83    7.06
   2  -6  -9  108.03    5.94
  -2   6   9  117.01    9.46
  -2   6   9  104.36    7.13
  -2   6   9  122.07    9.06
   2  -6  -9  101.49    6.61
   2  -6  -9  118.68    8.19
  -2   6   9  120.41    7.81
  -2   6   9  111.70    7.34
   2  -6  -8   30.19    4.27
   2  -6  -8   31.83    4.36
   2  -6  -8   27.86    3.41
   2  -6  -8   27.46    2.92
  -2   6   8   26.12    3.37
  -2   6   8   28.09    3.64
  -2   6   8   26.33    4.37
  -2   6   8   29.62    4.17
  -2   6   8   29.17    5.04
   2  -6  -8   28.13    2.47
   2  -6  -8   25.80    3.25
  -2   6   8   26.02    3.60
   2  -6  -7   80.59    6.42
   2  -6  -7   78.55    5.59
   2  -6  -7   94.44    8.34
  -2   6   7   83.82    6.97
  -2   6   7   84.29    9.15
  -2   6   7   79.99    8.38
  -2   6   7   82.48    6.88
   2  -6  -7   83.55    6.40
   2  -6  -7   88.24    7.94
  -2   6   7   77.34    7.46
   2  -6  -7   81.24    5.06
  -2   6   7   81.28    6.90
   2  -6  -6  142.88   11.86
   2  -6  -6  157.92    9.56
   2  -6  -6  178.57   12.06
   2  -6  -6  154.13    9.55
   2  -6  -6  157.42    8.73
  -2   6   6  164.39   10.68
  -2   6   6  151.49   12.47
   2  -6  -6  162.72    8.16
  -2   6   6  167.76   13.71
   2  -6  -6  172.64   11.98
  -2   6   6  149.87   10.16
  -2   6   6  163.51   10.43
   2  -6  -6  146.81   11.25
  -2   6   6  160.47   11.64
   2  -6  -5   94.83    9.23
   2  -6  -5   86.51    6.85
   2  -6  -5   95.79    6.46
   2  -6  -5  111.07    9.29
  -2   6   5  100.37    9.95
  -2   6   5   91.46    7.83
  -2   6   5  102.75   10.54
   2  -6  -5   88.41    8.51
  -2   6   5  104.35    7.97
   2  -6  -5  113.95    9.56
   2  -6  -5  105.39    7.36
   2  -6  -5  100.89    5.46
  -2   6   5   97.59    8.94
   2  -6  -5  104.60    6.21
  -2   6   5  101.30    7.96
   2  -6  -4  159.12   12.35
  -2   6   4  179.63   10.85
   2  -6  -4  181.11    9.15
  -2   6   4  190.51   14.59
   2  -6  -4  190.62    9.74
  -2   6   4  186.85   11.83
  -2   6   4  178.06   14.23
   2  -6  -4  179.74   12.42
  -2   6   4  192.87   11.31
  -2   6   4  180.08   13.73
   2  -6  -4  193.37   13.01
   2  -6  -4  202.15   13.08
   2  -6  -4  195.57    8.53
  -2   6   4  182.95   12.81
  -2   6   4  179.00   11.06
   2  -6  -3  157.54   15.37
   2  -6  -3  142.64   11.05
  -2   6   3  132.08    9.02
  -2   6   3  132.81   12.56
  -2   6   3  145.83    9.64
  -2   6   3  136.77   11.58
  -2   6   3  148.17   13.06
   2  -6  -3  135.67    7.96
   2  -6  -3  146.28    7.14
  -2   6   3  151.75   10.27
   2  -6  -3  147.27    7.82
  -2   6   3  144.44   12.49
  -2   6   3  134.29    9.00
   2  -6  -3  135.22   10.50
   2  -6  -3  148.15   11.08
   2  -6  -3  154.20   11.27
  -2   6   3  141.42   11.01
   2  -6  -3  180.62   19.14
   2  -6  -3  140.35   16.64
  -2   6   3  158.79   17.86
  -2   6   3  165.12   17.62
  -2   6   3  145.76   16.64
   2  -6  -3  139.68   13.35
  -2   6   3  142.94    9.38
  -2   6   3  149.49   15.84
   2  -6  -2  155.98   15.38
   2  -6  -2  150.71   11.04
  -2   6   2  169.03   16.50
  -2   6   2  134.43    9.36
  -2   6   2  148.89   12.90
  -2   6   2  152.34   10.04
  -2   6   2  149.26   13.28
   2  -6  -2  149.70    8.30
  -2   6   2  154.55   10.45
   2  -6  -2  152.03    8.06
  -2   6   2  168.12   12.94
  -2   6   2  152.39    9.19
  -2   6   2  148.88   11.81
   2  -6  -2  155.64   11.29
   2  -6  -2  157.66   17.58
  -2   6   2  160.57   11.46
   2  -6  -2  132.99   10.40
   2  -6  -2  154.32   11.20
  -2   6   2  175.69   18.20
   2  -6  -2  146.10    7.32
   2  -6  -2  179.93   19.36
  -2   6   2  162.68   17.29
  -2   6   2  163.72   16.99
   2  -6  -2  128.04   12.77
  -2   6   2  169.16   17.46
  -2   6   2  137.10    9.00
  -2   6   1   79.66    9.07
  -2   6   1   89.78    7.33
  -2   6   1   95.51    7.71
  -2   6   1   99.15   10.50
   2  -6  -1   85.08    5.88
  -2   6   1   95.90    7.83
  -2   6   1   91.60    8.86
  -2   6   1  113.82   10.17
   2  -6  -1   82.17    7.77
   2  -6  -1   94.70   13.25
   2  -6  -1   95.27    8.49
   2  -6  -1   96.18    5.46
  -2   6   1   79.51    8.33
  -2   6   1  104.47    8.70
  -2   6   1  104.94   13.55
  -2   6   1   76.88    8.19
   2  -6  -1  114.39   15.46
   2  -6  -1   92.03    8.34
  -2   6   1  102.22   13.35
   2  -6  -1   89.51    5.80
   2  -6  -1   83.17    9.97
  -2   6   1   94.24   12.35
  -2   6   1  105.56   13.11
  -2   6   1   79.31    6.33
  -2   6   1   99.46   12.15
   2  -6  -1   85.46   11.08
  -2   6   0  330.90   20.32
   2  -6   0  417.91   13.38
  -2   6   0  359.64   18.27
  -2   6   0  317.75   16.83
  -2   6   0  346.49   17.33
   2  -6   0  326.94   18.30
  -2   6   0  372.32   22.56
   2  -6   0  334.43   14.71
  -2   6   0  346.34   19.24
  -2   6   0  353.03   17.33
  -2   6   0  363.17   19.25
  -2   6   0  343.44   25.89
   2  -6   0  413.55   31.69
  -2   6   0  393.89   20.78
   2  -6   0  317.49   17.70
   2  -6   0  356.81   13.93
   2  -6   0  327.02   14.38
   2  -6   0  308.72   26.10
  -2   6   0  307.49   19.30
   2  -6   0  356.69   22.44
  -2   6   0  336.52   25.47
  -2   6   0  347.02   25.11
   2  -6   0  336.15   18.37
  -2   6   0  370.40   25.81
  -2   6   0  333.05   23.81
   2  -6   0  289.48   22.55
  -2   6  -1   75.45    8.74
   2  -6   1   98.88    4.91
  -2   6  -1   87.12    7.56
  -2   6  -1   86.35    7.48
   2  -6   1   79.71    7.64
   2  -6   1   84.88    5.76
   2  -6   1   83.30    5.79
  -2   6  -1   94.42    8.75
  -2   6  -1   85.83    7.12
  -2   6  -1   95.80    9.16
   2  -6   1   80.00    7.96
  -2   6  -1   89.20    7.67
   2  -6   1   82.02    5.20
  -2   6  -1   83.75    9.04
   2  -6   1   77.04   12.45
  -2   6  -1   85.62   12.11
   2  -6   1  112.47   16.46
  -2   6  -1   94.60   12.49
  -2   6  -1   76.04   10.97
   2  -6   1   89.13   10.44
  -2   6  -1   81.69   11.24
  -2   6  -1   90.86   10.47
  -2   6  -1   69.46    7.42
  -2   6  -1   86.33   11.27
   2  -6   1   64.09    9.84
   2  -6   2  221.49    8.54
  -2   6  -2  183.00   11.85
  -2   6  -2  185.33   11.60
   2  -6   2  163.77   12.29
  -2   6  -2  194.19   15.72
   2  -6   2  172.81    9.30
  -2   6  -2  165.39   10.40
  -2   6  -2  204.46   12.88
  -2   6  -2  188.44   13.50
  -2   6  -2  185.32   13.05
   2  -6   2  208.47   23.82
   2  -6   2  175.75    8.76
  -2   6  -2  172.74   11.21
  -2   6  -2  186.43   17.62
  -2   6  -2  164.06   10.28
   2  -6   2  162.66   19.05
   2  -6   2  236.16   17.55
  -2   6  -2  171.13   17.53
  -2   6  -2  187.68   14.61
  -2   6  -2  179.74   17.95
  -2   6  -2  184.48   17.72
  -2   6  -2  169.78   16.37
  -2   6  -3  426.27   28.86
   2  -6   3  371.48   31.65
   2  -6   3  516.25   17.38
  -2   6  -3  455.91   23.50
   2  -6   3  411.67   22.58
  -2   6  -3  485.47   22.17
  -2   6  -3  467.98   21.49
  -2   6  -3  410.14   29.62
  -2   6  -3  477.71   21.06
  -2   6  -3  521.42   27.89
  -2   6  -3  455.09   28.42
   2  -6   3  450.98   17.96
   2  -6   3  454.58   18.78
  -2   6  -3  465.38   20.81
  -2   6  -3  538.83   23.32
   2  -6   3  458.81   18.74
  -2   6  -3  467.18   26.16
   2  -6   3  500.22   40.44
  -2   6  -3  498.32   24.67
  -2   6  -3  457.94   29.97
  -2   6  -3  487.98   30.68
  -2   6  -3  446.87   30.45
  -2   6  -3  463.37   29.24
   2  -6   4  158.70    7.54
  -2   6  -4  151.08   10.63
  -2   6  -4  134.46    9.78
  -2   6  -4  152.71   10.33
  -2   6  -4  152.74   13.72
   2  -6   4  145.25    8.55
   2  -6   4  167.63    8.47
  -2   6  -4  149.79   11.90
  -2   6  -4  132.92   11.15
   2  -6   4  133.27   11.29
   2  -6   4  141.72    7.97
  -2   6  -4  159.35   12.55
  -2   6  -4  174.69   16.99
   2  -6   4  142.94    8.72
  -2   6  -4  156.27   13.74
   2  -6   5  113.39    6.26
  -2   6  -5  112.24    8.79
  -2   6  -5  100.12    8.08
  -2   6  -5  108.21   11.04
   2  -6   5  107.81    6.78
  -2   6  -5  109.38   10.01
  -2   6  -5   99.33    9.45
   2  -6   5   98.31    6.88
  -2   6  -5  104.10   10.10
   2  -6   5  106.87    6.70
  -2   6  -5  111.18   14.02
   2  -6   5  103.42    7.47
  -2   6  -5  106.93   11.33
  -2   6  -5  114.50    8.90
  -2   6  -5  114.14    7.91
   2  -6   6   41.41    3.64
  -2   6  -6   41.54    4.94
  -2   6  -6   38.90    4.60
   2  -6   6   40.31    3.12
   2  -6   6   41.58    4.08
  -2   6  -6   36.35    5.90
   2  -6   6   40.32    3.96
  -2   6  -6   36.73    6.60
  -2   6  -6   38.07    5.99
  -2   6  -6   36.71    5.70
  -2   6  -6   42.05    5.91
   2  -6   6   37.11    3.66
   2  -6   6   34.68    4.29
  -2   6  -6   41.52    8.65
  -2   6  -6   38.04    5.02
  -2   6  -6   40.89    4.63
  -2   6  -7   46.06    6.15
   2  -6   7   51.58    4.19
  -2   6  -7   55.66    5.35
  -2   6  -7   49.92    5.02
   2  -6   7   52.98    3.74
  -2   6  -7   49.18    9.37
  -2   6  -7   52.88    5.27
  -2   6  -7   52.59    6.85
   2  -6   7   46.92    4.41
  -2   6  -7   49.83    6.54
   2  -6   7   53.73    5.49
  -2   6  -7   56.96    5.98
  -2   6  -7   49.03    7.11
   2  -6   8   94.99    5.95
  -2   6  -8   85.78    8.44
   2  -6   8   91.93    5.37
  -2   6  -8   91.18    8.52
  -2   6  -8  111.22    6.95
   2  -6   8   92.23    6.39
  -2   6  -8  103.33    8.01
  -2   6  -8   86.65    8.05
  -2   6  -8   96.46    9.25
  -2   6  -8  103.38    7.37
   2  -6   9   37.88    3.34
   2  -6   9   40.16    3.76
   2  -6   9   36.40    2.98
  -2   6  -9   44.79    3.99
  -2   6  -9   37.27    5.06
  -2   6  -9   35.62    4.83
  -2   6  -9   36.22    5.12
  -2   6  -9   41.83    4.46
  -2   6  -9   37.09    4.69
  -2   6  -9   44.86    4.31
   2  -6  10   47.51    3.45
   2  -6  10   47.05    3.21
  -2   6 -10   62.47    4.15
  -2   6 -10   50.05    5.23
  -2   6 -10   48.40    4.99
  -2   6 -10   49.44    4.85
  -2   6 -10   54.06    4.50
   2  -6  10   46.93    3.81
  -2   6 -10   50.16    5.35
  -2   6 -10   55.57    4.33
  -2   6 -11   44.90    4.11
  -2   6 -11   44.52    4.01
  -2   6 -11   42.40    3.76
  -2   6 -11   47.29    3.23
  -2   6 -11   39.64    3.57
   2  -5 -11  176.70    8.08
   2  -5 -11  171.71    7.87
  -2   5  11  182.31    7.82
  -2   5  11  183.31    9.91
  -2   5  11  179.43    8.08
  -2   5  11  164.95    9.14
   2  -5 -11  176.75    8.60
   2  -5 -11  176.74    8.58
  -2   5  11  155.50    6.78
  -2   5  11  174.26    8.18
   2  -5 -10  262.72   12.19
   2  -5 -10  259.65   10.51
  -2   5  10  270.12   15.17
   2  -5 -10  284.11   13.56
  -2   5  10  258.55   14.34
   2  -5 -10  273.94   12.27
  -2   5  10  249.61   11.03
   2  -5 -10  279.01   13.64
  -2   5  10  262.78   12.49
  -2   5  10  283.90   12.50
  -2   5  10  275.00   12.82
   2  -5  -9  115.19    7.54
   2  -5  -9  111.32    7.46
   2  -5  -9  114.07    6.35
  -2   5   9  111.61    7.73
  -2   5   9  119.82    8.12
  -2   5   9  111.01    9.51
   2  -5  -9  122.97    9.02
   2  -5  -9  128.34    9.08
  -2   5   9  124.19    8.45
  -2   5   9  115.79   10.22
  -2   5   9  111.17    6.80
  -2   5   9  122.67    8.19
   2  -5  -8  212.21   14.52
  -2   5   8  204.04   14.52
   2  -5  -8  223.95   11.97
   2  -5  -8  225.79   10.66
   2  -5  -8  230.90    9.97
  -2   5   8  221.15   15.76
  -2   5   8  247.07   13.12
   2  -5  -8  259.78   14.61
   2  -5  -8  224.23   11.99
   2  -5  -8  267.71   14.61
  -2   5   8  226.04   13.31
   2  -5  -8  229.18   16.98
  -2   5   8  241.20   12.87
  -2   5   8  214.91   11.04
  -2   5   8  243.34   13.14
  -2   5   7   12.50    2.68
   2  -5  -7   11.92    3.26
  -2   5   7   12.54    2.63
   2  -5  -7   11.52    2.29
   2  -5  -7   11.25    1.86
   2  -5  -7    9.41    1.61
  -2   5   7   11.34    2.47
  -2   5   7   11.42    2.45
  -2   5   7   10.53    2.76
   2  -5  -7   10.86    2.25
   2  -5  -7   14.30    3.05
  -2   5   7   10.62    2.74
   2  -5  -7   11.63    3.51
  -2   5   7   13.24    3.59
  -2   5   7   11.19    2.03
   2  -5  -7   15.74    3.33
  -2   5   7   10.72    3.32
   2  -5  -7   11.50    2.98
  -2   5   6    6.68    1.84
   2  -5  -6    6.91    2.51
   2  -5  -6    8.79    2.52
   2  -5  -6    5.08    1.55
  -2   5   6    9.08    2.15
   2  -5  -6    5.74    1.41
  -2   5   6   10.75    2.44
  -2   5   6    7.94    2.43
  -2   5   6    9.96    3.19
  -2   5   6    7.88    2.21
  -2   5   6    8.97    3.04
   2  -5  -6    8.13    2.36
   2  -5  -6    7.96    1.95
   2  -5  -6    6.78    2.37
   2  -5  -6    7.98    2.39
  -2   5   6    8.07    2.56
   2  -5  -5   63.09    9.14
   2  -5  -5   57.02    6.59
   2  -5  -5   94.02   13.25
  -2   5   5   59.36    7.56
   2  -5  -5   61.32    5.36
  -2   5   5   77.68    9.24
   2  -5  -5   64.33    7.86
   2  -5  -5   62.92    4.83
  -2   5   5   70.54    6.38
  -2   5   5   60.84    7.81
  -2   5   5   69.57    6.23
  -2   5   5   74.48    6.49
   2  -5  -5   62.28    6.50
  -2   5   5   54.27    7.03
  -2   5   5   76.84   12.13
   2  -5  -5   74.47    7.36
   2  -5  -5   66.41    5.59
   2  -5  -5   77.92    7.41
  -2   5   5   64.73    6.87
  -2   5   5   64.84   10.21
   2  -5  -5   73.53   11.34
  -2   5   5   68.59   11.67
   2  -5  -5   64.94    9.79
  -2   5   5   79.36   12.14
  -2   5   5   65.09    6.14
   2  -5  -4  183.57   15.50
   2  -5  -4  129.87   10.23
  -2   5   4  154.98    9.73
  -2   5   4  134.70   12.18
   2  -5  -4  151.86    8.79
  -2   5   4  153.99   12.16
   2  -5  -4  156.53    8.16
  -2   5   4  149.49    9.83
  -2   5   4  157.66   12.62
  -2   5   4  162.89   17.54
   2  -5  -4  147.61   10.31
  -2   5   4  147.31   11.80
   2  -5  -4  182.21   11.58
  -2   5   4  141.74   10.60
  -2   5   4  144.93   11.96
  -2   5   4  154.32    9.56
   2  -5  -4  163.65   11.24
   2  -5  -4  160.79    8.04
   2  -5  -4  187.45   17.93
   2  -5  -4  201.01   18.95
   2  -5  -4  156.86   15.26
  -2   5   4  163.85   16.97
  -2   5   4  168.25   17.43
  -2   5   4  148.39    9.67
  -2   5   4  164.79   15.94
   2  -5  -3  124.08   12.42
   2  -5  -3  109.95    8.83
  -2   5   3  121.08    8.09
  -2   5   3  115.59   10.59
  -2   5   3  119.67    8.03
  -2   5   3  130.06   10.97
   2  -5  -3  117.89    6.78
  -2   5   3  124.23    8.65
   2  -5  -3  121.82    6.69
  -2   5   3  123.78   10.64
  -2   5   3  121.89   10.13
   2  -5  -3  125.69    9.43
  -2   5   3  120.16    9.40
   2  -5  -3  121.35    8.90
   2  -5  -3  148.05   15.42
  -2   5   3  127.35   14.64
   2  -5  -3  145.66    9.96
   2  -5  -3  127.10   14.68
   2  -5  -3  120.05   12.77
  -2   5   3  129.11   14.38
  -2   5   3  140.43   14.90
   2  -5  -3  110.83   10.72
  -2   5   3  116.02    8.07
  -2   5   3  129.31   13.41
   2  -5  -2  140.04   12.96
   2  -5  -2  115.19    8.75
  -2   5   2  133.11   10.93
  -2   5   2  119.89   10.74
  -2   5   2  128.87    8.78
  -2   5   2  134.53   14.48
   2  -5  -2  131.70    6.87
   2  -5  -2  122.40    8.76
  -2   5   2  142.26   10.01
  -2   5   2  135.83   14.05
   2  -5  -2  140.11   14.80
  -2   5   2  117.93    9.19
   2  -5  -2  118.76   12.53
   2  -5  -2  148.20   15.58
   2  -5  -2  121.94   11.04
  -2   5   2  122.15   13.47
  -2   5   2  130.51   12.92
   2  -5  -1  831.97   39.04
   2  -5  -1  826.71   32.18
  -2   5   1  869.01   35.65
  -2   5   1  700.11   32.66
  -2   5   1  874.20   37.11
  -2   5   1  865.84   34.01
   2  -5  -1  785.72   31.80
   2  -5  -1  883.10   43.27
  -2   5   1  845.22   42.01
   2  -5  -1 1017.68   47.10
   2  -5  -1  897.72   37.39
  -2   5   1  880.58   42.00
  -2   5   1  868.60   41.44
  -2   5   1  923.63   42.38
  -2   5   1  863.35   39.87
  -2   5   0  299.48   17.03
  -2   5   0  283.73   15.46
  -2   5   0  298.84   18.33
   2  -5   0  317.42   18.73
   2  -5   0  256.69   14.19
   2  -5   0  320.40   12.20
   2  -5   0  277.85   21.88
  -2   5   0  281.73   20.89
  -2   5   0  246.74   15.58
   2  -5   0  348.34   25.43
  -2   5   0  294.66   21.04
  -2   5   0  293.99   20.77
  -2   5   0  321.09   21.48
  -2   5   0  280.33   19.46
   2  -5   0  260.03   19.02
  -2   5  -1  157.16   12.83
   2  -5   1  137.69    9.48
   2  -5   1  201.93    8.22
   2  -5   1  162.18    7.86
   2  -5   1  140.55   15.37
  -2   5  -1  149.57   14.56
  -2   5  -1  124.70   10.65
  -2   5  -1  150.63   10.15
   2  -5   1  161.50   17.68
  -2   5  -1  135.18   13.93
  -2   5  -1  151.69   14.24
  -2   5  -1  167.17   14.85
  -2   5  -1  138.29   13.11
   2  -5   1  123.78   12.88
   2  -5   2  214.70    9.85
  -2   5  -2  216.06   15.49
   2  -5   2  215.23   12.24
  -2   5  -2  213.04   12.28
  -2   5  -2  203.12   15.62
   2  -5   2  164.37   17.68
  -2   5  -2  201.15   17.30
  -2   5  -2  187.28   13.84
   2  -5   2  197.17   20.85
  -2   5  -2  174.89   16.33
  -2   5  -2  193.28   16.57
  -2   5  -2  197.18   16.64
  -2   5  -2  172.95   15.30
   2  -5   2  171.53   15.83
  -2   5  -3   57.41    8.76
   2  -5   3   81.71    4.34
  -2   5  -3   68.77    6.43
  -2   5  -3   64.75    6.05
  -2   5  -3   65.95    8.21
  -2   5  -3   73.54    7.48
   2  -5   3   59.04    6.61
   2  -5   3   61.81    4.28
  -2   5  -3   65.30    6.85
  -2   5  -3   70.58    6.38
  -2   5  -3   56.59    8.35
   2  -5   3   67.60    4.97
  -2   5  -3   60.68    5.62
   2  -5   3   82.69    5.27
   2  -5   3   53.77   10.16
  -2   5  -3   77.42   10.34
  -2   5  -3   68.58    8.03
   2  -5   3   63.39   12.28
  -2   5  -3   54.85    8.92
  -2   5  -3   60.48    9.15
  -2   5  -3   61.40    9.06
  -2   5  -3   57.18    8.43
  -2   5  -4   13.26    4.39
   2  -5   4   14.10    1.79
  -2   5  -4   12.80    2.61
  -2   5  -4   18.18    3.15
  -2   5  -4   11.33    2.43
  -2   5  -4   15.72    3.89
   2  -5   4   12.24    1.89
  -2   5  -4   17.43    3.63
  -2   5  -4   13.45    3.11
  -2   5  -4    9.40    2.62
   2  -5   4   11.76    2.82
   2  -5   4   12.13    1.86
  -2   5  -4   12.32    3.99
   2  -5   4   17.41    2.50
   2  -5   4   11.72    5.06
  -2   5  -4   14.05    2.72
   2  -5   4   11.71    2.06
  -2   5  -4   13.08    4.36
   2  -5   4    9.55    5.55
  -2   5  -4   11.51    3.39
  -2   5  -4    7.72    3.32
  -2   5  -4   14.19    4.54
  -2   5  -4   14.05    4.70
  -2   5  -4   10.78    3.74
  -2   5  -5   18.96    5.30
  -2   5  -5   19.02    5.47
   2  -5   5   18.29    2.13
   2  -5   5   19.47    2.79
  -2   5  -5   17.47    3.21
  -2   5  -5   20.48    3.37
   2  -5   5   23.75    2.18
  -2   5  -5   17.31    3.02
  -2   5  -5   18.80    4.29
   2  -5   5   20.26    2.62
  -2   5  -5   15.43    3.62
  -2   5  -5   20.76    3.81
   2  -5   5   20.50    2.70
   2  -5   5   17.12    2.23
   2  -5   5    8.87    4.00
   2  -5   5   20.12    2.91
   2  -5   5   17.20    2.69
  -2   5  -5   10.55    4.02
   2  -5   5   13.02    5.73
  -2   5  -5   12.71    3.50
  -2   5  -5   17.39    5.01
  -2   5  -5   18.19    3.68
  -2   5  -5   19.06    5.41
  -2   5  -5   13.71    4.37
  -2   5  -5   18.15    2.85
  -2   5  -5   16.94    4.59
   2  -5   6   60.71    4.33
  -2   5  -6   56.06    5.68
  -2   5  -6   50.74    5.35
   2  -5   6   62.95    5.21
   2  -5   6   61.71    3.94
  -2   5  -6   53.00    7.17
   2  -5   6   51.65    4.58
  -2   5  -6   49.30    6.62
  -2   5  -6   59.71    7.20
  -2   5  -6   46.98    6.29
  -2   5  -6   58.93   10.21
   2  -5   6   53.55    5.32
   2  -5   6   50.95    5.21
  -2   5  -6   53.47    7.49
  -2   5  -6   62.34    6.36
  -2   5  -6   55.03    5.39
   2  -5   7  237.57   10.67
  -2   5  -7  243.58   12.90
  -2   5  -7  225.94   12.43
   2  -5   7  235.34   10.03
  -2   5  -7  250.53   12.34
   2  -5   7  215.90   11.38
  -2   5  -7  224.37   15.56
  -2   5  -7  216.70   15.03
  -2   5  -7  215.31   14.62
   2  -5   7  226.86   12.10
  -2   5  -7  256.39   22.64
   2  -5   7  214.68   12.64
  -2   5  -7  250.40   14.13
   2  -5   7  199.95   12.72
  -2   5  -7  228.50   16.65
  -2   5  -7  258.31   13.32
   2  -5   8   70.34    5.02
   2  -5   8   68.27    6.06
   2  -5   8   71.16    4.65
  -2   5  -8   74.42    6.04
  -2   5  -8   68.56    7.91
  -2   5  -8   66.18    7.57
  -2   5  -8   61.96    7.17
  -2   5  -8   63.69    7.88
  -2   5  -8   63.56    7.04
   2  -5   8   66.10    5.56
  -2   5  -8   84.08   12.49
   2  -5   8   68.54    6.49
  -2   5  -8   72.91    6.87
  -2   5  -8   75.60    6.49
   2  -5   9  199.51    9.55
   2  -5   9  196.08    9.05
  -2   5  -9  221.55   11.04
  -2   5  -9  190.34   13.49
  -2   5  -9  186.64   13.10
  -2   5  -9  168.96   12.27
  -2   5  -9  168.11   11.94
   2  -5   9  191.60   10.34
  -2   5  -9  204.77   11.79
  -2   5  -9  203.87   11.26
   2  -5  10   87.37    5.37
   2  -5  10   93.53    5.35
  -2   5 -10  107.94    6.65
  -2   5 -10   85.17    7.99
  -2   5 -10   86.75    7.80
  -2   5 -10   87.74    7.58
  -2   5 -10   87.47    7.37
  -2   5 -10   91.02    6.69
   2  -5  10   99.98    6.44
  -2   5 -10   93.54    6.62
   2  -5  11   58.71    3.59
   2  -5  11   61.14    3.78
  -2   5 -11   70.11    4.56
  -2   5 -11   55.97    5.46
  -2   5 -11   58.76    5.46
  -2   5 -11   56.85    5.16
  -2   5 -11   55.75    5.00
  -2   5 -11   58.23    4.37
  -2   5 -11   63.42    4.57
   2  -4 -12   14.59    1.71
  -2   4  12    9.31    1.16
   2  -4 -12   15.04    1.73
  -2   4  12   15.69    1.76
  -2   4  12   14.59    1.67
   2  -4 -11  117.07    6.74
  -2   4  11  122.15    7.15
  -2   4  11  104.09    8.18
   2  -4 -11  117.29    7.40
   2  -4 -11  112.78    6.64
  -2   4  11  111.04    8.00
   2  -4 -11  122.35    7.38
  -2   4  11  103.58    6.07
  -2   4  11  109.45    6.56
  -2   4  11  115.49    6.90
   2  -4 -10  147.38    8.53
   2  -4 -10  139.64    6.91
  -2   4  10  151.59    9.28
  -2   4  10  142.86   11.19
  -2   4  10  155.20    8.98
  -2   4  10  124.25    9.95
   2  -4 -10  155.40    8.79
   2  -4 -10  145.26    9.63
   2  -4 -10  167.85   10.05
  -2   4  10  136.14    7.95
  -2   4  10  152.87    9.11
   2  -4  -9  168.16    9.71
   2  -4  -9  161.37    8.14
  -2   4   9  149.86   12.46
  -2   4   9  176.74   10.41
   2  -4  -9  183.62   11.56
   2  -4  -9  174.97   11.46
   2  -4  -9  161.59    9.72
   2  -4  -9  165.48   14.09
  -2   4   9  175.42   10.78
  -2   4   9  154.65    9.16
  -2   4   9  172.43   10.37
  -2   4   8    5.69    1.93
   2  -4  -8    6.64    2.44
   2  -4  -8    5.92    1.59
   2  -4  -8    7.74    1.58
  -2   4   8    5.92    2.31
  -2   4   8    4.98    1.63
   2  -4  -8    5.28    1.57
   2  -4  -8    6.24    2.01
  -2   4   8    7.95    2.17
   2  -4  -8    4.34    2.46
   2  -4  -8    4.59    1.48
   2  -4  -8    6.70    2.18
  -2   4   8    5.05    2.22
  -2   4   8    6.01    1.54
  -2   4   8    3.89    1.62
   2  -4  -7   28.68    4.75
   2  -4  -7   41.34    5.21
   2  -4  -7   27.80    3.51
   2  -4  -7   31.78    3.82
   2  -4  -7   30.15    3.15
  -2   4   7   30.19    5.43
  -2   4   7   35.45    4.30
   2  -4  -7   36.60    4.76
   2  -4  -7   31.20    4.68
  -2   4   7   32.68    4.48
   2  -4  -7   29.13    5.62
  -2   4   7   28.35    3.56
  -2   4   7   29.55    5.37
  -2   4   7   33.79    4.41
  -2   4   7   31.86    4.21
  -2   4   6   14.42    2.73
   2  -4  -6   16.80    4.45
   2  -4  -6   11.60    2.81
   2  -4  -6   16.01    3.06
   2  -4  -6   12.78    2.36
  -2   4   6   15.51    2.78
   2  -4  -6   14.41    2.07
  -2   4   6   11.19    3.29
  -2   4   6   16.70    2.87
   2  -4  -6   17.93    3.38
   2  -4  -6   14.07    2.39
  -2   4   6   20.31    3.84
  -2   4   6   15.05    2.79
   2  -4  -6   15.19    3.87
   2  -4  -6   17.46    5.42
  -2   4   6   16.39    5.34
  -2   4   6   17.57    4.07
   2  -4  -6   16.94    5.58
  -2   4   6   15.78    2.41
   2  -4  -6   14.15    4.41
  -2   4   6   18.92    5.90
  -2   4   6   21.96    6.64
  -2   4   6   15.66    3.57
   2  -4  -6   20.31    3.49
  -2   4   6   22.38    5.67
  -2   4   5   17.32    2.94
   2  -4  -5   22.30    4.89
   2  -4  -5   19.33    3.44
   2  -4  -5   21.90    3.64
   2  -4  -5   15.29    2.34
  -2   4   5   17.36    3.07
   2  -4  -5   17.54    2.21
  -2   4   5   16.07    2.64
  -2   4   5   15.30    3.29
  -2   4   5   18.31    2.97
   2  -4  -5   18.80    3.17
  -2   4   5   14.94    3.26
   2  -4  -5   16.70    2.47
   2  -4  -5   22.23    3.67
  -2   4   5   22.60    3.54
   2  -4  -5   19.01    3.90
  -2   4   5   24.03    4.86
   2  -4  -5   22.91    5.70
  -2   4   5   17.67    5.34
  -2   4   5   19.48    4.07
   2  -4  -5   28.42    6.42
  -2   4   5   13.43    2.13
   2  -4  -5   22.45    5.39
  -2   4   5   19.27    5.57
  -2   4   5   20.53    5.87
  -2   4   5   19.43    4.98
   2  -4  -4   77.30    9.07
   2  -4  -4   71.47    6.59
   2  -4  -4   80.28    6.61
  -2   4   4   74.50    8.02
  -2   4   4   82.36    7.71
  -2   4   4   71.94    7.69
   2  -4  -4   79.94    7.79
   2  -4  -4   87.03   11.02
  -2   4   4   84.58   11.41
   2  -4  -4   97.15   11.95
   2  -4  -4   81.90    9.87
  -2   4   4   83.90   11.03
  -2   4   4   74.55   10.83
  -2   4   4   86.15   10.34
   2  -4  -3  243.85   16.28
   2  -4  -3  199.71   11.63
  -2   4   3  218.58   13.91
  -2   4   3  223.21   13.79
   2  -4  -3  213.75   11.75
  -2   4   3  210.27   13.49
   2  -4  -3  227.44   13.22
   2  -4  -3  257.36   18.81
  -2   4   3  220.48   18.16
   2  -4  -3  279.44   19.97
   2  -4  -3  224.46   16.46
  -2   4   3  237.36   18.28
  -2   4   3  235.92   18.40
   2  -4  -3  199.49   13.59
  -2   4   3  236.31   16.99
   2  -4  -2   63.74    7.48
   2  -4  -2   56.75    5.13
  -2   4   2   63.78    6.49
  -2   4   2   54.63    6.22
   2  -4  -2   58.54    5.09
   2  -4  -2   49.30    4.01
   2  -4  -2   63.26    8.56
  -2   4   2   63.92    8.81
  -2   4   2   52.14    5.21
   2  -4  -2   70.43    9.31
   2  -4  -2   65.32    7.98
   2  -4  -2   52.96    6.22
  -2   4   2   55.29    7.92
  -2   4   2   65.81    8.81
  -2   4   2   65.24    7.89
   2  -4  -1  185.12   13.33
   2  -4  -1  170.27    9.46
  -2   4   1  176.07   11.16
  -2   4   1  182.66   12.26
   2  -4  -1  178.68    9.66
  -2   4   1  176.47   10.61
   2  -4  -1  152.00    7.92
   2  -4  -1  167.01    7.94
   2  -4  -1  205.34   15.86
  -2   4   1  174.30   14.59
  -2   4   1  147.76   10.01
   2  -4  -1  172.64   11.73
   2  -4  -1  202.10   16.19
  -2   4   1  176.95   14.12
  -2   4   1  188.28   14.52
  -2   4   1  189.00   13.77
   2  -4   0  299.52   18.65
  -2   4   0  348.29   16.78
  -2   4   0  349.61   15.74
  -2   4   0  340.57   18.16
   2  -4   0  323.38   14.49
   2  -4   0  321.00   12.80
   2  -4   0  297.96   12.60
   2  -4   0  336.16   12.82
   2  -4   0  332.78   21.60
  -2   4   0  332.37   20.71
  -2   4   0  272.24   15.52
   2  -4   0  382.45   23.47
  -2   4   0  328.36   20.23
  -2   4   0  334.99   20.11
  -2   4   0  350.88   20.45
  -2   4   0  313.54   18.86
  -2   4  -1  132.14   12.32
  -2   4  -1  165.66   12.03
   2  -4   1  134.16    8.35
   2  -4   1  150.92    7.36
  -2   4  -1  139.87   10.87
   2  -4   1  184.22    7.79
  -2   4  -1  133.16   10.16
   2  -4   1  165.84    7.58
   2  -4   1  152.16    7.15
   2  -4   1  188.38   16.87
   2  -4   1  149.59   14.07
  -2   4  -1  138.95   12.45
  -2   4  -1  146.83   12.45
  -2   4  -1  164.29   13.08
  -2   4  -1  140.81    8.89
  -2   4  -1  138.54   11.70
   2  -4   1  144.11   12.18
  -2   4  -2  353.96   19.60
   2  -4   2  342.21   15.58
  -2   4  -2  336.13   15.84
   2  -4   2  380.13   14.22
  -2   4  -2  347.46   20.21
   2  -4   2  459.38   14.84
   2  -4   2  369.14   14.29
   2  -4   2  274.29   21.70
   2  -4   2  412.92   14.08
  -2   4  -2  333.26   21.39
  -2   4  -2  315.69   18.12
   2  -4   2  385.23   26.95
  -2   4  -2  305.20   20.66
  -2   4  -2  319.45   20.49
  -2   4  -2  332.33   20.71
  -2   4  -2  300.00   19.47
   2  -4   2  280.04   19.66
  -2   4  -3   36.79    6.25
  -2   4  -3   38.66    5.62
  -2   4  -3   40.04    4.16
  -2   4  -3   31.00    5.87
   2  -4   3   39.15    3.41
   2  -4   3   50.87    3.77
   2  -4   3   35.73    7.56
  -2   4  -3   34.83    5.28
   2  -4   3   42.67    9.07
   2  -4   3   41.64    3.40
  -2   4  -3   27.36    5.74
  -2   4  -3   33.38    6.06
  -2   4  -3   32.26    5.84
  -2   4  -3   30.98    5.61
  -2   4  -3   30.60    5.96
  -2   4  -4   48.49    7.61
  -2   4  -4   76.83    5.85
  -2   4  -4   57.97    8.60
  -2   4  -4   64.42    7.61
  -2   4  -4   63.13    8.94
   2  -4   4   66.37    4.93
   2  -4   4   87.56    5.47
   2  -4   4   48.92    9.33
  -2   4  -4   63.67    7.46
   2  -4   4   78.52    5.09
   2  -4   4   73.19   13.20
  -2   4  -4   49.90    8.02
  -2   4  -4   56.47    8.29
  -2   4  -4   53.90    8.07
  -2   4  -4   53.31    7.81
  -2   4  -5   89.54   11.08
   2  -4   5  120.72    5.80
  -2   4  -5   97.00    7.61
  -2   4  -5  108.02    7.73
  -2   4  -5   97.44    9.55
   2  -4   5  111.22    6.51
  -2   4  -5  109.17    9.29
  -2   4  -5  103.16    8.98
   2  -4   5  132.15    7.17
  -2   4  -5  112.46   12.98
   2  -4   5  105.77    6.87
  -2   4  -5  101.92    7.82
   2  -4   5  121.27    7.28
  -2   4  -5   95.58   11.76
   2  -4   5   65.60   11.66
  -2   4  -5   95.95    9.75
   2  -4   5  101.78   17.09
  -2   4  -5   96.46   11.89
  -2   4  -5   87.71   10.90
  -2   4  -5   97.02    8.56
  -2   4  -5   91.37   11.24
  -2   4  -5   88.62   10.77
  -2   4  -6  307.29   23.36
   2  -4   6  391.97   14.53
  -2   4  -6  382.20   17.70
  -2   4  -6  375.15   17.17
  -2   4  -6  347.92   16.97
   2  -4   6  430.88   14.35
  -2   4  -6  378.62   16.34
  -2   4  -6  361.92   20.18
  -2   4  -6  342.17   19.43
  -2   4  -6  326.83   18.82
   2  -4   6  377.69   16.13
   2  -4   6  384.54   15.80
  -2   4  -6  407.31   27.81
   2  -4   6  347.59   16.36
  -2   4  -6  381.51   18.26
   2  -4   6  399.69   17.21
  -2   4  -6  361.19   21.42
  -2   4  -6  328.75   24.80
   2  -4   6  362.65   35.71
  -2   4  -6  322.52   24.73
  -2   4  -6  334.33   24.38
  -2   4  -6  315.54   23.23
   2  -4   7  564.19   20.46
  -2   4  -7  576.85   23.42
  -2   4  -7  530.77   22.85
   2  -4   7  600.01   20.05
   2  -4   7  540.50   21.72
  -2   4  -7  602.36   22.94
  -2   4  -7  543.20   27.02
  -2   4  -7  539.00   26.47
  -2   4  -7  483.52   25.26
   2  -4   7  555.50   22.52
  -2   4  -7  584.01   36.14
   2  -4   7  534.83   23.13
  -2   4  -7  580.26   24.86
   2  -4   7  519.41   23.07
  -2   4  -7  492.50   27.11
  -2   4  -7  566.21   23.56
   2  -4   8  329.51   14.06
  -2   4  -8  335.58   19.47
   2  -4   8  352.40   13.80
   2  -4   8  323.45   15.49
  -2   4  -8  380.88   20.35
  -2   4  -8  371.05   16.57
   2  -4   8  335.47   15.42
  -2   4  -8  331.87   19.81
  -2   4  -8  311.45   18.50
   2  -4   8  371.03   16.80
  -2   4  -8  401.10   28.87
   2  -4   8  346.51   17.13
  -2   4  -8  357.45   17.86
   2  -4   8  327.87   17.41
  -2   4  -8  300.03   17.98
  -2   4  -8  338.78   20.20
  -2   4  -8  345.92   16.83
   2  -4   9   60.51    4.56
   2  -4   9   60.01    4.30
   2  -4   9   50.72    4.98
  -2   4  -9   69.53    5.85
   2  -4   9   59.16    5.23
  -2   4  -9   53.94    7.04
  -2   4  -9   51.81    6.72
  -2   4  -9   47.65    6.27
  -2   4  -9   51.30    6.26
   2  -4   9   58.33    6.07
  -2   4  -9   68.59   11.29
   2  -4   9   57.84    5.73
  -2   4  -9   58.65    5.97
  -2   4  -9   66.82    6.05
   2  -4  10   56.01    4.23
   2  -4  10   62.25    4.37
  -2   4 -10   60.60    5.31
  -2   4 -10   52.17    5.90
  -2   4 -10   51.34    6.46
  -2   4 -10   53.57    6.35
  -2   4 -10   55.58    6.31
   2  -4  10   56.57    4.97
  -2   4 -10   58.50    5.46
   2  -4  10   61.24    5.18
  -2   4 -10   57.15    5.33
   2  -4  11   19.24    2.02
   2  -4  11   20.09    2.21
  -2   4 -11   24.27    2.92
   2  -4  11   21.51    2.64
   2  -4  11   20.20    2.62
  -2   4 -11   15.76    3.08
  -2   4 -11   17.01    3.15
  -2   4 -11   17.50    3.03
  -2   4 -11   14.66    2.71
  -2   4 -11   20.53    2.71
  -2   4 -11   18.98    2.65
   2  -4  12    3.23    0.76
  -2   4 -12    2.71    0.71
  -2   4 -12    2.15    0.86
  -2   4 -12    2.10    0.90
  -2   4 -12    2.82    0.91
  -2   4 -12    3.15    0.84
  -2   3  12    9.52    1.45
   2  -3 -12    7.99    1.40
   2  -3 -12    8.57    1.50
  -2   3  12   10.56    1.78
  -2   3  12    9.33    1.99
   2  -3 -12    8.55    1.48
  -2   3  12    6.91    1.51
  -2   3  12    4.82    0.94
   2  -3 -12    7.86    1.47
  -2   3  12    8.18    1.33
  -2   3  11    8.46    1.75
   2  -3 -11    9.52    1.78
  -2   3  11    9.54    2.10
  -2   3  11    7.18    2.19
  -2   3  11    8.21    1.60
   2  -3 -11    9.34    1.98
   2  -3 -11    8.70    1.68
   2  -3 -11   10.84    2.10
  -2   3  11    9.61    1.75
   2  -3 -10   51.82    4.68
   2  -3 -10   49.59    3.61
  -2   3  10   54.95    5.59
  -2   3  10   43.97    6.07
  -2   3  10   46.60    4.64
   2  -3 -10   46.01    5.17
   2  -3 -10   55.30    5.00
   2  -3 -10   48.39    5.18
  -2   3  10   50.00    4.64
  -2   3  10   48.61    4.81
   2  -3  -9   22.47    4.12
   2  -3  -9   23.76    3.24
   2  -3  -9   25.51    2.71
  -2   3   9   19.24    4.16
  -2   3   9   24.75    3.50
   2  -3  -9   25.87    4.13
   2  -3  -9   25.83    3.53
   2  -3  -9   27.22    4.07
   2  -3  -9   24.67    3.68
   2  -3  -9   28.78    5.59
  -2   3   9   26.35    3.40
  -2   3   9   27.95    5.31
  -2   3   9   29.91    4.28
  -2   3   9   27.85    3.72
  -2   3   8   15.40    2.95
   2  -3  -8   12.84    3.05
   2  -3  -8   13.24    2.39
   2  -3  -8   14.60    2.13
   2  -3  -8   16.68    4.09
  -2   3   8   17.79    3.31
  -2   3   8   12.96    3.75
   2  -3  -8   17.41    2.87
   2  -3  -8   13.51    3.01
   2  -3  -8   18.09    3.41
   2  -3  -8   14.33    2.85
  -2   3   8   14.51    3.55
  -2   3   8   12.73    2.41
  -2   3   8   14.92    2.66
   2  -3  -7   55.60    8.15
   2  -3  -7   51.85    6.03
   2  -3  -7   52.48    5.97
  -2   3   7   54.23    5.21
   2  -3  -7   51.72    4.70
  -2   3   7   51.52    7.11
  -2   3   7   57.80    5.91
   2  -3  -7   55.52    5.07
   2  -3  -7   59.56    6.15
  -2   3   7   53.09    7.05
   2  -3  -7   57.39    5.86
  -2   3   7   57.13    7.16
   2  -3  -7   44.96    6.68
   2  -3  -7   56.36    9.46
  -2   3   7   63.39   10.98
   2  -3  -7   72.16   10.95
   2  -3  -7   54.65    8.70
  -2   3   7   55.49    5.03
   2  -3  -7   52.61    6.48
  -2   3   7   53.17    9.48
  -2   3   7   55.78   10.28
   2  -3  -7   49.30    7.72
  -2   3   7   50.72    5.23
   2  -3  -6   39.01    6.40
   2  -3  -6   27.77    4.08
  -2   3   6   31.57    5.26
   2  -3  -6   27.83    3.24
  -2   3   6   26.17    3.35
   2  -3  -6   26.69    4.23
  -2   3   6   29.52    4.89
  -2   3   6   26.88    4.42
   2  -3  -6   29.31    3.92
   2  -3  -6   28.41    4.20
   2  -3  -6   29.87    3.42
   2  -3  -6   30.45    4.12
  -2   3   6   29.40    3.90
  -2   3   6   31.20    4.15
   2  -3  -6   21.86    4.27
  -2   3   6   29.32    5.16
   2  -3  -6   40.86    7.66
  -2   3   6   35.43    7.76
  -2   3   6   21.95    2.95
   2  -3  -6   30.39    6.55
   2  -3  -6   26.80    5.58
  -2   3   6   39.16    7.96
  -2   3   6   21.94    6.15
  -2   3   6   27.07    3.52
   2  -3  -6   33.62    5.83
   2  -3  -5   88.59    9.21
   2  -3  -5   65.40    6.14
   2  -3  -5   66.59    6.38
  -2   3   5   73.28    7.74
   2  -3  -5   74.35    6.18
   2  -3  -5   64.16    6.97
  -2   3   5   69.55    7.40
   2  -3  -5   82.07   10.34
  -2   3   5   72.73   10.28
   2  -3  -5   82.90   10.57
   2  -3  -5   74.81    9.10
  -2   3   5   73.34   10.07
  -2   3   5   71.48   10.31
   2  -3  -4   81.85    8.28
   2  -3  -4   64.78    5.79
  -2   3   4   70.38    7.02
   2  -3  -4   57.48    5.53
  -2   3   4   66.17    6.76
   2  -3  -4   61.35    6.33
   2  -3  -4   79.34    9.48
  -2   3   4   71.38    9.54
   2  -3  -4   81.90    9.78
   2  -3  -4   72.85    8.39
  -2   3   4   73.69    9.27
   2  -3  -4   64.95    4.61
   2  -3  -4   67.58    5.53
  -2   3   4   66.58    9.11
  -2   3   4   76.43    8.73
   2  -3  -3  100.90    8.85
   2  -3  -3   85.59    6.21
  -2   3   3   87.61    7.37
  -2   3   3  102.54    7.74
  -2   3   3   94.32    7.77
   2  -3  -3   82.91    6.27
   2  -3  -3   94.18    6.40
  -2   3   3   93.08    9.84
   2  -3  -3   84.68    6.87
   2  -3  -3  107.07   10.40
  -2   3   3   95.54   10.28
   2  -3  -3  110.09   10.87
   2  -3  -3   96.91    9.20
   2  -3  -3   90.11    5.46
  -2   3   3   92.17   10.05
   2  -3  -3   87.60    7.42
  -2   3   3   91.84    9.12
   2  -3  -2  334.51   17.06
   2  -3  -2  265.34   12.60
  -2   3   2  294.58   14.51
  -2   3   2  313.43   15.43
   2  -3  -2  284.32   12.78
  -2   3   2  272.75   14.48
   2  -3  -2  293.33   13.62
   2  -3  -2  342.72   19.29
  -2   3   2  308.97   18.75
  -2   3   2  263.46   13.04
   2  -3  -2  365.61   20.09
   2  -3  -2  292.40   16.91
   2  -3  -2  297.21   14.88
  -2   3   2  294.18   17.90
   2  -3  -2  276.23   11.77
  -2   3   2  306.08   18.46
  -2   3   2  301.99   17.06
   2  -3  -1   12.50    2.88
  -2   3   1   11.92    3.15
   2  -3  -1    9.97    1.67
   2  -3  -1   13.30    2.06
   2  -3  -1   16.68    3.80
  -2   3   1   11.00    2.60
   2  -3  -1    8.39    1.99
  -2   3   1    6.42    1.65
  -2   3   1    9.54    2.05
   2  -3  -1   13.15    3.41
  -2   3   1    8.43    1.87
   2  -3  -1   12.25    2.87
  -2   3   1   11.41    2.95
  -2   3   1   12.39    3.12
  -2   3   1   14.52    3.02
   2  -3   0  577.16   25.17
   2  -3   0  551.45   19.90
  -2   3   0  554.34   21.42
  -2   3   0  594.39   24.56
   2  -3   0  550.47   20.25
   2  -3   0  486.15   19.38
   2  -3   0  540.94   19.48
   2  -3   0  597.68   27.59
  -2   3   0  514.36   22.23
  -2   3   0  567.81   26.33
  -2   3   0  577.25   26.23
  -2   3   0  569.16   25.77
  -2   3   0  588.01   26.14
  -2   3   0  567.11   24.86
   2  -3   1 1511.16   47.61
  -2   3  -1 1653.53   54.50
   2  -3   1 1520.57   48.33
   2  -3   1 1453.32   57.42
  -2   3  -1 1347.95   52.40
   2  -3   1 1528.88   47.80
   2  -3   1 1579.23   47.75
  -2   3  -1 1595.90   49.63
  -2   3  -1 1460.41   55.40
  -2   3  -1 1453.76   51.75
   2  -3   1 1815.49   62.35
  -2   3  -1 1439.70   54.92
  -2   3  -1 1496.82   54.80
  -2   3  -1 1520.70   55.02
   2  -3   1 1363.88   47.36
  -2   3  -1 1443.14   53.62
   2  -3   1 1367.83   53.77
   2  -3   2  909.67   28.53
  -2   3  -2  874.47   34.63
  -2   3  -2  863.07   29.84
   2  -3   2  851.72   28.70
  -2   3  -2  731.67   34.08
   2  -3   2  963.44   29.02
   2  -3   2  843.86   29.17
   2  -3   2  722.71   37.07
  -2   3  -2  777.06   35.42
  -2   3  -2  802.32   33.03
   2  -3   2  931.08   42.44
  -2   3  -2  756.47   35.09
  -2   3  -2  789.15   34.97
   2  -3   2  902.62   28.72
  -2   3  -2  815.18   35.22
   2  -3   2  903.06   28.54
  -2   3  -2  758.01   33.93
   2  -3   2  638.82   33.61
  -2   3  -3   41.07    5.94
  -2   3  -3   50.61    6.10
  -2   3  -3   60.56    4.47
   2  -3   3   68.67    4.06
   2  -3   3   53.55    3.86
   2  -3   3   56.24    3.91
  -2   3  -3   42.03    6.32
   2  -3   3   70.32    4.27
   2  -3   3   40.91    7.16
  -2   3  -3   42.11    6.24
  -2   3  -3   47.24    5.71
   2  -3   3   49.96    8.88
  -2   3  -3   40.98    6.20
  -2   3  -3   45.46    6.34
  -2   3  -3   43.32    6.18
  -2   3  -3   37.91    5.59
  -2   3  -4   49.68    7.04
  -2   3  -4   61.05    4.65
  -2   3  -4   53.30    6.35
  -2   3  -4   54.39    7.69
   2  -3   4   72.17    4.71
   2  -3   4   87.86    5.07
   2  -3   4   44.08    8.13
   2  -3   4   67.32    4.63
  -2   3  -4   63.42    8.15
  -2   3  -4   55.30    6.62
   2  -3   4   60.37   10.91
  -2   3  -4   46.08    7.10
  -2   3  -4   57.29    7.52
  -2   3  -4   52.99    7.31
  -2   3  -4   48.61    6.81
  -2   3  -5   69.51    9.00
   2  -3   5   98.31    5.91
  -2   3  -5   73.10    7.70
  -2   3  -5   82.58   10.54
   2  -3   5   84.69    5.70
   2  -3   5  105.33    6.12
   2  -3   5   58.13   10.12
  -2   3  -5   83.27    8.42
  -2   3  -5   64.50    8.98
   2  -3   5   64.84   12.51
  -2   3  -5   62.61    8.88
  -2   3  -5   79.41    9.57
  -2   3  -5   76.49    9.38
  -2   3  -5   87.31    7.00
  -2   3  -5   67.05    8.61
  -2   3  -6  126.93   13.26
   2  -3   6  154.37    7.09
   2  -3   6  207.55    7.56
   2  -3   6  164.17    8.33
  -2   3  -6  144.97   11.06
  -2   3  -6  137.35   10.68
  -2   3  -6  121.96   10.02
   2  -3   6  143.66    8.33
  -2   3  -6  168.12   16.20
   2  -3   6  126.95    8.29
  -2   3  -6  151.60    9.91
   2  -3   6  164.69    9.06
  -2   3  -6  144.75   11.90
  -2   3  -6  142.88   14.42
   2  -3   6  140.56   20.35
  -2   3  -6  126.49   13.91
  -2   3  -6  148.28   14.24
  -2   3  -6  119.21   14.72
  -2   3  -6  145.23   10.43
  -2   3  -6  147.01    9.18
   2  -3   6  161.43   17.24
  -2   3  -6  129.74   13.06
  -2   3  -7  209.90   18.60
   2  -3   7  248.52   10.62
  -2   3  -7  233.06   15.22
  -2   3  -7  245.11   12.94
   2  -3   7  289.37   10.75
  -2   3  -7  265.47   12.93
   2  -3   7  258.21   12.07
  -2   3  -7  246.04   15.82
  -2   3  -7  228.41   14.83
   2  -3   7  258.41   12.61
  -2   3  -7  271.32   14.41
  -2   3  -7  232.80   14.53
  -2   3  -7  289.89   23.20
   2  -3   7  248.30   12.86
   2  -3   7  252.49   13.14
  -2   3  -7  199.09   20.73
  -2   3  -7  247.50   16.44
  -2   3  -7  228.42   19.93
   2  -3   7  225.92   27.89
  -2   3  -7  202.95   19.13
  -2   3  -7  231.07   19.65
  -2   3  -7  273.95   15.98
  -2   3  -7  270.09   13.64
   2  -3   7  253.89   23.37
  -2   3  -7  194.48   17.70
   2  -3   8   14.86    2.08
   2  -3   8   15.87    2.03
   2  -3   8   14.40    2.39
  -2   3  -8   14.75    3.52
  -2   3  -8   14.49    2.63
  -2   3  -8   14.03    3.12
  -2   3  -8   11.95    3.25
   2  -3   8   15.89    2.77
  -2   3  -8   11.70    3.12
   2  -3   8   16.21    2.86
   2  -3   8   17.52    3.18
  -2   3  -8   16.27    5.53
   2  -3   8   14.65    2.95
  -2   3  -8   16.72    3.21
   2  -3   8   17.33    2.03
  -2   3  -8   16.51    3.82
  -2   3  -8   16.02    2.91
  -2   3  -8   14.82    3.42
   2  -3   9  161.30    7.71
   2  -3   9  155.24    8.13
   2  -3   9  155.85    7.92
  -2   3  -9  168.96   10.10
   2  -3   9  141.42    9.31
  -2   3  -9  150.62   12.36
  -2   3  -9  157.15   12.26
  -2   3  -9  135.05   11.14
   2  -3   9  158.48   10.25
  -2   3  -9  138.93   10.96
   2  -3   9  153.69    9.27
  -2   3  -9  171.78   18.08
   2  -3   9  146.39   10.26
  -2   3  -9  157.77   10.53
   2  -3   9  131.60   10.56
  -2   3  -9  164.79   12.94
  -2   3  -9  167.55   10.49
   2  -3  10   39.79    3.47
   2  -3  10   38.67    3.50
   2  -3  10   43.51    5.18
  -2   3 -10   34.52    7.46
  -2   3 -10   36.53    4.23
   2  -3  10   36.36    4.27
  -2   3 -10   38.98    5.70
  -2   3 -10   34.59    5.58
  -2   3 -10   34.12    5.12
  -2   3 -10   37.69    5.31
   2  -3  10   39.23    4.82
  -2   3 -10   33.25    4.76
   2  -3  10   36.98    4.08
  -2   3 -10   35.36    4.33
   2  -3  10   40.92    3.27
  -2   3 -10   34.20    4.34
  -2   3 -11    0.85    0.95
   2  -3  11   -0.21    0.35
  -2   3 -11   -0.38    0.68
   2  -3  11   -0.11    0.38
  -2   3 -11    0.00    0.42
  -2   3 -11    0.65    0.64
  -2   3 -11    0.92    0.84
   2  -3  11   -0.16    0.36
  -2   3 -11    1.05    0.79
   2  -3  12   18.81    2.05
  -2   3 -12   18.45    2.33
   2  -3  12   16.74    2.29
  -2   3 -12   13.77    2.54
  -2   3 -12   17.19    2.72
  -2   3 -12   15.64    2.51
  -2   3 -12   18.24    2.40
   2  -3  13   13.09    1.35
  -2   3 -13   14.06    1.55
  -2   3 -13   11.24    1.72
  -2   3 -13   11.95    1.71
  -2   3 -13   12.61    1.71
  -2   3 -13   13.12    1.51
  -2   2  13    9.47    1.40
   2  -2 -13    8.45    1.18
  -2   2  13    8.16    1.14
   2  -2 -12   24.96    2.50
   2  -2 -12   27.03    2.67
  -2   2  12   23.13    2.90
  -2   2  12   24.16    3.42
  -2   2  12   16.56    1.92
   2  -2 -12   22.90    2.70
   2  -2 -12   25.58    2.77
   2  -2 -12   25.58    2.82
  -2   2  12   22.47    2.49
  -2   2  12   21.92    2.32
   2  -2 -11   65.54    5.08
   2  -2 -11   64.80    5.00
  -2   2  11   65.88    4.93
  -2   2  11   45.46    5.90
  -2   2  11   72.10    6.16
   2  -2 -11   59.25    5.49
   2  -2 -11   65.21    5.24
   2  -2 -11   66.59    5.67
  -2   2  11   65.42    5.15
  -2   2  11   65.86    5.18
  -2   2  10   13.22    2.41
   2  -2 -10   10.69    2.20
  -2   2  10   11.54    1.96
  -2   2  10   12.09    2.25
   2  -2 -10   10.91    2.08
   2  -2 -10   10.19    1.57
  -2   2  10   11.22    2.51
  -2   2  10    8.44    2.76
   2  -2 -10   10.26    2.34
   2  -2 -10    9.91    2.07
   2  -2 -10   11.05    3.46
   2  -2 -10   13.17    2.80
  -2   2  10   12.32    2.27
   2  -2  -9   69.07    7.15
   2  -2  -9   84.88    6.30
  -2   2   9   72.21    5.38
   2  -2  -9   74.14    5.89
  -2   2   9   81.19    7.38
  -2   2   9   62.77    7.94
  -2   2   9   79.55    6.37
   2  -2  -9   77.62    6.80
   2  -2  -9   69.13    6.84
   2  -2  -9   74.61    6.13
   2  -2  -9   77.64    7.05
  -2   2   9   77.04    8.61
   2  -2  -9   68.11    8.69
  -2   2   9   72.37    6.02
  -2   2   9   72.34    6.19
   2  -2  -8   24.89    5.50
   2  -2  -8   26.73    3.37
   2  -2  -8   24.82    4.06
  -2   2   8   27.53    3.14
   2  -2  -8   21.35    5.47
   2  -2  -8   27.53    3.39
   2  -2  -8   31.89    7.73
  -2   2   8   26.37    3.98
   2  -2  -8   26.96    4.64
  -2   2   8   25.36    5.02
  -2   2   8   25.18    3.39
   2  -2  -8   29.94    4.05
   2  -2  -8   26.23    3.51
   2  -2  -8   21.79    3.70
   2  -2  -8   26.78    4.01
  -2   2   8   32.45    7.70
  -2   2   8   32.03    5.32
   2  -2  -8   21.86    4.75
  -2   2   8   35.58    8.38
  -2   2   8   23.97    3.35
   2  -2  -8   28.36    6.82
  -2   2   8   24.74    7.37
  -2   2   8   28.24    5.09
  -2   2   8   23.25    3.28
   2  -2  -8   22.37    5.05
   2  -2  -7   52.49    7.50
   2  -2  -7   51.69    5.61
  -2   2   7   44.55    4.09
   2  -2  -7   47.51    4.44
   2  -2  -7   50.16    4.70
   2  -2  -7   52.28    6.22
  -2   2   7   42.51    6.25
  -2   2   7   57.52    5.06
   2  -2  -7   58.72    5.57
   2  -2  -7   64.13    6.15
   2  -2  -7   51.97    5.69
   2  -2  -7   46.32    6.39
  -2   2   7   58.44    5.88
  -2   2   7   47.91    6.34
   2  -2  -7   57.64    9.20
  -2   2   7   57.24    9.94
  -2   2   7   47.71    4.70
   2  -2  -7   55.49    9.31
   2  -2  -7   45.34    7.37
  -2   2   7   54.56    5.06
  -2   2   7   60.92    9.81
  -2   2   7   53.27    9.71
   2  -2  -7   47.91    7.27
  -2   2   7   49.48    6.28
   2  -2  -6   12.16    3.14
   2  -2  -6   10.34    2.35
   2  -2  -6    6.98    2.12
   2  -2  -6   13.60    2.75
  -2   2   6   13.30    3.20
   2  -2  -6   12.99    2.44
   2  -2  -6   12.72    3.96
  -2   2   6   10.23    4.00
  -2   2   6   12.00    2.84
   2  -2  -6   11.49    3.85
   2  -2  -6   14.20    4.07
  -2   2   6   12.86    4.17
  -2   2   6   14.78    4.71
  -2   2   6   13.23    2.98
   2  -2  -6    9.49    2.96
   2  -2  -5    4.78    1.79
   2  -2  -5    4.61    1.18
   2  -2  -5    5.29    1.55
   2  -2  -5    5.01    1.45
   2  -2  -5    3.65    1.60
   2  -2  -5    2.37    0.97
  -2   2   5    4.15    1.53
   2  -2  -5    4.83    2.42
  -2   2   5    6.94    3.06
  -2   2   5    3.80    1.56
   2  -2  -5    4.63    2.65
   2  -2  -5    7.52    2.46
  -2   2   5    3.71    1.66
  -2   2   5    6.30    2.78
  -2   2   5    5.75    1.84
   2  -2  -5    5.74    2.12
   2  -2  -4   20.32    3.68
   2  -2  -4   19.39    2.46
   2  -2  -4   20.95    2.88
  -2   2   4   22.74    3.54
   2  -2  -4   19.56    2.89
  -2   2   4   19.68    2.88
   2  -2  -4   19.20    2.66
  -2   2   4   21.19    3.51
   2  -2  -4   17.92    3.07
  -2   2   4   23.93    3.25
   2  -2  -4   24.82    4.74
  -2   2   4   20.99    4.67
   2  -2  -4   27.50    5.24
   2  -2  -4   19.94    3.94
  -2   2   4   26.79    5.03
  -2   2   4   15.20    4.01
   2  -2  -4   21.17    3.81
   2  -2  -3  147.39    9.73
   2  -2  -3  115.64    6.67
   2  -2  -3  115.66    7.05
  -2   2   3  122.67    8.09
  -2   2   3  139.04    8.25
   2  -2  -3  118.16    7.16
  -2   2   3  126.44    8.57
   2  -2  -3  120.64    7.08
   2  -2  -3  107.86    7.65
   2  -2  -3  144.99   11.00
  -2   2   3  123.63   10.78
   2  -2  -3  150.09   11.47
   2  -2  -3  127.84    9.67
  -2   2   3  119.60   10.31
   2  -2  -3  123.63    6.91
  -2   2   3  114.14   10.40
   2  -2  -3  116.70    7.64
  -2   2   3  126.56    9.75
   2  -2  -2   18.98    3.09
   2  -2  -2   15.45    2.03
   2  -2  -2   12.45    1.86
  -2   2   2   16.86    2.46
  -2   2   2   15.99    2.63
   2  -2  -2   14.12    2.00
   2  -2  -2   15.32    1.97
   2  -2  -2   13.40    2.14
   2  -2  -2   16.72    3.41
  -2   2   2   13.39    3.03
  -2   2   2   13.12    2.48
   2  -2  -2   18.03    3.59
   2  -2  -2   19.45    2.65
   2  -2  -2   15.81    3.03
  -2   2   2   13.11    2.89
   2  -2  -2   14.13    1.92
  -2   2   2   10.54    2.81
  -2   2   2   14.22    2.79
   2  -2  -1   91.20    6.91
   2  -2  -1   83.44    4.99
  -2   2   1   80.60    5.46
   2  -2  -1   79.42    4.79
  -2   2   1   92.54    6.88
   2  -2  -1   78.93    4.91
   2  -2  -1   84.07    5.06
   2  -2  -1   91.95    6.12
   2  -2  -1  100.92    8.14
  -2   2   1   84.39    5.85
  -2   2   1   89.28    7.71
   2  -2  -1  105.23    8.52
   2  -2  -1   93.23    7.26
  -2   2   1   81.60    7.20
  -2   2   1   92.32    7.69
  -2   2   1   92.09    7.08
   2  -2   0  481.41   20.29
   2  -2   0  436.99   16.21
   2  -2   0  460.35   16.86
  -2   2   0  503.09   20.59
  -2   2   0  461.48   17.93
   2  -2   0  516.09   22.45
  -2   2   0  473.43   21.30
  -2   2   0  469.70   19.15
  -2   2   0  486.41   21.21
  -2   2   0  466.12   20.79
   2  -2   0  461.85   16.94
  -2   2   0  495.92   21.24
  -2   2   0  468.24   20.12
   2  -2   1  617.77   22.09
  -2   2  -1  734.14   26.81
   2  -2   1  677.63   21.82
  -2   2  -1  667.16   26.35
   2  -2   1  565.25   21.77
   2  -2   1  553.52   21.74
   2  -2   1  639.79   28.20
   2  -2   1  646.01   21.89
  -2   2  -1  639.05   26.75
  -2   2  -1  642.56   25.01
   2  -2   1  806.65   31.68
  -2   2  -1  640.42   26.65
  -2   2  -1  638.96   26.25
  -2   2  -1  683.68   26.69
  -2   2  -1  730.61   23.06
  -2   2  -1  634.68   25.68
   2  -2   1  587.66   25.68
   2  -2   2 1179.84   37.73
  -2   2  -2 1264.98   43.01
   2  -2   2 1218.03   37.60
   2  -2   2 1185.63   37.18
  -2   2  -2 1192.40   37.95
  -2   2  -2 1162.09   43.95
   2  -2   2 1197.97   37.64
   2  -2   2 1128.06   37.56
   2  -2   2 1022.78   45.07
  -2   2  -2 1112.53   43.27
  -2   2  -2 1164.21   41.79
   2  -2   2 1155.64   37.71
   2  -2   2 1316.23   49.74
  -2   2  -2 1053.13   42.88
  -2   2  -2 1084.22   42.61
  -2   2  -2 1145.19   42.91
  -2   2  -2 1056.25   41.77
  -2   2  -3  272.44   16.23
  -2   2  -3  279.88   15.53
  -2   2  -3  296.43   12.04
   2  -2   3  328.40   12.41
  -2   2  -3  303.85   18.09
   2  -2   3  384.14   12.73
   2  -2   3  341.25   12.39
   2  -2   3  355.24   12.43
   2  -2   3  234.99   17.80
  -2   2  -3  287.07   16.98
  -2   2  -3  323.22   16.16
   2  -2   3  314.14   22.19
  -2   2  -3  260.27   16.58
  -2   2  -3  290.25   16.73
  -2   2  -3  274.08   12.84
  -2   2  -3  309.53   17.08
  -2   2  -3  261.23   15.75
  -2   2  -4  121.06   10.61
  -2   2  -4  138.80   10.07
  -2   2  -4  118.12    7.94
   2  -2   4  164.46    7.51
  -2   2  -4  136.21   12.21
   2  -2   4  155.11    7.32
   2  -2   4  103.62   11.97
  -2   2  -4  139.84   10.21
  -2   2  -4  135.89   11.53
   2  -2   4  140.08   16.09
  -2   2  -4  122.98   11.07
  -2   2  -4  134.59   11.20
  -2   2  -4  135.47    8.33
  -2   2  -4  139.84   11.41
  -2   2  -4  125.73   10.53
  -2   2  -5   51.84    7.11
   2  -2   5   72.55    4.79
  -2   2  -5   66.58    8.91
   2  -2   5   63.81    4.56
   2  -2   5   84.80    5.14
  -2   2  -5   66.43    7.06
   2  -2   5   63.05    4.63
   2  -2   5   63.91   11.70
  -2   2  -5   53.32    7.58
  -2   2  -5   55.51    7.50
  -2   2  -5   56.62    7.72
  -2   2  -5   62.45    5.79
  -2   2  -5   53.44    7.11
  -2   2  -6    7.44    2.56
   2  -2   6   11.08    1.95
   2  -2   6   10.86    3.33
  -2   2  -6   14.81    4.73
   2  -2   6   13.84    2.19
   2  -2   6   12.42    2.01
  -2   2  -6    5.87    2.62
   2  -2   6   14.24    2.09
  -2   2  -6   10.38    3.47
   2  -2   6   13.40    5.82
  -2   2  -6    8.78    2.52
  -2   2  -6    9.30    3.28
  -2   2  -6   14.05    4.09
   2  -2   6   11.31    4.16
  -2   2  -6    8.83    2.38
  -2   2  -6    9.63    3.30
  -2   2  -7   10.94    3.74
  -2   2  -7    8.93    1.96
   2  -2   7    7.69    1.28
  -2   2  -7    7.43    2.59
   2  -2   7    8.61    1.75
   2  -2   7    7.86    1.27
  -2   2  -7   10.08    2.21
  -2   2  -7    7.06    2.27
  -2   2  -7    6.36    2.02
  -2   2  -7    2.39    1.10
  -2   2  -7    8.32    3.19
   2  -2   7    9.38    2.06
  -2   2  -7    9.91    2.20
   2  -2   7    9.56    3.35
   2  -2   7    7.70    1.87
  -2   2  -7    7.09    3.57
   2  -2   7    8.11    1.77
  -2   2  -7   10.05    3.72
   2  -2   7    7.35    4.34
  -2   2  -7    6.89    2.34
  -2   2  -7    8.72    2.46
  -2   2  -7    8.89    3.37
  -2   2  -7    8.41    2.03
   2  -2   7    9.31    3.51
  -2   2  -7    5.82    1.96
  -2   2  -7    9.31    3.44
  -2   2  -8   99.19   12.31
   2  -2   8  113.88    6.22
  -2   2  -8  117.77    8.08
   2  -2   8  120.14    6.19
  -2   2  -8  100.92    9.23
   2  -2   8  106.10    7.63
  -2   2  -8  119.19    8.13
   2  -2   8  104.90    7.10
  -2   2  -8  111.56   10.22
  -2   2  -8  105.69    9.68
   2  -2   8  113.80    7.92
  -2   2  -8   98.91    8.90
  -2   2  -8  132.46   15.41
   2  -2   8  104.55    7.81
  -2   2  -8  111.03    8.53
   2  -2   8  102.48    8.11
  -2   2  -8   76.29   12.78
  -2   2  -8  105.03   13.26
   2  -2   8   97.16   18.51
  -2   2  -8  109.19   13.56
  -2   2  -8  101.38   12.65
  -2   2  -8  119.96   10.52
  -2   2  -8  121.21    8.57
   2  -2   8  115.71   15.76
  -2   2  -8  102.16   12.36
   2  -2   9  394.90   15.29
  -2   2  -9  367.24   20.88
  -2   2  -9  341.94   17.25
   2  -2   9  371.59   16.95
   2  -2   9  357.92   17.47
  -2   2  -9  347.45   20.83
  -2   2  -9  362.31   20.20
  -2   2  -9  440.08   17.77
   2  -2   9  395.33   18.44
  -2   2  -9  340.38   19.40
  -2   2  -9  449.62   30.48
   2  -2   9  375.42   18.41
  -2   2  -9  392.74   18.69
   2  -2   9  334.65   18.79
   2  -2   9  435.23   15.53
  -2   2  -9  433.29   22.95
  -2   2  -9  387.00   18.46
   2  -2  10  235.92   10.90
  -2   2 -10  253.52   13.13
   2  -2  10  233.85   12.31
   2  -2  10  221.20   12.65
  -2   2 -10  215.31   15.25
  -2   2 -10  231.18   15.35
  -2   2 -10  218.23   14.56
   2  -2  10  260.33   14.10
  -2   2 -10  215.70   14.15
   2  -2  10  242.57   14.02
  -2   2 -10  252.74   21.85
  -2   2 -10  229.70   12.87
  -2   2 -10  274.08   12.84
   2  -2  10  242.90   10.75
  -2   2 -10  263.55   17.24
  -2   2 -10  257.52   13.49
   2  -2  11    4.37    1.19
   2  -2  11    5.59    1.55
  -2   2 -11    5.23    1.45
   2  -2  11    6.84    1.76
  -2   2 -11    3.36    1.26
  -2   2 -11    6.36    2.23
  -2   2 -11    2.54    1.36
  -2   2 -11    2.89    1.36
  -2   2 -11    6.38    1.61
  -2   2 -11    5.06    1.43
   2  -2  11    5.64    1.19
  -2   2 -11    4.86    1.46
   2  -2  12    2.71    0.79
   2  -2  12    5.01    1.45
  -2   2 -12    3.18    0.96
  -2   2 -12    2.99    1.19
  -2   2 -12    3.23    1.11
  -2   2 -12    2.46    0.99
  -2   2 -12    3.20    0.91
   2  -2  12    2.85    0.78
  -2   2 -12    2.79    0.98
  -2   2 -13    3.03    0.95
   2  -2  13    1.16    0.40
  -2   2 -13    0.80    0.41
   2  -2  13    1.96    0.66
  -2   2 -13    0.89    0.46
  -2   2 -13    1.27    0.66
  -2   2 -13    1.21    0.41
   2  -1 -13    3.25    0.70
  -2   1  13    4.36    1.02
   2  -1 -13    3.69    0.85
  -2   1  13    3.22    0.73
   2  -1 -12    3.57    1.00
  -2   1  12    3.09    0.76
   2  -1 -12    4.29    1.19
   2  -1 -12    4.55    1.14
  -2   1  12    5.70    1.53
  -2   1  12    4.57    1.62
  -2   1  12    4.73    0.96
   2  -1 -12    4.76    1.15
   2  -1 -12    4.39    1.18
  -2   1  12    4.64    1.16
   2  -1 -11   26.02    3.23
  -2   1  11   23.55    2.71
   2  -1 -11   26.12    3.00
  -2   1  11   30.71    3.97
  -2   1  11   23.29    4.15
   2  -1 -11   24.88    3.45
   2  -1 -11   29.06    3.39
   2  -1 -11   21.96    3.22
   2  -1 -11   33.19    3.58
  -2   1  11   26.06    3.19
   2  -1 -10  359.86   15.98
   2  -1 -10  360.64   18.32
  -2   1  10  317.04   14.78
   2  -1 -10  341.32   15.42
   2  -1 -10  372.11   16.38
   2  -1 -10  340.39   17.18
  -2   1  10  281.51   18.78
  -2   1  10  385.85   18.16
   2  -1 -10  352.47   17.16
   2  -1 -10  341.95   21.14
   2  -1 -10  394.50   16.77
  -2   1  10  352.33   15.92
  -2   1  10  371.20   15.98
   2  -1  -9   39.49    4.16
   2  -1  -9   40.36    5.15
   2  -1  -9   41.85    5.05
  -2   1   9   40.36    4.07
   2  -1  -9   41.70    4.26
  -2   1   9   44.48    5.33
  -2   1   9   32.38    5.69
   2  -1  -9   32.83    4.83
  -2   1   9   45.52    4.43
   2  -1  -9   44.71    4.86
   2  -1  -9   40.93    5.04
   2  -1  -9   45.02    4.60
  -2   1   9   39.17    5.73
   2  -1  -9   43.84    6.64
   2  -1  -9   42.77    4.63
  -2   1   9   44.80    4.57
  -2   1   9   39.98    4.21
   2  -1  -8  112.49   11.55
   2  -1  -8  115.28    7.34
   2  -1  -8  112.69    8.89
  -2   1   8  104.37    6.92
   2  -1  -8  114.88    8.55
  -2   1   8  121.36    8.99
   2  -1  -8  109.59    9.66
  -2   1   8  116.46    7.53
   2  -1  -8  103.51    8.41
   2  -1  -8  123.13    8.62
   2  -1  -8  112.51    7.59
  -2   1   8   97.40   13.62
   2  -1  -8  100.24   10.05
  -2   1   8  112.86    9.84
   2  -1  -8   95.77    8.73
  -2   1   8   84.84    9.16
  -2   1   8  136.84   11.24
   2  -1  -8  112.89   13.42
  -2   1   8  117.27   14.65
  -2   1   8  113.70    7.56
   2  -1  -8  107.43   13.39
   2  -1  -8  102.82   11.69
  -2   1   8  120.52   14.31
   2  -1  -8  109.36   11.29
  -2   1   8  123.01    7.86
   2  -1  -7   28.83    5.34
   2  -1  -7   29.45    4.10
  -2   1   7   28.50    3.19
  -2   1   7   33.49    4.28
  -2   1   7   30.07    3.38
   2  -1  -7   29.17    3.87
   2  -1  -7   33.29    3.64
   2  -1  -7   23.28    3.95
   2  -1  -7   31.36    5.08
  -2   1   7   34.61    4.89
  -2   1   7   35.27    5.24
   2  -1  -7   28.07    6.23
  -2   1   7   32.74    7.29
  -2   1   7   31.22    3.49
   2  -1  -7   31.14    6.82
   2  -1  -7   27.70    5.44
  -2   1   7   28.75    6.35
  -2   1   7   28.43    6.54
   2  -1  -7   32.83    5.72
  -2   1   7   37.03    3.81
   2  -1  -6   60.75    7.29
   2  -1  -6   57.96    6.56
   2  -1  -6   63.55    5.82
   2  -1  -6   56.31    7.31
  -2   1   6   69.57    6.78
   2  -1  -6   58.78    5.98
   2  -1  -6   67.49    5.69
  -2   1   6   61.99    6.33
   2  -1  -6   56.10    8.17
   2  -1  -6   59.91    8.74
  -2   1   6   62.31    9.15
  -2   1   6   56.82    6.49
  -2   1   6   57.25    8.43
  -2   1   6   52.35    8.54
   2  -1  -6   58.98    7.10
   2  -1  -5   77.48    7.58
   2  -1  -5   76.67    6.01
  -2   1   5   71.62    6.65
  -2   1   5   71.70    6.51
   2  -1  -5   69.88    6.04
   2  -1  -5   74.60    5.85
   2  -1  -5   68.70    6.74
  -2   1   5   78.93    6.60
   2  -1  -5   74.78    8.57
  -2   1   5   70.55    8.93
   2  -1  -5   77.36    9.02
   2  -1  -5   72.52    7.72
  -2   1   5   80.30    9.23
  -2   1   5   69.11    8.99
   2  -1  -5   77.76    7.57
   2  -1  -4  494.82   21.72
   2  -1  -4  466.38   19.15
  -2   1   4  465.12   18.71
  -2   1   4  475.53   20.19
   2  -1  -4  469.91   19.28
   2  -1  -4  499.08   19.32
  -2   1   4  471.41   20.47
   2  -1  -4  446.45   20.37
  -2   1   4  491.82   19.92
   2  -1  -4  502.86   24.14
  -2   1   4  482.03   24.97
   2  -1  -4  489.05   24.35
   2  -1  -4  508.52   22.69
  -2   1   4  492.31   24.31
  -2   1   4  467.74   24.78
   2  -1  -4  482.49   21.69
   2  -1  -3  235.76   12.01
  -2   1   3  231.83   10.53
   2  -1  -3  193.49    9.85
   2  -1  -3  210.01   10.07
  -2   1   3  227.60   10.79
  -2   1   3  204.59   10.44
   2  -1  -3  208.61   10.12
  -2   1   3  223.81   11.52
   2  -1  -3  203.25   10.93
   2  -1  -3  237.05   13.52
  -2   1   3  220.28   13.75
   2  -1  -3  233.83   13.77
   2  -1  -3  225.34   12.38
  -2   1   3  212.60   13.18
  -2   1   3  208.82   13.54
   2  -1  -3  238.36   12.09
   2  -1  -2  368.80   14.90
  -2   1   2  318.07   16.04
   2  -1  -2  333.12   13.49
   2  -1  -2  305.18   12.81
  -2   1   2  322.88   13.09
  -2   1   2  356.97   14.50
  -2   1   2  297.97   13.77
   2  -1  -2  311.26   12.56
   2  -1  -2  309.28   13.11
  -2   1   2  322.51   14.41
   2  -1  -2  291.40   13.35
  -2   1   2  326.19   12.85
   2  -1  -2  393.29   16.73
   2  -1  -2  383.11   16.91
   2  -1  -2  347.53   15.21
  -2   1   2  324.41   15.79
   2  -1  -2  340.91   13.00
  -2   1   2  299.34   15.67
  -2   1   2  327.05   14.96
   2  -1  -1  205.86    9.50
   2  -1  -1  168.66    8.25
  -2   1   1  175.02    7.75
   2  -1  -1  164.90    7.61
  -2   1   1  194.40    9.87
   2  -1  -1  168.57    7.14
   2  -1  -1  165.24    7.87
  -2   1   1  172.99    7.34
   2  -1  -1  212.24   10.64
  -2   1   1  181.55    8.82
  -2   1   1  180.76   10.10
   2  -1  -1  228.02   11.15
   2  -1  -1  187.92    9.55
  -2   1   1  180.96    9.88
  -2   1   1  178.46    9.94
  -2   1   1  179.98    9.35
   2  -1   0  503.91   18.64
   2  -1   0  462.26   16.74
   2  -1   0  436.33   15.56
  -2   1   0  529.87   19.74
   2  -1   0  469.70   16.24
  -2   1   0  408.31   14.57
   2  -1   0  534.75   20.24
  -2   1   0  510.32   18.79
  -2   1   0  502.39   19.35
   2  -1   0  619.95   21.70
  -2   1   0  508.67   19.21
  -2   1   0  484.85   18.85
   2  -1   0  453.93   16.62
  -2   1   0  526.01   19.28
  -2   1   0  490.41   18.42
  -2   1  -1 2213.08   64.27
   2  -1   1 1906.96   58.70
  -2   1  -1 1969.82   59.75
  -2   1  -1 2191.62   65.19
   2  -1   1 1601.27   59.32
   2  -1   1 1879.98   64.49
  -2   1  -1 2042.29   62.99
  -2   1  -1 1933.59   63.13
   2  -1   1 2238.79   67.14
  -2   1  -1 1893.26   62.98
  -2   1  -1 1945.65   62.80
   2  -1   1 1946.13   59.56
  -2   1  -1 2053.68   63.07
  -2   1  -1 1846.95   62.18
   2  -1   1 1709.68   62.16
  -2   1  -2  771.55   29.71
   2  -1   2  774.23   26.26
  -2   1  -2  813.83   30.13
  -2   1  -2  699.66   27.56
   2  -1   2  741.86   26.10
  -2   1  -2  875.13   32.61
   2  -1   2  782.47   26.06
   2  -1   2  812.45   25.98
   2  -1   2  694.43   31.52
  -2   1  -2  832.20   30.08
  -2   1  -2  799.06   30.44
   2  -1   2  916.33   36.59
  -2   1  -2  745.17   30.08
  -2   1  -2  784.36   29.95
  -2   1  -2  802.30   26.73
  -2   1  -2  831.44   30.23
  -2   1  -2  766.53   29.46
  -2   1  -2  802.28   25.69
  -2   1  -3   81.83    7.16
   2  -1   3   92.78    4.96
   2  -1   3   92.36    4.96
  -2   1  -3   84.14    6.94
  -2   1  -3   75.64    5.58
   2  -1   3   97.62    4.83
  -2   1  -3   87.94    4.26
   2  -1   3   80.76    6.60
  -2   1  -3   92.69    8.74
   2  -1   3  101.96    4.99
   2  -1   3   60.05    7.64
  -2   1  -3   84.03    6.93
  -2   1  -3   73.80    7.12
   2  -1   3   95.07   10.83
   2  -1   3   91.58    4.82
  -2   1  -3   71.86    7.09
  -2   1  -3   80.20    7.21
  -2   1  -3   76.76    5.39
  -2   1  -3   80.22    7.23
  -2   1  -3   77.06    6.91
  -2   1  -4   76.07    7.63
  -2   1  -4   78.22    7.97
  -2   1  -4   73.38    5.39
   2  -1   4   74.41    7.16
   2  -1   4   95.01    5.17
  -2   1  -4   91.57    9.46
   2  -1   4   94.05    5.02
   2  -1   4   49.40    7.62
  -2   1  -4   77.61    6.96
   2  -1   4   76.26   10.98
  -2   1  -4   71.58    7.72
  -2   1  -4   74.67    7.58
  -2   1  -4   81.32    6.09
   2  -1   4  117.07    5.48
  -2   1  -4   74.85    7.62
  -2   1  -4   72.93    7.31
  -2   1  -5    4.44    1.90
   2  -1   5    3.97    1.03
  -2   1  -5    3.22    1.87
   2  -1   5    2.34    1.53
   2  -1   5    2.40    0.79
   2  -1   5    4.76    1.07
   2  -1   5    3.55    0.95
  -2   1  -5    2.75    1.63
  -2   1  -5    3.38    1.90
   2  -1   5    6.80    4.47
   2  -1   5    3.57    1.01
  -2   1  -5    4.68    1.84
  -2   1  -5    4.73    1.97
  -2   1  -5    3.63    1.83
   2  -1   5    3.45    2.27
  -2   1  -5    3.89    1.47
  -2   1  -5    4.20    1.88
  -2   1  -6   49.32    7.26
  -2   1  -6   56.40    5.96
   2  -1   6   59.08    7.64
   2  -1   6   70.74    4.96
  -2   1  -6   51.98    8.24
   2  -1   6   46.19    4.10
   2  -1   6   66.41    4.76
   2  -1   6   69.71    4.31
  -2   1  -6   45.91    5.88
  -2   1  -6   37.28    7.36
  -2   1  -6   51.71    7.63
   2  -1   6   64.68    4.71
   2  -1   6   46.19   10.51
  -2   1  -6   47.70    7.41
  -2   1  -6   51.04    7.36
   2  -1   6   49.36    8.47
  -2   1  -6   52.15    7.23
  -2   1  -7   23.59    5.25
  -2   1  -7   27.87    6.32
   2  -1   7   26.60    3.18
   2  -1   7   22.72    2.98
   2  -1   7   23.46    3.07
   2  -1   7   24.17    5.26
  -2   1  -7   24.26    6.50
   2  -1   7   27.82    3.16
  -2   1  -7   25.04    5.74
   2  -1   7   16.79    6.91
  -2   1  -7   23.02    5.42
  -2   1  -7   25.01    5.62
  -2   1  -7   23.16    4.10
   2  -1   7   26.23    6.97
  -2   1  -7   18.53    4.45
  -2   1  -8   30.48    6.40
   2  -1   8   45.38    3.40
  -2   1  -8   47.71    4.79
   2  -1   8   39.47    4.40
  -2   1  -8   42.46    6.02
  -2   1  -8   39.66    5.66
  -2   1  -8   41.26    5.59
   2  -1   8   43.52    4.57
   2  -1   8   44.26    7.71
  -2   1  -8   38.16    5.19
  -2   1  -8   54.99    9.55
   2  -1   8   40.85    4.48
  -2   1  -8   41.95    4.87
   2  -1   8   37.76    4.56
   2  -1   8   47.73    4.41
  -2   1  -8   42.89    4.33
  -2   1  -8   38.11    8.52
  -2   1  -8   35.22    7.11
   2  -1   8   44.79   12.16
  -2   1  -8   43.96    8.32
  -2   1  -8   35.72    7.08
  -2   1  -8   44.97    6.26
   2  -1   8   42.39    4.13
  -2   1  -8   40.33    4.75
   2  -1   8   38.27    8.92
  -2   1  -8   40.42    7.38
   2  -1   9  851.34   29.17
  -2   1  -9  921.73   33.04
   2  -1   9  830.94   31.18
   2  -1   9  779.74   31.93
  -2   1  -9  816.76   36.62
  -2   1  -9  812.41   36.21
  -2   1  -9  807.89   35.25
   2  -1   9  827.49   32.69
  -2   1  -9  780.40   34.59
  -2   1  -9  965.94   47.83
   2  -1   9  816.32   32.67
  -2   1  -9  885.21   33.21
   2  -1   9  698.47   32.91
  -2   1  -9  937.00   32.34
   2  -1   9  912.44   29.58
  -2   1  -9  938.80   38.95
  -2   1  -9  899.23   33.46
   2  -1  10  231.08   10.74
  -2   1 -10  256.44   13.25
   2  -1  10  234.48   12.25
  -2   1 -10  240.96   12.91
   2  -1  10  224.17   12.86
  -2   1 -10  215.55   15.21
  -2   1 -10  229.68   15.33
  -2   1 -10  216.66   14.49
   2  -1  10  237.04   13.67
  -2   1 -10  211.79   14.00
   2  -1  10  243.78   13.87
  -2   1 -10  247.01   21.38
  -2   1 -10  255.80   12.81
   2  -1  10  242.62   10.87
  -2   1 -10  248.59   16.98
  -2   1 -10  246.58   13.34
   2  -1  11   17.54    2.25
   2  -1  11   14.74    2.08
   2  -1  11   12.53    2.54
  -2   1 -11   13.26    2.47
  -2   1 -11   12.24    2.98
  -2   1 -11   11.96    2.75
  -2   1 -11   11.11    2.66
  -2   1 -11   16.52    2.67
  -2   1 -11   14.62    2.48
   2  -1  11   13.68    1.97
  -2   1 -11   13.64    2.51
   2  -1  12    9.83    1.60
  -2   1 -12   12.80    2.13
   2  -1  12   10.68    2.13
  -2   1 -12   11.61    2.74
  -2   1 -12   10.66    2.28
   2  -1  12   11.47    1.66
  -2   1 -12   12.19    2.49
  -2   1 -12   11.04    1.85
  -2   1 -12   11.02    2.06
   2  -1  13   19.61    1.90
  -2   1 -13   23.05    2.38
   2  -1  13   24.68    2.78
  -2   1 -13   20.05    2.72
  -2   1 -13   23.64    2.79
  -2   1 -13   20.29    2.56
  -2   1 -13   22.09    2.13
   2  -1  13   23.17    2.08
  -2   1 -13   21.76    2.34
   2   0 -13   24.01    2.22
  -2   0  13   20.33    1.76
   2   0 -13   21.21    1.92
  -2   0  13   30.29    2.75
   2   0 -13   28.00    2.44
  -2   0  13   25.61    2.20
   2   0 -12    4.26    1.19
  -2   0  12    4.12    0.99
   2   0 -12    5.00    1.13
  -2   0  12    5.76    1.49
  -2   0  12    3.38    1.27
   2   0 -12    3.78    1.07
   2   0 -12    4.06    1.08
   2   0 -12    5.39    1.30
   2   0 -12    4.70    1.22
  -2   0  12    4.47    1.13
   2   0 -11   51.19    4.63
  -2   0  11   44.49    4.09
   2   0 -11   50.25    4.27
  -2   0  11   54.48    5.41
  -2   0  11   38.53    5.42
   2   0 -11   44.48    4.71
   2   0 -11   50.85    4.60
   2   0 -11   49.30    4.76
   2   0 -11   55.26    4.93
  -2   0  11   54.78    4.66
   2   0 -10  119.33    7.69
   2   0 -10  119.23    9.16
  -2   0  10  106.84    7.16
   2   0 -10  116.05    7.37
   2   0 -10  116.49    7.82
  -2   0  10  129.73    9.24
  -2   0  10  104.29   10.03
   2   0 -10  102.80    8.67
   2   0 -10  110.31    8.36
   2   0 -10  105.19    8.04
   2   0 -10  106.67   10.70
   2   0 -10  124.19    8.27
  -2   0  10  137.97    8.18
   2   0  -9 1053.40   37.37
   2   0  -9 1107.81   40.66
  -2   0   9 1022.36   37.06
  -2   0   9 1170.10   40.67
  -2   0   9  813.49   41.23
   2   0  -9  918.34   39.72
  -2   0   9 1055.32   42.09
   2   0  -9  999.26   39.23
   2   0  -9 1134.58   39.25
   2   0  -9 1118.32   38.39
   2   0  -9 1064.16   44.58
   2   0  -9 1040.67   39.14
   2   0  -9 1180.12   38.98
  -2   0   9 1101.20   37.75
   2   0  -8    5.90    2.73
  -2   0   8    3.30    1.12
   2   0  -8    1.57    1.01
  -2   0   8    3.16    1.24
   2   0  -8    2.02    1.22
  -2   0   8    1.81    1.20
   2   0  -8    2.47    1.16
   2   0  -8    2.89    1.44
   2   0  -8    1.78    1.14
   2   0  -8    3.05    1.42
  -2   0   8    3.32    1.77
   2   0  -8    2.20    1.10
   2   0  -8    3.02    1.70
   2   0  -8    3.45    2.38
   2   0  -8    2.33    0.93
  -2   0   8    4.44    2.50
   2   0  -8    4.40    2.02
  -2   0   8    3.64    1.40
  -2   0   8    3.65    1.21
   2   0  -8    0.90    0.61
  -2   0   8    2.86    2.13
  -2   0   8   -1.22    3.31
  -2   0   8    2.43    0.78
   2   0  -8    1.15    1.24
   2   0  -7    6.47    2.44
  -2   0   7    6.34    1.43
   2   0  -7    5.83    1.77
  -2   0   7    6.38    1.78
  -2   0   7    6.78    1.69
   2   0  -7    3.80    1.30
  -2   0   7    6.92    2.11
   2   0  -7    4.88    1.69
   2   0  -7    8.95    2.73
   2   0  -7    7.32    3.04
  -2   0   7    9.55    3.68
  -2   0   7    6.29    1.96
   2   0  -7    5.16    2.18
   2   0  -7    7.75    2.41
  -2   0   7    4.93    2.62
  -2   0   7    6.70    2.91
  -2   0   7    4.55    1.18
   2   0  -7    6.42    2.61
   2   0  -6   91.26    8.81
   2   0  -6  103.17    7.45
  -2   0   6   88.68   10.85
   2   0  -6  103.21    8.03
  -2   0   6   99.94    7.81
   2   0  -6   96.85    7.23
   2   0  -6   88.27    9.11
  -2   0   6   94.41    7.57
   2   0  -6   96.43    8.59
  -2   0   6  115.09    8.77
   2   0  -6   93.26   10.10
  -2   0   6   96.55   11.01
   2   0  -6   81.04    9.82
  -2   0   6  101.41   10.91
   2   0  -6   82.82    8.30
   2   0  -5   14.58    2.97
   2   0  -5   13.52    2.36
   2   0  -5   13.84    2.85
  -2   0   5   13.04    2.49
   2   0  -5   16.13    2.75
   2   0  -5   12.72    2.33
  -2   0   5   15.01    2.79
   2   0  -5   13.90    3.29
  -2   0   5   13.09    2.49
   2   0  -5    8.18    2.63
   2   0  -5   12.27    2.75
  -2   0   5   12.89    3.37
  -2   0   5   11.30    3.26
  -2   0   5   13.07    3.66
  -2   0   5   15.58    2.77
   2   0  -5   11.12    2.59
   2   0  -4   58.07    5.62
   2   0  -4   65.67    5.19
  -2   0   4   57.64    5.06
  -2   0   4   64.49    4.55
  -2   0   4   67.18    5.31
   2   0  -4   66.62    5.33
   2   0  -4   63.71    5.23
  -2   0   4   70.11    5.66
   2   0  -4   63.96    5.93
  -2   0   4   69.99    5.63
   2   0  -4   63.49    6.66
  -2   0   4   63.84    7.13
   2   0  -4   59.85    6.76
   2   0  -4   65.29    6.23
  -2   0   4   62.22    6.85
  -2   0   4   71.46    7.67
   2   0  -4   67.01    5.91
   2   0  -3  211.21   10.46
  -2   0   3  208.23   10.44
   2   0  -3  210.63    9.97
  -2   0   3  193.88    9.48
  -2   0   3  189.70    9.13
   2   0  -3  210.46   10.14
   2   0  -3  191.87    9.48
   2   0  -3  190.79   10.71
  -2   0   3  221.22   10.10
   2   0  -3  207.80   11.67
  -2   0   3  210.57   12.30
   2   0  -3  191.25   11.65
   2   0  -3  214.06   10.99
  -2   0   3  195.68   11.60
  -2   0   3  190.79   11.93
   2   0  -3  200.96   10.30
   2   0  -2  414.82   15.08
   2   0  -2  375.27   14.85
  -2   0   2  418.22   15.09
   2   0  -2  373.63   14.26
  -2   0   2  356.81   15.13
  -2   0   2  331.85   13.20
   2   0  -2  401.59   15.29
  -2   0   2  386.33   15.62
   2   0  -2  364.14   15.76
  -2   0   2  374.25   14.39
   2   0  -2  418.03   16.30
  -2   0   2  372.57   16.19
   2   0  -2  412.68   16.50
   2   0  -2  408.90   15.46
  -2   0   2  372.72   15.89
  -2   0   2  361.54   16.14
   2   0  -2  341.80   14.20
   2   0  -2  408.64   15.02
   2   0  -1 5789.77  149.92
   2   0  -1 5160.02  149.83
  -2   0   1 5618.36  151.74
  -2   0   1 4044.50  147.24
   2   0  -1 4864.39  148.67
  -2   0   1 4852.10  150.96
   2   0  -1 5237.30  150.28
   2   0  -1 6159.81  151.37
  -2   0   1 5009.24  148.69
  -2   0   1 4993.43  150.54
   2   0  -1 5292.20  150.00
  -2   0   1 4988.80  150.26
  -2   0   1 4863.62  150.26
   2   0  -1 4854.93  149.34
  -2   0   1 5103.74  149.80
  -2   0   0  916.41   26.95
   2   0   0  940.48   29.53
  -2   0   0  995.12   31.61
  -2   0   0  853.80   30.25
   2   0   0  821.39   26.84
   2   0   0  915.34   28.78
   2   0   0  939.52   30.17
  -2   0   0  964.01   30.65
  -2   0   0  908.77   29.40
   2   0   0 1081.10   31.25
  -2   0   0  753.03   26.69
  -2   0   0  899.19   29.35
  -2   0   0  916.05   29.25
  -2   0   0  840.28   31.26
  -2   0   0  952.00   29.34
   2   0   0  921.82   28.30
  -2   0   0  899.25   28.88
   2   0   0  857.79   28.93
  -2   0  -1  101.53    5.96
   2   0   1  110.71    5.46
  -2   0  -1  122.38    7.34
  -2   0  -1  100.44    6.26
   2   0   1  103.36    4.67
  -2   0  -1  123.10    8.13
   2   0   1   84.91    6.38
  -2   0  -1  113.43    6.88
  -2   0  -1  106.14    6.28
   2   0   1  119.25    8.27
  -2   0  -1   99.58    6.15
  -2   0  -1  103.25    6.03
  -2   0  -1  100.22    6.67
   2   0   1  110.32    5.35
  -2   0  -1  113.50    6.23
  -2   0  -1  101.51    5.88
  -2   0  -2  232.04   11.36
   2   0   2  233.77    9.59
  -2   0  -2  215.53   10.36
   2   0   2  208.76   10.32
  -2   0  -2  279.61   14.56
   2   0   2  229.02    9.28
   2   0   2  217.34    9.34
   2   0   2  183.08   12.03
   2   0   2  235.34    9.12
  -2   0  -2  262.45   12.24
  -2   0  -2  249.09   11.89
   2   0   2  253.59   15.45
  -2   0  -2  234.27   11.73
  -2   0  -2  249.78   11.72
   2   0   2  248.65    9.22
  -2   0  -2  243.94   10.38
  -2   0  -2  252.87   11.80
  -2   0  -2  232.78   11.26
  -2   0  -3  129.84    9.11
   2   0   3  164.62    7.08
   2   0   3  168.22    7.25
  -2   0  -3  154.75    9.51
  -2   0  -3  126.21    7.44
   2   0   3  138.57    8.84
  -2   0  -3  166.11   11.86
   2   0   3  214.22    7.47
   2   0   3  166.85    7.03
   2   0   3  164.52    6.80
  -2   0  -3  129.01   10.20
  -2   0  -3  131.68    9.40
   2   0   3  139.05   12.91
  -2   0  -3  132.43    9.50
  -2   0  -3  140.08    9.46
  -2   0  -3  152.74    8.33
   2   0   3  160.62   11.14
  -2   0  -3  137.74    9.16
  -2   0  -4   94.56    8.30
  -2   0  -4   95.99    5.90
  -2   0  -4  107.69    8.04
   2   0   4  101.04    8.15
  -2   0  -4  123.79   10.83
   2   0   4  147.46    6.03
   2   0   4  116.09    5.57
   2   0   4   93.75    5.82
   2   0   4  128.69    5.94
  -2   0  -4   94.04    9.47
  -2   0  -4  102.05    8.84
   2   0   4  100.19   12.15
   2   0   4  110.91    6.25
  -2   0  -4  103.92    9.01
  -2   0  -4  102.46    8.62
  -2   0  -4  106.46    7.25
   2   0   4  108.28   10.05
  -2   0  -4   87.55    7.81
  -2   0  -5   64.75    7.39
   2   0   5   70.26    7.37
  -2   0  -5   72.84    6.37
   2   0   5   86.90    5.01
  -2   0  -5   79.99    9.37
   2   0   5   71.19    4.47
   2   0   5  101.72    5.17
   2   0   5   76.47    4.83
  -2   0  -5   62.89    8.44
  -2   0  -5   63.11    7.58
   2   0   5   82.11    5.27
   2   0   5   58.88   10.27
  -2   0  -5   67.25    7.84
  -2   0  -5   62.35    7.34
   2   0   5   59.61    8.27
  -2   0  -5   71.75    7.58
  -2   0  -6   42.06    6.50
   2   0   6   58.68    7.31
   2   0   6   48.56    4.12
  -2   0  -6   61.08    8.76
   2   0   6   48.03    3.91
   2   0   6   61.95    4.45
   2   0   6   73.94    4.51
  -2   0  -6   39.92    7.41
  -2   0  -6   46.81    7.05
   2   0   6   73.34    5.00
   2   0   6   53.19   10.95
  -2   0  -6   49.60    7.34
  -2   0  -6   45.88    7.04
  -2   0  -6   55.12    6.00
   2   0   6   52.39    8.41
  -2   0  -6   40.60    6.29
  -2   0  -7   29.53    5.88
   2   0   7   29.27    3.30
  -2   0  -7   30.02    6.46
   2   0   7   31.86    3.55
   2   0   7   30.75    3.42
   2   0   7   30.58    5.70
   2   0   7   40.43    3.92
  -2   0  -7   28.26    6.80
  -2   0  -7   28.29    5.79
  -2   0  -7   33.27    6.42
  -2   0  -7   32.58    4.84
   2   0   7   29.88    6.90
  -2   0  -7   27.53    5.56
  -2   0  -8  201.47   17.19
  -2   0  -8  215.53   10.70
   2   0   8  203.60    8.81
   2   0   8  189.11   10.89
  -2   0  -8  213.56   11.52
   2   0   8  183.15    9.92
  -2   0  -8  202.04   13.90
  -2   0  -8  202.23   13.63
   2   0   8  201.08   17.04
  -2   0  -8  192.44   12.99
   2   0   8  201.96   11.02
  -2   0  -8  189.53   12.60
  -2   0  -8  219.72   19.47
   2   0   8  187.44   10.72
  -2   0  -8  209.40   11.86
   2   0   8  173.99   10.91
   2   0   8  225.59   11.14
  -2   0  -8  165.70   18.17
  -2   0  -8  214.55   11.20
  -2   0  -8  188.69   17.40
  -2   0  -8  177.83   19.32
  -2   0  -8  183.69   17.18
   2   0   8  209.02   19.68
  -2   0  -8  216.07   14.87
  -2   0  -8  197.34   11.59
   2   0   8  185.63   19.73
  -2   0  -8  180.00   16.04
  -2   0  -9   47.42    4.63
   2   0   9   40.97    3.39
  -2   0  -9   45.91    8.86
  -2   0  -9   41.38    4.72
   2   0   9   39.24    4.64
   2   0   9   38.81    4.57
  -2   0  -9   36.21    5.78
   2   0   9   40.02    4.18
  -2   0  -9   39.30    5.73
  -2   0  -9   38.03    5.46
   2   0   9   40.60    4.71
  -2   0  -9   38.41    5.27
  -2   0  -9   43.22    4.81
   2   0   9   33.21    4.69
   2   0   9   45.66    4.73
  -2   0  -9   43.31    4.67
  -2   0  -9   31.10    7.18
   2   0   9   42.04    3.62
  -2   0  -9   51.22    7.08
   2   0   9   35.18    8.31
  -2   0  -9   39.34    4.76
   2   0   9   47.94   10.44
  -2   0  -9   35.43    7.20
   2   0   9   45.27    7.93
  -2   0 -10   65.73    5.51
   2   0  10   52.46    4.19
   2   0  10   53.04    5.75
  -2   0 -10   62.09    5.80
   2   0  10   57.85    5.79
  -2   0 -10   41.13    6.04
  -2   0 -10   56.37    6.93
  -2   0 -10   53.24    6.39
  -2   0 -10   53.07    6.22
   2   0  10   59.05    5.25
  -2   0 -10   64.64   10.46
  -2   0 -10   57.49    5.47
   2   0  10   53.36    6.54
  -2   0 -10   56.76    5.43
   2   0  10   58.31    4.49
  -2   0 -10   70.00    8.51
  -2   0 -10   54.25    5.54
   2   0  11  239.93   11.11
  -2   0 -11  263.98   12.21
   2   0  11  218.82   10.44
   2   0  11  217.99   12.72
  -2   0 -11  240.35   12.47
  -2   0 -11  222.13   14.42
  -2   0 -11  209.91   13.48
  -2   0 -11  223.12   13.50
  -2   0 -11  251.76   12.50
   2   0  11  231.08   10.77
  -2   0 -11  245.21   16.49
  -2   0 -11  236.60   12.52
   2   0  11  220.26   13.46
   2   0  12    3.79    1.00
  -2   0 -12    6.21    1.37
   2   0  12    3.10    0.91
  -2   0 -12    5.51    1.50
   2   0  12    5.04    1.49
  -2   0 -12    4.10    1.32
  -2   0 -12    6.15    1.74
  -2   0 -12    5.12    1.56
  -2   0 -12    3.97    1.22
   2   0  12    5.94    1.30
  -2   0 -12    2.91    1.17
   2   0  13    8.07    1.15
   2   0  13    8.66    1.70
  -2   0 -13   10.01    1.58
   2   0  13    4.64    1.62
  -2   0 -13    6.39    1.60
  -2   0 -13   10.60    1.85
  -2   0 -13    6.22    1.37
  -2   0 -13   10.25    1.54
   2   0  13   10.15    1.41
  -2   0 -13    9.44    1.52
   2   1 -13   86.98    4.82
  -2  -1  13   78.33    4.26
   2   1 -13   76.76    4.07
   2   1 -13   87.67    4.77
  -2  -1  13   97.04    5.14
   2   1 -13   76.88    4.37
  -2  -1  13   89.19    4.40
   2   1 -12   34.56    3.36
  -2  -1  12   32.30    3.05
   2   1 -12   30.40    2.88
  -2  -1  12   35.88    3.74
   2   1 -12   36.10    3.36
   2   1 -12   32.74    3.30
  -2  -1  12   35.35    3.20
   2   1 -11   78.07    5.78
  -2  -1  11   69.96    5.31
   2   1 -11   81.19    5.53
  -2  -1  11   91.10    6.95
  -2  -1  11   61.74    6.84
   2   1 -11   60.09    5.85
   2   1 -11   81.98    6.02
   2   1 -11   75.30    5.92
   2   1 -11   83.31    6.25
  -2  -1  11   81.66    5.72
   2   1 -11   67.44    5.75
  -2  -1  10   18.36    2.39
   2   1 -10   17.16    2.68
  -2  -1  10   17.53    2.68
   2   1 -10   21.95    3.57
  -2  -1  10   20.00    3.27
   2   1 -10   14.52    2.92
   2   1 -10   15.96    2.78
   2   1 -10   19.62    2.96
   2   1 -10   16.50    2.89
  -2  -1  10   21.29    4.10
   2   1 -10   16.17    4.06
   2   1 -10   20.27    3.07
  -2  -1  10   22.64    3.00
  -2  -1   9  139.96    8.19
   2   1  -9  150.69    8.89
   2   1  -9  161.09   10.86
  -2  -1   9  155.61    8.96
  -2  -1   9  171.88   10.63
   2   1  -9  134.30   10.08
  -2  -1   9  157.97   11.71
   2   1  -9  130.91    9.45
   2   1  -9  166.00   10.22
   2   1  -9  139.36    9.50
   2   1  -9  151.80   12.74
   2   1  -9  167.57    9.88
  -2  -1   9  164.15    9.12
  -2  -1   9  165.69    8.47
  -2  -1   8   69.74    5.29
   2   1  -8   71.78    5.51
   2   1  -8   73.14    6.94
  -2  -1   8   67.88    5.40
  -2  -1   8   69.27    7.13
   2   1  -8   75.77    6.70
   2   1  -8   68.92    8.39
  -2  -1   8   75.40    6.51
   2   1  -8   78.83    8.57
   2   1  -8   71.99    7.65
   2   1  -8   73.16    5.90
  -2  -1   8   82.28    8.65
  -2  -1   8   74.42    5.55
   2   1  -8   55.14    8.89
   2   1  -8   58.36    8.11
   2   1  -8   63.18    9.30
  -2  -1   8   84.10    5.45
   2   1  -8   71.87    7.11
   2   1  -8   57.53    7.72
   2   1  -7  198.87   14.30
   2   1  -7  234.42   13.00
  -2  -1   7  215.22   10.54
   2   1  -7  242.26   14.07
  -2  -1   7  222.18   13.11
   2   1  -7  216.62   12.42
  -2  -1   7  263.29   13.62
   2   1  -7  202.25   14.20
   2   1  -7  190.06   16.13
  -2  -1   7  261.02   15.13
   2   1  -7  204.87   15.45
   2   1  -7  165.53   15.72
   2   1  -7  202.95   15.15
  -2  -1   7  240.25   18.41
   2   1  -7  223.30   12.71
  -2  -1   7  218.90   18.72
   2   1  -7  197.24   14.33
   2   1  -6   88.99    8.49
   2   1  -6  107.87    7.89
   2   1  -6  116.37    8.59
  -2  -1   6  105.34    7.85
   2   1  -6  130.23    8.63
  -2  -1   6  109.78    7.88
   2   1  -6  103.98    9.16
   2   1  -6   90.24    9.90
  -2  -1   6  125.00    9.20
   2   1  -6   93.42    9.20
   2   1  -6   89.75   10.14
   2   1  -6   95.24    9.22
  -2  -1   6  114.27   11.20
   2   1  -6   98.86    7.25
  -2  -1   6   98.13   11.00
   2   1  -6   93.36    8.62
   2   1  -5  114.02    8.94
   2   1  -5  139.51    8.76
  -2  -1   5  133.22    8.68
   2   1  -5  142.45    8.99
  -2  -1   5  136.29    8.49
   2   1  -5  149.90    9.08
  -2  -1   5  146.57    8.67
   2   1  -5  129.91    9.79
   2   1  -5  106.02    9.91
  -2  -1   5  149.77    9.41
   2   1  -5  111.35    9.33
   2   1  -5  110.71   10.40
   2   1  -5  122.94    9.58
  -2  -1   5  136.36   11.22
  -2  -1   5  120.59   11.29
   2   1  -5  124.77    7.62
   2   1  -5  116.66    8.84
   2   1  -4  112.01    7.75
   2   1  -4  123.01    7.84
  -2  -1   4  136.36    6.72
  -2  -1   4  106.54    6.84
  -2  -1   4  112.31    7.24
   2   1  -4  122.63    7.66
  -2  -1   4  127.11    7.56
   2   1  -4  104.69    8.33
   2   1  -4  100.43    8.46
  -2  -1   4  138.47    8.10
   2   1  -4  108.24    8.04
   2   1  -4   96.13    8.55
   2   1  -4  105.30    7.89
  -2  -1   4  137.27    9.71
  -2  -1   4  108.69    9.32
   2   1  -4  110.63    7.02
   2   1  -4  106.82    6.44
   2   1  -4  113.96    7.69
   2   1  -3 1038.41   36.59
   2   1  -3  941.10   38.14
  -2  -1   3 1184.53   36.37
  -2  -1   3 1033.30   36.53
  -2  -1   3 1041.37   35.21
   2   1  -3 1163.52   37.28
  -2  -1   3 1201.49   37.33
   2   1  -3 1076.22   39.42
   2   1  -3  987.10   37.93
  -2  -1   3 1186.87   37.25
   2   1  -3 1060.12   37.38
   2   1  -3 1057.40   37.19
  -2  -1   3 1172.27   39.03
  -2  -1   3 1021.22   38.03
  -2  -1   3 1024.69   38.98
   2   1  -3 1125.91   36.94
   2   1  -3 1064.02   36.59
   2   1  -3 1104.81   35.69
   2   1  -2 1352.12   41.58
   2   1  -2 1276.69   40.99
   2   1  -2 1335.65   41.90
  -2  -1   2 1357.51   42.93
   2   1  -2 1391.07   43.04
   2   1  -2 1301.16   42.46
  -2  -1   2 1238.52   42.27
  -2  -1   2 1279.97   42.80
   2   1  -2 1240.84   42.61
  -2  -1   2 1234.73   42.38
  -2  -1   2 1180.53   44.16
  -2  -1   2 1193.54   42.62
   2   1  -2 1339.95   41.57
   2   1  -2 1336.06   43.14
   2   1  -2 1544.42   42.40
   2   1  -1 1015.30   30.77
  -2  -1   1 1118.07   34.28
   2   1  -1 1162.81   33.41
   2   1  -1 1054.86   31.09
  -2  -1   1  938.39   30.94
  -2  -1   1 1014.50   32.46
   2   1  -1 1169.11   31.30
   2   1  -1  928.55   30.78
  -2  -1   1 1010.15   30.93
  -2  -1   1  994.67   35.48
  -2  -1   1  998.28   30.96
  -2  -1   1  971.37   30.83
  -2  -1   0  511.12   19.31
   2   1   0  570.84   17.88
  -2  -1   0  502.23   17.07
  -2  -1   0  504.45   20.43
  -2  -1  -1  116.99    5.29
   2   1   1  134.37    6.10
  -2  -1  -1  126.06    6.68
  -2  -1  -1  143.10    7.58
   2   1   1  113.72    5.21
  -2  -1  -1  106.47    5.66
  -2  -1  -1  123.39    5.42
   2   1   1  106.92    6.58
  -2  -1  -1  116.86    5.43
  -2  -1  -1  119.82    5.32
  -2  -1  -1  123.90    7.35
   2   1   1  123.33    5.87
  -2  -1  -1  123.97    5.26
  -2  -1  -2   67.82    4.84
   2   1   2   96.98    4.26
   2   1   2   80.08    4.37
  -2  -1  -2   71.64    4.79
   2   1   2   73.07    4.94
  -2  -1  -2   75.34    6.14
  -2  -1  -2   82.79    7.31
   2   1   2   67.24    3.81
   2   1   2   70.91    4.02
   2   1   2   74.60    3.79
  -2  -1  -2   62.28    5.34
  -2  -1  -2   69.50    5.07
   2   1   2   69.50    6.87
  -2  -1  -2   70.73    5.07
  -2  -1  -2   68.04    4.90
  -2  -1  -2   87.83    5.41
   2   1   2   72.17    3.80
  -2  -1  -2   63.70    4.95
   2   1   2   70.52    5.65
  -2  -1  -2   70.78    4.84
  -2  -1  -3  326.76   15.98
   2   1   3  401.94   13.80
  -2  -1  -3  353.43   16.76
  -2  -1  -3  331.45   14.25
   2   1   3  383.43   13.47
   2   1   3  313.54   15.64
  -2  -1  -3  337.56   17.57
  -2  -1  -3  393.47   15.11
  -2  -1  -3  383.30   19.92
   2   1   3  442.66   13.45
   2   1   3  424.47   13.63
   2   1   3  401.67   13.09
   2   1   3  316.44   14.01
  -2  -1  -3  321.46   17.45
   2   1   3  314.53   20.47
  -2  -1  -3  348.13   16.68
  -2  -1  -3  344.87   16.40
  -2  -1  -3  363.66   15.72
  -2  -1  -3  339.22   14.83
   2   1   3  349.18   17.85
  -2  -1  -3  338.82   15.86
  -2  -1  -4  157.76   10.90
  -2  -1  -4  172.97    8.49
   2   1   4  147.39   10.52
  -2  -1  -4  169.60   12.26
   2   1   4  209.17    8.22
  -2  -1  -4  184.47    9.46
  -2  -1  -4  198.45   14.11
   2   1   4  201.02    7.74
   2   1   4  180.03    8.59
  -2  -1  -4  162.66   12.54
  -2  -1  -4  170.82   11.70
   2   1   4  185.67    8.78
   2   1   4  155.26   15.25
  -2  -1  -4  164.34   11.50
  -2  -1  -4  164.16   11.22
  -2  -1  -4  184.97   10.51
  -2  -1  -4  169.16    8.64
   2   1   4  175.48   12.95
  -2  -1  -4  167.30   10.97
  -2  -1  -5  246.22   15.89
   2   1   5  262.89   16.22
  -2  -1  -5  300.23   18.31
   2   1   5  305.28   11.90
  -2  -1  -5  289.31   19.18
   2   1   5  297.36   12.85
   2   1   5  285.91   11.39
   2   1   5  345.39   11.94
   2   1   5  344.91   12.65
  -2  -1  -5  269.01   11.87
  -2  -1  -5  243.67   17.89
  -2  -1  -5  274.17   17.09
   2   1   5  329.69   12.94
  -2  -1  -5  264.12   16.94
  -2  -1  -5  286.07   15.05
   2   1   5  258.08   18.41
  -2  -1  -5  261.30   15.98
  -2  -1  -6   26.04    4.82
  -2  -1  -6   28.40    5.76
   2   1   6   23.02    2.63
  -2  -1  -6   28.84    5.84
   2   1   6   22.02    2.45
   2   1   6   26.37    2.67
   2   1   6   25.86    4.81
  -2  -1  -6   27.70    5.85
   2   1   6   18.66    2.59
  -2  -1  -6   24.99    4.90
  -2  -1  -6   18.24    4.85
  -2  -1  -6   22.87    4.78
  -2  -1  -6   25.55    4.09
   2   1   6   27.99    5.78
   2   1   6   26.63    5.93
  -2  -1  -6   28.42    4.97
  -2  -1  -7   72.22    9.15
   2   1   7   80.38    5.80
   2   1   7   91.08   10.12
  -2  -1  -7  105.64   12.19
   2   1   7   84.20    5.74
   2   1   7   83.08    6.02
  -2  -1  -7   70.16   10.52
   2   1   7  101.12    6.49
  -2  -1  -7   76.33    9.82
  -2  -1  -7   68.83   10.65
  -2  -1  -7   80.40   10.07
   2   1   7   88.61   11.44
  -2  -1  -7   78.88    8.08
   2   1   7   75.80   11.15
  -2  -1  -7   90.73   10.02
  -2  -1  -8  261.14   19.66
  -2  -1  -8  308.86   13.60
   2   1   8  269.18   10.90
  -2  -1  -8  305.21   14.32
   2   1   8  235.92   13.08
  -2  -1  -8  240.03   15.83
  -2  -1  -8  259.18   15.96
   2   1   8  307.98   21.28
  -2  -1  -8  255.27   15.31
   2   1   8  256.48   13.14
  -2  -1  -8  251.28   14.91
  -2  -1  -8  307.33   22.92
   2   1   8  268.98   13.11
  -2  -1  -8  288.85   14.27
   2   1   8  209.01   12.92
   2   1   8  297.26   13.79
  -2  -1  -8  251.26   22.07
  -2  -1  -8  309.23   14.14
  -2  -1  -8  270.96   21.05
  -2  -1  -8  227.88   21.95
   2   1   8  271.57   11.40
  -2  -1  -8  264.59   20.61
   2   1   8  277.90   22.76
  -2  -1  -8  302.68   18.07
  -2  -1  -8  300.06   14.61
   2   1   8  250.21   22.98
  -2  -1  -8  253.65   19.38
   2   1   9  120.29    8.65
  -2  -1  -9  120.94   13.38
  -2  -1  -9  144.51    8.74
   2   1   9  124.36    6.66
  -2  -1  -9  124.11    8.68
  -2  -1  -9  124.96   10.61
   2   1   9  123.61   13.66
  -2  -1  -9  115.98    9.81
  -2  -1  -9  111.68    9.47
   2   1   9  110.52    8.36
  -2  -1  -9  129.20    8.77
   2   1   9  112.62    9.12
   2   1   9  121.17    8.52
  -2  -1  -9   99.98   14.29
  -2  -1  -9  140.62    9.05
  -2  -1  -9  130.12   14.73
  -2  -1  -9  107.29   15.33
   2   1   9  133.81    7.21
  -2  -1  -9  110.03   13.29
   2   1   9  125.59   15.80
  -2  -1  -9  123.48   11.52
  -2  -1  -9  132.39    9.07
   2   1   9  109.94   15.56
  -2  -1  -9  118.07   13.08
   2   1  10  158.32    8.87
  -2  -1 -10  180.47   10.13
   2   1  10  155.62    7.98
   2   1  10  135.56    9.89
  -2  -1 -10  156.86    9.93
   2   1  10  140.45    9.84
  -2  -1 -10  139.42   11.49
  -2  -1 -10  151.53   11.24
  -2  -1 -10  137.57   10.53
   2   1  10  156.90   10.28
  -2  -1 -10  172.73   10.19
   2   1  10  149.72    8.16
  -2  -1 -10  148.90   12.96
  -2  -1 -10  158.44   10.16
   2   1  11    8.21    1.71
  -2  -1 -11    7.68    1.76
   2   1  11    9.75    1.70
   2   1  11    6.23    1.75
  -2  -1 -11    7.36    1.81
   2   1  11    9.72    2.27
  -2  -1 -11    8.36    2.28
   2   1  11    4.34    1.12
  -2  -1 -11    7.76    2.25
  -2  -1 -11    6.42    1.90
  -2  -1 -11    9.35    2.14
   2   1  11    7.70    1.55
  -2  -1 -11    8.66    2.05
  -2  -1 -11    9.44    2.92
   2   1  12   45.62    3.81
  -2  -1 -12   46.35    4.12
  -2  -1 -12   37.98    3.81
   2   1  12   42.21    4.48
  -2  -1 -12   35.56    4.57
  -2  -1 -12   40.63    4.56
  -2  -1 -12   37.04    3.82
  -2  -1 -12   38.30    4.39
   2   1  12   40.97    3.55
  -2  -1 -12   40.87    4.04
  -2  -1 -13   57.37    3.81
  -2  -1 -13   52.11    3.79
   2   1  13   56.00    4.49
   2   1  13   41.85    4.78
  -2  -1 -13   50.95    4.59
  -2  -1 -13   50.89    4.28
  -2  -1 -13   49.49    4.15
  -2  -1 -13   57.03    4.00
   2   1  13   58.22    3.81
  -2  -1 -13   49.71    3.76
   2   1  13   56.35    3.66
   2   2 -13    6.56    1.18
  -2  -2  13    6.81    1.03
   2   2 -13    7.45    1.16
   2   2 -13    7.23    1.13
   2   2 -12    7.95    1.51
  -2  -2  12    8.72    1.49
   2   2 -12    5.98    1.14
  -2  -2  12   10.51    1.77
   2   2 -12    7.59    1.48
   2   2 -12    6.52    1.46
  -2  -2  12    8.33    1.41
  -2  -2  11   19.31    2.35
   2   2 -11   23.36    2.95
  -2  -2  11   24.41    2.94
   2   2 -11   21.45    2.60
  -2  -2  11   27.27    3.48
   2   2 -11   23.69    3.02
   2   2 -11   25.90    3.32
  -2  -2  11   26.35    2.90
  -2  -2  11   25.43    2.59
  -2  -2  10   14.86    2.27
   2   2 -10   12.93    2.32
  -2  -2  10   16.62    2.50
   2   2 -10   15.99    3.03
  -2  -2  10   17.37    2.99
  -2  -2  10   17.61    3.65
   2   2 -10   13.31    3.66
   2   2 -10   15.46    2.78
  -2  -2  10   18.51    2.58
  -2  -2  10   15.98    2.28
   2   2 -10   14.56    3.33
  -2  -2   9   31.86    3.52
   2   2  -9   31.53    3.65
   2   2  -9   30.51    4.37
  -2  -2   9   33.95    3.76
  -2  -2   9   32.38    4.16
  -2  -2   9   34.69    5.11
   2   2  -9   32.76    5.62
   2   2  -9   34.98    4.10
  -2  -2   9   37.25    3.75
  -2  -2   9   33.90    3.51
   2   2  -9   36.58    5.34
  -2  -2   8  165.88    9.48
   2   2  -8  188.97   12.07
  -2  -2   8  183.08    9.84
  -2  -2   8  186.06   10.91
   2   2  -8  189.43   13.14
  -2  -2   8  188.19   12.43
   2   2  -8  170.84   11.33
   2   2  -8  160.69   13.22
   2   2  -8  177.43   10.32
   2   2  -8  244.28   15.23
  -2  -2   8  219.32   14.61
  -2  -2   8  200.70    9.87
  -2  -2   8  197.07    9.65
   2   2  -8  171.00   11.98
   2   2  -7  529.13   26.65
  -2  -2   7  564.18   21.83
   2   2  -7  605.07   25.34
  -2  -2   7  548.55   21.59
   2   2  -7  617.94   26.72
  -2  -2   7  617.72   25.31
   2   2  -7  688.24   26.10
  -2  -2   7  599.59   25.31
   2   2  -7  583.43   27.80
   2   2  -7  480.97   28.73
   2   2  -7  556.94   28.19
  -2  -2   7  682.07   28.00
   2   2  -7  454.78   28.92
   2   2  -7  514.83   27.33
  -2  -2   7  615.75   21.73
   2   2  -7  545.82   24.48
   2   2  -7  540.43   26.66
   2   2  -6  313.66   17.72
   2   2  -6  401.82   17.80
   2   2  -6  382.14   18.14
  -2  -2   6  376.24   17.12
  -2  -2   6  368.61   17.27
   2   2  -6  355.74   19.39
   2   2  -6  304.20   19.77
   2   2  -6  324.40   18.78
  -2  -2   6  427.53   19.14
   2   2  -6  267.03   19.35
   2   2  -6  304.82   18.32
  -2  -2   6  413.09   22.80
  -2  -2   6  358.61   22.65
   2   2  -6  335.83   16.28
   2   2  -6  322.66   17.88
   2   2  -5  677.54   29.81
   2   2  -5  900.97   31.01
  -2  -2   5  818.11   29.39
   2   2  -5  830.48   30.76
  -2  -2   5  878.06   30.58
  -2  -2   5  803.89   29.65
   2   2  -5  798.84   32.70
   2   2  -5  683.10   32.21
   2   2  -5  736.58   31.25
  -2  -2   5  896.42   31.24
   2   2  -5  590.40   31.65
   2   2  -5  678.00   30.57
  -2  -2   5  875.60   34.93
  -2  -2   5  816.83   29.99
  -2  -2   5  807.24   35.32
   2   2  -5  798.14   29.34
   2   2  -5  723.53   28.45
   2   2  -5  718.73   30.15
   2   2  -4  725.22   29.90
  -2  -2   4  816.34   29.70
   2   2  -4  852.64   31.08
  -2  -2   4  882.75   29.91
  -2  -2   4  842.84   30.13
   2   2  -4  822.32   30.71
   2   2  -4  686.92   31.54
   2   2  -4  753.58   30.72
  -2  -2   4  891.29   31.07
   2   2  -4  650.06   31.53
   2   2  -4  739.34   30.63
  -2  -2   4  932.81   33.77
  -2  -2   4  769.92   30.60
  -2  -2   4  817.95   33.70
   2   2  -4  911.39   30.76
   2   2  -4  834.92   29.43
   2   2  -4  732.86   29.86
   2   2  -3  313.73   14.03
  -2  -2   3  477.10   15.37
  -2  -2   3  360.98   14.55
   2   2  -3  372.68   15.54
   2   2  -3  310.49   15.15
   2   2  -3  305.02   15.17
   2   2  -3  342.02   14.71
  -2  -2   3  377.43   15.23
   2   2  -3  289.46   15.22
   2   2  -3  333.23   14.59
  -2  -2   3  402.56   16.38
  -2  -2   3  361.64   16.06
  -2  -2   3  366.97   16.51
   2   2  -3  342.47   14.23
   2   2  -3  395.59   14.82
   2   2  -3  404.17   15.86
   2   2  -3  304.33   12.91
   2   2  -2  388.73   14.28
   2   2  -2  443.85   15.28
  -2  -2   2  526.82   16.99
   2   2  -2  423.28   16.68
   2   2  -2  379.80   15.02
   2   2  -2  414.87   14.74
  -2  -2   2  438.98   16.09
   2   2  -2  354.97   15.02
   2   2  -2  395.32   14.57
  -2  -2   2  452.13   15.53
  -2  -2   2  424.66   17.72
  -2  -2   2  406.89   15.57
   2   2  -2  393.24   14.32
   2   2  -1   71.10    2.95
  -2  -2   1   70.83    3.72
   2   2  -1   81.67    5.02
  -2  -2   1   78.90    4.54
  -2  -2   1   76.35    5.80
  -2  -2   0  352.78   13.99
   2   2   0  347.33   11.82
   2   2   0  330.54   13.00
  -2  -2   0  342.41   12.81
  -2  -2   0  358.54   15.41
  -2  -2  -1  124.75    6.67
  -2  -2  -1  114.12    7.27
   2   2   1  116.18    5.77
  -2  -2  -1  115.07    7.28
  -2  -2  -1  117.96    5.41
   2   2   1  106.40    4.75
  -2  -2  -2  458.25   17.01
   2   2   2  556.30   16.44
   2   2   2  466.11   15.77
   2   2   2  466.42   16.48
  -2  -2  -2  537.57   18.28
  -2  -2  -2  468.19   20.49
   2   2   2  488.70   18.54
   2   2   2  489.91   16.08
  -2  -2  -2  495.37   19.20
   2   2   2  438.65   15.63
   2   2   2  468.49   16.05
   2   2   2  442.18   17.15
   2   2   2  460.73   15.56
  -2  -2  -2  446.02   17.95
  -2  -2  -2  472.12   17.57
  -2  -2  -2  415.74   18.08
  -2  -2  -2  477.67   17.47
   2   2   2  457.73   17.85
  -2  -2  -2  476.45   19.05
   2   2   2  405.58   17.87
  -2  -2  -2  477.89   17.11
  -2  -2  -3  233.02   10.20
  -2  -2  -3  195.11   10.81
  -2  -2  -3  248.67   10.57
  -2  -2  -3  194.69   12.70
   2   2   3  204.93   11.56
   2   2   3  237.75    8.88
  -2  -2  -3  224.49   11.52
   2   2   3  281.77    8.79
   2   2   3  236.41    8.39
   2   2   3  276.28    9.17
   2   2   3  223.01    9.85
  -2  -2  -3  200.89   12.12
  -2  -2  -3  214.02   11.55
   2   2   3  222.47    9.82
  -2  -2  -3  174.00   11.87
  -2  -2  -3  206.51   11.32
  -2  -2  -3  215.37   11.44
   2   2   3  208.19   12.03
  -2  -2  -3  208.58   10.78
   2   2   3  179.76   11.93
  -2  -2  -3  204.84   10.86
  -2  -2  -4 2332.91   85.20
  -2  -2  -4 2663.72   82.13
  -2  -2  -4 2941.90   82.48
   2   2   4 2431.88   86.21
  -2  -2  -4 2288.53   87.94
   2   2   4 2913.91   80.79
  -2  -2  -4 2567.97   84.46
   2   2   4 2518.36   79.85
   2   2   4 2940.35   82.18
  -2  -2  -4 2245.01   87.48
  -2  -2  -4 2419.70   86.30
   2   2   4 2868.91   82.25
  -2  -2  -4 2057.10   87.35
  -2  -2  -4 2356.54   86.04
  -2  -2  -4 2535.77   85.07
   2   2   4 2416.76   87.61
   2   2   4 3165.18   80.58
  -2  -2  -4 2363.56   82.45
   2   2   4 2108.15   87.58
  -2  -2  -4 2386.14   85.11
  -2  -2  -5  943.82   39.05
   2   2   5 1014.74   40.21
   2   2   5  924.28   32.78
  -2  -2  -5 1042.74   37.33
   2   2   5 1083.80   32.89
  -2  -2  -5  932.58   41.22
  -2  -2  -5  882.93   41.32
  -2  -2  -5  970.55   40.26
   2   2   5 1251.25   35.21
  -2  -2  -5  872.43   41.93
  -2  -2  -5  966.57   40.12
  -2  -2  -5 1037.46   38.38
   2   2   5  969.27   41.74
   2   2   5  870.15   42.02
  -2  -2  -5  973.52   39.05
  -2  -2  -6   22.82    4.60
   2   2   6   19.63    2.37
  -2  -2  -6   20.33    3.36
   2   2   6   17.70    4.10
   2   2   6   20.84    2.39
  -2  -2  -6   16.35    4.25
  -2  -2  -6   21.49    5.11
   2   2   6   23.66    2.96
  -2  -2  -6   24.17    4.80
  -2  -2  -6   20.17    5.34
  -2  -2  -6   20.53    4.45
   2   2   6   21.64    5.04
   2   2   6   22.72    5.35
  -2  -2  -6   21.21    3.79
  -2  -2  -6   21.78    4.26
  -2  -2  -7   36.56    6.08
   2   2   7   28.80    3.25
  -2  -2  -7   33.99    6.66
  -2  -2  -7   32.26    4.71
   2   2   7   24.81    3.15
   2   2   7   30.04    5.78
   2   2   7   35.97    3.81
  -2  -2  -7   27.49    6.36
  -2  -2  -7   30.97    6.01
  -2  -2  -7   20.81    5.65
  -2  -2  -7   28.68    5.76
  -2  -2  -7   32.23    5.06
   2   2   7   25.88    5.96
   2   2   7   28.62    6.65
  -2  -2  -7   33.80    5.91
  -2  -2  -8   17.77    4.78
  -2  -2  -8   18.55    2.95
  -2  -2  -8   18.70    2.92
  -2  -2  -8   18.50    2.90
   2   2   8   13.26    2.56
  -2  -2  -8   18.22    3.61
  -2  -2  -8   19.34    3.52
   2   2   8   17.77    2.82
   2   2   8   13.58    3.98
   2   2   8   17.82    2.91
  -2  -2  -8   20.07    3.06
  -2  -2  -8   15.98    5.50
  -2  -2  -8   21.69    5.47
  -2  -2  -8   15.55    5.83
   2   2   8   17.64    2.19
  -2  -2  -8   14.81    3.04
  -2  -2  -8   18.21    4.81
   2   2   8   22.75    5.92
  -2  -2  -8   17.91    3.00
   2   2   8   19.56    6.14
  -2  -2  -8   22.10    4.50
  -2  -2  -8   20.78    5.01
  -2  -2  -9   44.69    4.69
  -2  -2  -9   38.79    4.48
   2   2   9   32.46    4.30
   2   2   9   41.12    4.74
  -2  -2  -9   36.05    5.42
  -2  -2  -9   38.57    5.18
  -2  -2  -9   37.35    5.05
  -2  -2  -9   42.15    4.59
   2   2   9   42.93    4.99
  -2  -2  -9   43.15    4.78
   2   2   9   39.15    3.61
  -2  -2  -9   37.73    6.17
  -2  -2  -9   45.62    4.96
   2   2  10    5.24    1.50
  -2  -2 -10    6.76    2.13
  -2  -2 -10    5.16    1.57
   2   2  10    4.31    1.58
  -2  -2 -10    5.09    1.61
  -2  -2 -10    6.47    2.28
   2   2  10    7.03    1.57
  -2  -2 -10    4.87    1.75
   2   2  10    7.53    2.06
  -2  -2 -10    9.00    2.19
   2   2  10    6.69    1.83
   2   2  10    6.27    1.42
  -2  -2 -10    6.75    1.91
  -2  -2 -10    7.22    2.61
   2   2  11   36.17    3.72
  -2  -2 -11   40.18    4.25
  -2  -2 -11   36.48    4.05
   2   2  11   34.06    4.34
  -2  -2 -11   33.50    4.86
   2   2  11   29.83    3.19
  -2  -2 -11   35.29    4.64
  -2  -2 -11   37.11    4.68
  -2  -2 -11   39.27    4.33
   2   2  11   36.58    3.57
  -2  -2 -11   32.61    3.93
  -2  -2 -11   29.00    5.19
   2   2  12   23.26    2.69
  -2  -2 -12   28.70    3.19
  -2  -2 -12   22.58    2.80
  -2  -2 -12   23.56    3.23
   2   2  12   24.08    3.35
   2   2  12   16.96    3.48
  -2  -2 -12   22.99    3.49
   2   2  12   21.46    2.41
  -2  -2 -12   25.26    3.38
  -2  -2 -12   23.28    2.95
   2   2  12   23.33    2.65
  -2  -2 -12   22.55    2.82
  -2  -2 -13  265.37   10.72
  -2  -2 -13  236.86   10.24
   2   2  13  256.13   11.53
   2   2  13  203.72   12.22
  -2  -2 -13  257.53   11.37
  -2  -2 -13  270.44   11.38
  -2  -2 -13  257.92   10.84
   2   2  13  278.36   10.69
  -2  -2 -13  235.35   10.34
   2   2  13  288.96   10.83
   2   3 -13   57.75    3.51
  -2  -3  13   53.15    3.20
   2   3 -13   55.85    3.27
   2   3 -12   34.36    3.16
  -2  -3  12   35.50    3.05
   2   3 -12   31.93    2.58
   2   3 -12   31.79    2.97
   2   3 -12   36.98    3.40
  -2  -3  12   32.11    2.54
  -2  -3  11   44.36    3.81
   2   3 -11   50.30    4.34
  -2  -3  11   52.18    4.29
   2   3 -11   50.82    4.39
   2   3 -11   51.51    4.70
  -2  -3  11   50.87    3.95
  -2  -3  10   55.11    4.63
   2   3 -10   58.44    4.99
  -2  -3  10   60.20    4.97
  -2  -3  10   62.15    6.74
   2   3 -10   60.35    7.44
   2   3 -10   58.94    5.39
  -2  -3  10   61.60    4.78
   2   3 -10   50.06    6.43
  -2  -3   9  123.73    7.81
   2   3  -9  124.58    9.41
  -2  -3   9  121.79    7.71
   2   3  -9  135.80    7.91
  -2  -3   9  127.05   10.10
   2   3  -9  121.96   11.28
   2   3  -9  123.81    8.42
  -2  -3   9  129.20    7.66
   2   3  -9  111.88    9.87
  -2  -3   8   25.97    3.16
   2   3  -8   25.10    4.06
  -2  -3   8   22.45    2.92
  -2  -3   8   28.41    4.34
   2   3  -8   23.16    2.90
   2   3  -8   27.07    4.68
  -2  -3   8   26.43    4.27
   2   3  -8   28.41    4.21
   2   3  -8   23.82    4.69
   2   3  -8   29.91    3.72
  -2  -3   8   33.14    5.38
  -2  -3   8   24.64    3.05
   2   3  -8   27.09    4.79
   2   3  -8   24.47    4.19
  -2  -3   7   44.91    4.16
   2   3  -7   45.66    5.33
  -2  -3   7   34.02    3.53
   2   3  -7   53.26    6.39
  -2  -3   7   43.41    5.15
  -2  -3   7   38.56    3.83
  -2  -3   7   46.12    5.36
   2   3  -7   43.06    6.34
   2   3  -7   39.26    3.67
  -2  -3   7   55.86    6.63
   2   3  -7   66.30    7.29
   2   3  -7   40.04    5.07
   2   3  -6  202.88   12.16
  -2  -3   6  181.67   11.03
   2   3  -6  204.17   12.74
  -2  -3   6  181.22   11.28
   2   3  -6  176.33   13.32
  -2  -3   6  225.83   13.39
   2   3  -6  254.71   14.59
   2   3  -6  186.42   11.17
   2   3  -6  162.80   10.79
   2   3  -5  290.42   15.92
  -2  -3   5  367.15   15.71
   2   3  -5  375.63   17.46
  -2  -3   5  341.12   15.90
   2   3  -5  368.13   19.43
   2   3  -5  353.19   17.91
   2   3  -5  277.77   17.47
   2   3  -5  301.16   16.64
   2   3  -5  422.09   18.88
  -2  -3   5  402.10   17.77
   2   3  -5  259.60   17.40
   2   3  -5  277.63   16.19
  -2  -3   5  350.06   16.36
   2   3  -5  354.07   16.18
   2   3  -5  342.76   15.81
   2   3  -5  302.08   15.96
   2   3  -4  466.39   21.24
  -2  -3   4  577.07   21.30
   2   3  -4  588.48   23.24
  -2  -3   4  564.48   21.61
   2   3  -4  513.25   23.39
   2   3  -4  449.78   22.77
   2   3  -4  489.15   21.97
   2   3  -4  634.14   24.24
  -2  -3   4  562.60   29.92
  -2  -3   4  624.37   23.20
   2   3  -4  485.09   21.99
   2   3  -4  476.54   21.69
  -2  -3   4  541.05   22.69
  -2  -3   4  605.53   25.87
   2   3  -4  587.02   21.96
   2   3  -4  484.02   21.31
   2   3  -4  658.57   23.30
   2   3  -3   16.20    2.32
   2   3  -3   18.68    2.59
  -2  -3   3   24.23    2.67
   2   3  -3   19.30    2.90
  -2  -3   3   20.94    2.62
   2   3  -3   21.18    3.55
   2   3  -3   19.35    3.00
   2   3  -3   23.44    3.32
  -2  -3   3   23.48    4.47
  -2  -3   3   21.14    2.92
   2   3  -3   19.04    2.63
   2   3  -3   17.03    2.40
  -2  -3   3   21.70    3.27
  -2  -3   3   24.52    3.52
   2   3  -3   17.71    2.37
   2   3  -3   25.37    3.04
   2   3  -3   19.27    2.30
   2   3  -2   21.25    2.39
  -2  -3   2   32.68    3.30
   2   3  -2   29.82    2.36
   2   3  -2   19.21    2.65
   2   3  -2   15.94    2.01
   2   3  -2   21.81    2.82
   2   3  -2   24.32    2.39
   2   3  -2   13.68    1.81
  -2  -3   2   21.26    2.67
   2   3  -2   19.95    1.85
  -2  -3   2   20.16    3.08
   2   3  -1   85.25    4.67
  -2  -3   1  116.80    6.62
   2   3  -1   85.00    5.61
  -2  -3   1   86.06    5.50
   2   3  -1  119.80    5.70
  -2  -3   1   78.82    6.49
  -2  -3   1  104.35    6.06
  -2  -3   0   98.20    6.40
   2   3   0   84.02    4.76
  -2  -3   0  101.03    6.07
   2   3   0   71.85    4.50
  -2  -3   0   79.55    4.90
  -2  -3   0   84.33    6.54
   2   3   0   74.26    4.63
  -2  -3  -1  173.33    6.56
  -2  -3  -1  151.46    9.38
   2   3   1  140.96    6.53
   2   3   1  156.67    7.92
  -2  -3  -1  194.53    8.99
   2   3   1  134.67    6.26
  -2  -3  -1  190.18    7.36
   2   3   1  134.28    6.09
   2   3   1  149.93    7.15
   2   3   1  141.28    6.63
   2   3   1  153.20    6.92
  -2  -3  -1  203.12    7.62
  -2  -3  -1  155.76    6.57
   2   3   1  143.55    6.53
  -2  -3  -1  152.77    9.23
   2   3   1  138.25    6.48
  -2  -3  -1  148.49    7.26
   2   3   1  141.19    6.26
  -2  -3  -2  337.21   12.48
   2   3   2  303.10   11.17
  -2  -3  -2  284.12   15.48
  -2  -3  -2  367.99   13.94
   2   3   2  283.93   13.58
   2   3   2  336.20   10.89
  -2  -3  -2  301.14   14.91
   2   3   2  324.31   10.36
   2   3   2  302.97   12.07
  -2  -3  -2  339.85   13.56
   2   3   2  262.92   12.91
   2   3   2  293.97   11.81
  -2  -3  -2  337.57   13.78
  -2  -3  -2  321.82   12.72
   2   3   2  288.48   10.39
   2   3   2  264.36   12.66
  -2  -3  -2  294.18   14.33
   2   3   2  279.29   10.50
   2   3   2  240.83   12.65
  -2  -3  -2  305.35   12.22
  -2  -3  -3  528.11   20.99
  -2  -3  -3  514.01   20.76
  -2  -3  -3  485.98   24.06
   2   3   3  507.13   22.44
   2   3   3  600.44   18.07
  -2  -3  -3  530.96   22.80
   2   3   3  580.88   19.68
  -2  -3  -3  501.77   22.39
   2   3   3  574.96   19.58
   2   3   3  451.71   22.30
  -2  -3  -3  487.66   22.63
  -2  -3  -3  520.75   21.46
   2   3   3  456.82   21.86
  -2  -3  -3  515.91   21.79
   2   3   3  422.80   22.05
  -2  -3  -3  530.93   20.99
  -2  -3  -4  997.15   36.20
  -2  -3  -4  998.92   34.25
  -2  -3  -4  901.26   39.16
   2   3   4  975.73   37.84
   2   3   4  927.15   30.94
  -2  -3  -4 1000.83   36.88
  -2  -3  -4  953.19   38.54
   2   3   4 1179.55   33.57
   2   3   4  873.17   38.45
  -2  -3  -4  892.12   38.53
  -2  -3  -4  979.98   36.90
  -2  -3  -4  958.17   36.25
   2   3   4  866.45   37.57
  -2  -3  -4 1009.67   35.15
   2   3   4  817.62   38.10
  -2  -3  -4  966.46   35.99
  -2  -3  -5  200.66   12.90
  -2  -3  -5  209.54   10.66
  -2  -3  -5  176.62   14.09
   2   3   5  208.79   13.92
   2   3   5  194.76    8.56
  -2  -3  -5  209.41   12.76
  -2  -3  -5  181.35   14.02
   2   3   5  215.93    9.98
  -2  -3  -5  187.36   14.65
  -2  -3  -5  185.10   12.99
  -2  -3  -5  195.17   12.40
   2   3   5  190.09   14.41
   2   3   5  158.33   14.09
  -2  -3  -5  193.69   12.61
  -2  -3  -6   39.74    5.79
   2   3   6   42.66    6.42
  -2  -3  -6   35.08    6.35
   2   3   6   35.39    3.32
  -2  -3  -6   44.02    5.79
  -2  -3  -6   43.21    7.21
   2   3   6   48.60    4.39
  -2  -3  -6   29.88    6.05
  -2  -3  -6   41.02    6.21
  -2  -3  -6   44.64    5.76
   2   3   6   57.39    5.09
   2   3   6   40.24    6.87
   2   3   6   29.49    6.09
  -2  -3  -6   36.71    5.53
  -2  -3  -7   20.08    4.52
  -2  -3  -7   21.98    3.06
  -2  -3  -7   24.70    3.29
   2   3   7   25.56    3.05
  -2  -3  -7   23.31    4.27
   2   3   7   27.48    5.66
  -2  -3  -7   14.20    4.39
   2   3   7   22.27    3.20
  -2  -3  -7   25.26    3.40
  -2  -3  -7   20.62    5.35
  -2  -3  -7   25.53    6.30
   2   3   7   24.82    2.47
  -2  -3  -7   22.39    4.98
   2   3   7   26.57    3.37
  -2  -3  -7   38.60    5.61
   2   3   7   18.79    4.88
  -2  -3  -7   23.66    3.31
   2   3   7   19.14    5.85
  -2  -3  -7   25.53    4.98
  -2  -3  -8  182.17   15.45
  -2  -3  -8  204.60   11.28
  -2  -3  -8  204.23   11.22
   2   3   8  172.96   10.64
   2   3   8  203.68   17.20
  -2  -3  -8  170.94   12.30
  -2  -3  -8  192.10   17.38
  -2  -3  -8  186.77   12.07
  -2  -3  -8  186.66   11.88
  -2  -3  -8  206.20   14.63
  -2  -3  -8  220.16   11.56
   2   3   8  189.71   11.27
  -2  -3  -8  184.35   17.94
  -2  -3  -8  188.32   11.13
   2   3   8  184.23   18.88
  -2  -3  -8  177.61   18.21
   2   3   8  170.53    8.77
  -2  -3  -8  197.90   16.82
  -2  -3  -8  194.82   14.50
   2   3   8  188.81   18.42
  -2  -3  -8  199.59   11.35
   2   3   8  159.77   18.02
  -2  -3  -8  197.57   15.90
   2   3   9  403.64   16.92
  -2  -3  -9  414.63   18.31
  -2  -3  -9  401.37   17.88
   2   3   9  363.05   17.83
  -2  -3  -9  371.69   20.17
  -2  -3  -9  378.27   19.27
  -2  -3  -9  373.94   18.88
   2   3   9  394.22   18.96
  -2  -3  -9  403.03   18.40
   2   3   9  359.14   15.44
  -2  -3  -9  377.35   22.31
  -2  -3  -9  377.16   17.83
   2   3  10  105.98    7.18
  -2  -3 -10  113.83    8.03
  -2  -3 -10  115.45    8.81
  -2  -3 -10  107.99    7.66
   2   3  10  104.77    8.11
   2   3  10   71.92    8.76
  -2  -3 -10   91.46    8.70
   2   3  10  114.73    7.03
  -2  -3 -10  105.04    8.62
   2   3  10   97.27    8.43
  -2  -3 -10  116.41    8.29
   2   3  10   99.34    6.46
  -2  -3 -10  114.39   10.99
  -2  -3 -10  105.26    7.81
   2   3  11  111.47    7.09
  -2  -3 -11  119.34    7.76
  -2  -3 -11   99.26    6.88
   2   3  11  104.45    7.79
   2   3  11   82.76    8.89
  -2  -3 -11   98.83    8.48
   2   3  11  103.79    6.53
  -2  -3 -11  103.54    8.05
  -2  -3 -11  103.94    7.83
  -2  -3 -11  114.60    7.74
   2   3  11  106.15    6.50
  -2  -3 -11   92.72    6.86
   2   3  12   33.77    3.34
  -2  -3 -12   34.46    3.51
   2   3  12   28.56    2.82
  -2  -3 -12   29.26    3.01
   2   3  12   31.64    3.61
   2   3  12   19.16    3.56
  -2  -3 -12   30.79    3.60
  -2  -3 -12   33.60    3.68
  -2  -3 -12   30.93    3.35
   2   3  12   32.03    3.03
  -2  -3 -12   30.14    3.15
   2   3  13    5.40    1.13
  -2  -3 -13    3.83    0.92
  -2  -3 -13    3.74    0.87
  -2  -3 -13    2.63    0.64
   2   3  13    4.35    1.03
   2   3  13    3.72    1.30
  -2  -3 -13    4.22    1.01
  -2  -3 -13    4.28    1.02
  -2  -3 -13    4.25    0.94
   2   3  13    3.47    0.79
  -2  -4  12    1.00    0.41
   2   4 -12    1.55    0.65
  -2  -4  12    1.23    0.54
   2   4 -12    1.37    0.62
   2   4 -12    0.46    0.41
  -2  -4  12    1.01    0.46
  -2  -4  11   10.72    1.70
   2   4 -11   12.28    1.96
  -2  -4  11   10.24    1.76
   2   4 -11   11.38    1.76
   2   4 -11   11.09    2.02
  -2  -4  11   11.02    1.71
  -2  -4  10    4.49    1.25
   2   4 -10    5.49    1.37
  -2  -4  10    4.53    1.18
   2   4 -10    5.01    1.42
   2   4 -10    2.48    1.10
   2   4 -10    3.61    1.25
  -2  -4  10    4.95    1.31
   2   4 -10    0.91    1.14
  -2  -4   9    0.08    0.79
  -2  -4   9    0.56    0.38
   2   4  -9   -0.38    0.57
   2   4  -9    0.66    0.58
  -2  -4   9    1.06    0.87
   2   4  -9    1.23    1.61
   2   4  -9    0.91    0.38
  -2  -4   9    1.22    0.64
   2   4  -9    1.95    0.87
  -2  -4   8   19.81    2.81
   2   4  -8   22.02    3.83
  -2  -4   8   20.64    2.71
   2   4  -8   18.30    2.62
  -2  -4   8   20.44    2.81
  -2  -4   8   20.33    3.62
   2   4  -8   23.28    4.00
   2   4  -8   20.54    4.56
  -2  -4   8   17.35    3.48
  -2  -4   8   17.98    2.62
   2   4  -8   17.50    3.62
   2   4  -7    1.82    1.09
  -2  -4   7    2.41    0.97
   2   4  -7    1.98    1.25
  -2  -4   7    3.59    1.25
   2   4  -7    0.61    1.02
  -2  -4   7    3.17    1.41
   2   4  -7    1.09    1.14
   2   4  -7    2.07    1.47
  -2  -4   7    1.29    0.74
  -2  -4   7    2.59    1.21
  -2  -4   7    4.21    2.16
  -2  -4   6   89.69    6.06
  -2  -4   6   93.33    6.57
  -2  -4   6   91.67    7.19
   2   4  -6   93.02    8.51
  -2  -4   6   93.80    6.37
  -2  -4   6   95.40    7.77
   2   4  -6   95.23    9.68
   2   4  -6   97.01    9.72
  -2  -4   6   98.75    8.84
   2   4  -6  111.56    9.33
   2   4  -6   86.17    7.35
   2   4  -6   78.26    7.33
  -2  -4   5   29.35    3.56
   2   4  -5   28.53    4.27
  -2  -4   5   25.91    3.54
   2   4  -5   25.70    4.51
  -2  -4   5   37.08    4.81
   2   4  -5   38.11    4.98
   2   4  -5   26.02    3.79
   2   4  -5   30.40    4.11
   2   4  -4  133.18    9.57
  -2  -4   4  151.77    8.27
  -2  -4   4  135.22    8.40
   2   4  -4  124.37   10.39
  -2  -4   4  149.09    9.74
  -2  -4   4  134.28    9.64
   2   4  -4  142.47    9.80
   2   4  -4  147.40    9.27
   2   4  -3   32.72    4.08
  -2  -4   3   28.93    3.23
   2   4  -3   33.86    4.98
   2   4  -3   35.86    3.27
  -2  -4   3   37.10    4.16
  -2  -4   3   28.21    4.04
   2   4  -3   40.34    4.45
   2   4  -3   31.89    3.85
   2   4  -3   28.80    3.16
   2   4  -2   99.67    6.33
   2   4  -2  123.82    6.20
   2   4  -2  103.14    9.25
   2   4  -2   95.75    6.09
   2   4  -2  100.10    5.26
  -2  -4   2  104.86    7.05
  -2  -4   2  123.97    7.47
  -2  -4   2   91.60    7.66
   2   4  -2  101.39    7.03
   2   4  -1  200.47   10.21
   2   4  -1  205.85   10.83
   2   4  -1  277.06   11.23
   2   4  -1  273.55    9.56
   2   4  -1  311.59   12.38
   2   4  -1  229.33   10.15
  -2  -4   1  220.52   11.17
  -2  -4   1  223.81   12.90
  -2  -4   1  261.58   12.74
  -2  -4   0    3.03    0.97
   2   4   0    4.21    1.18
   2   4   0    3.68    1.10
  -2  -4   0    4.79    1.58
   2   4   0    3.52    0.96
   2   4   0    4.39    0.92
   2   4   0    3.93    1.06
  -2  -4   0    4.16    1.56
  -2  -4  -1  129.90    9.30
   2   4   1  130.49    5.28
   2   4   1  109.42    7.20
   2   4   1  114.91    5.97
   2   4   1  129.94    6.26
   2   4   1  136.54    6.02
   2   4   1  108.61    6.74
   2   4   1  117.28    6.88
   2   4   1  109.44    6.58
  -2  -4  -1  130.53    8.82
   2   4   1  115.71    6.70
   2   4   1  108.57    6.27
  -2  -4  -2   37.36    3.50
  -2  -4  -2   30.47    4.68
   2   4   2   28.44    3.76
  -2  -4  -2   30.90    4.47
  -2  -4  -2   41.33    4.26
   2   4   2   28.36    2.64
   2   4   2   32.82    3.86
  -2  -4  -2   45.32    4.56
  -2  -4  -2   37.40    3.68
   2   4   2   28.11    3.20
   2   4   2   32.07    3.68
  -2  -4  -2   32.75    4.18
   2   4   2   30.41    2.47
   2   4   2   29.65    3.61
   2   4   2   30.71    3.31
  -2  -4  -3  200.42   10.32
  -2  -4  -3  169.53   10.22
  -2  -4  -3  163.72   12.38
   2   4   3  159.51   10.83
  -2  -4  -3  171.17   11.59
  -2  -4  -3  207.74   11.82
   2   4   3  168.02    8.18
   2   4   3  168.08   11.17
  -2  -4  -3  209.25   12.06
  -2  -4  -3  197.78   10.74
   2   4   3  154.65    9.07
   2   4   3  146.99   10.34
  -2  -4  -3  188.91   11.08
   2   4   3  144.66   10.57
  -2  -4  -3  177.29    9.83
  -2  -4  -4 2051.41   63.81
  -2  -4  -4 1778.69   61.83
  -2  -4  -4 1658.90   66.81
   2   4   4 1774.46   65.04
  -2  -4  -4 1826.70   65.29
  -2  -4  -4 2019.95   66.68
   2   4   4 1880.87   59.31
   2   4   4 1725.55   66.26
  -2  -4  -4 1962.93   67.18
  -2  -4  -4 2003.79   64.65
   2   4   4 1816.55   60.84
   2   4   4 1679.03   65.13
  -2  -4  -4 1891.83   63.18
   2   4   4 1602.75   65.57
  -2  -4  -4 1991.48   63.48
  -2  -4  -5  408.59   19.99
  -2  -4  -5  377.13   17.78
  -2  -4  -5  316.09   21.26
   2   4   5  355.07   20.63
  -2  -4  -5  382.82   20.30
  -2  -4  -5  399.64   22.31
   2   4   5  385.72   16.08
   2   4   5  355.36   22.20
  -2  -4  -5  385.53   22.49
  -2  -4  -5  421.91   20.96
   2   4   5  412.65   17.22
   2   4   5  344.95   21.37
   2   4   5  329.37   21.80
  -2  -4  -5  396.65   19.73
  -2  -4  -6   68.82    7.71
  -2  -4  -6   67.92    6.28
  -2  -4  -6   46.97    7.67
   2   4   6   57.75    7.88
   2   4   6   85.18    7.18
  -2  -4  -6   58.10    7.15
   2   4   6   62.00    5.33
  -2  -4  -6   56.35    8.07
   2   4   6   55.04    8.47
  -2  -4  -6   49.56    7.81
  -2  -4  -6   61.32    7.74
   2   4   6   60.80    5.37
   2   4   6   61.26    8.79
   2   4   6   47.48    8.17
  -2  -4  -6   58.91    7.14
  -2  -4  -7   57.67    7.66
   2   4   7   62.95    5.01
  -2  -4  -7   65.99    5.88
  -2  -4  -7   65.46    5.59
   2   4   7   82.27    7.09
   2   4   7   71.06    9.33
  -2  -4  -7   56.62    8.85
  -2  -4  -7   63.37    5.19
  -2  -4  -7   63.28    8.03
   2   4   7   58.18    5.59
  -2  -4  -7   60.91    5.67
  -2  -4  -7   44.55    7.71
   2   4   7   58.36   10.00
  -2  -4  -7   54.22    8.98
   2   4   7   53.29    4.08
  -2  -4  -7   70.46    8.98
   2   4   7   72.87    5.85
   2   4   7   59.94    9.55
  -2  -4  -7   58.67    5.51
   2   4   7   58.79    9.59
  -2  -4  -7   63.73    8.09
   2   4   8   42.60    4.18
  -2  -4  -8   41.24    4.72
   2   4   8   46.24    7.74
  -2  -4  -8   40.43    4.48
   2   4   8   32.20    5.46
  -2  -4  -8   35.65    5.09
  -2  -4  -8   42.73    5.13
  -2  -4  -8   42.82    4.29
  -2  -4  -8   45.54    5.14
  -2  -4  -8   45.56    6.90
   2   4   8   39.16    4.84
  -2  -4  -8   28.11    6.51
  -2  -4  -8   39.79    4.72
   2   4   8   38.82    8.65
   2   4   8   42.01    3.64
   2   4   8   35.58    7.63
  -2  -4  -8   46.02    4.87
   2   4   8   32.00    7.51
   2   4   9  171.18    9.68
  -2  -4  -9  172.72   10.61
  -2  -4  -9  156.91    9.84
   2   4   9  172.63   10.61
   2   4   9  130.96   11.96
  -2  -4  -9  150.32   11.46
   2   4   9  180.34    9.45
  -2  -4  -9  180.72   11.52
  -2  -4  -9  173.51   11.10
  -2  -4  -9  182.27   14.68
   2   4   9  171.61   11.52
  -2  -4  -9  164.69   10.49
   2   4   9  162.13    8.66
  -2  -4  -9  157.68   10.06
   2   4  10   88.03    6.43
  -2  -4 -10   93.26    7.09
  -2  -4 -10   82.90    6.38
   2   4  10   84.17    6.89
  -2  -4 -10   90.71    7.51
  -2  -4 -10   93.93    7.47
   2   4  10   71.78    5.66
  -2  -4 -10   90.58    7.10
   2   4  10   85.23    5.76
  -2  -4 -10   77.43    6.36
   2   4  11    7.36    1.66
  -2  -4 -11    7.03    1.67
   2   4  11    6.79    1.79
   2   4  11    5.45    1.93
   2   4  11    5.45    1.28
  -2  -4 -11    8.47    1.97
  -2  -4 -11    7.04    1.83
   2   4  11    7.61    1.81
  -2  -4 -11    5.90    1.32
  -2  -4 -11    6.37    1.71
   2   4  11    7.57    1.51
  -2  -4 -11    5.42    1.43
  -2  -4 -12   21.48    2.62
  -2  -4 -12   21.82    2.72
  -2  -4 -12   20.27    2.25
   2   4  12   26.48    2.79
   2   4  12   19.02    3.17
   2   4  12   21.73    2.43
  -2  -4 -12   23.79    2.86
  -2  -4 -12   24.93    2.84
   2   4  12   20.65    2.58
  -2  -4 -12   21.60    2.66
   2   4  12   22.36    2.38
   2   4  12   26.13    2.84
  -2  -4 -13   28.23    2.39
  -2  -4 -13   29.79    2.48
  -2  -4 -13   25.56    2.33
   2   4  13   32.86    2.60
  -2  -5  12    8.13    1.10
   2   5 -12    9.42    1.37
  -2  -5  12    9.15    1.20
   2   5 -12    8.71    1.20
   2   5 -12   11.96    1.60
  -2  -5  12    9.75    1.23
  -2  -5  11    6.60    1.26
   2   5 -11    7.83    1.43
  -2  -5  11    7.26    1.32
   2   5 -11    7.12    1.35
   2   5 -11    6.20    1.41
  -2  -5  11    6.84    1.31
  -2  -5  10   16.35    2.38
   2   5 -10   12.30    2.07
  -2  -5  10   15.31    2.16
   2   5 -10   15.19    2.29
   2   5 -10   16.27    2.58
  -2  -5  10   17.10    2.30
  -2  -5   9   37.97    3.92
  -2  -5   9   36.85    3.61
   2   5  -9   34.54    3.71
   2   5  -9   35.68    5.74
   2   5  -9   34.86    4.04
  -2  -5   9   39.74    3.82
   2   5  -9   39.60    4.14
   2   5  -9   36.78    5.45
  -2  -5   8   51.81    4.74
   2   5  -8   53.08    6.08
  -2  -5   8   54.57    4.52
   2   5  -8   47.24    4.42
  -2  -5   8   46.20    4.42
   2   5  -8   48.73    6.97
  -2  -5   8   59.07    4.79
   2   5  -8   53.83    5.00
   2   5  -8   46.97    6.15
   2   5  -7   19.90    3.79
  -2  -5   7   20.17    2.81
   2   5  -7   32.63    5.16
  -2  -5   7   20.16    2.58
   2   5  -7   24.38    4.11
  -2  -5   7   21.56    3.11
  -2  -5   7   20.20    2.92
   2   5  -7   24.61    5.02
   2   5  -7   23.13    5.27
  -2  -5   7   20.08    3.60
  -2  -5   7   25.29    3.06
   2   5  -7   25.22    3.23
   2   5  -7   25.08    4.04
  -2  -5   7   26.83    4.86
   2   5  -6   15.03    3.19
  -2  -5   6   17.98    2.55
   2   5  -6   21.30    3.98
  -2  -5   6   14.08    1.99
  -2  -5   6   18.25    2.80
  -2  -5   6   15.83    2.48
   2   5  -6   13.97    3.70
   2   5  -6   14.80    3.36
   2   5  -6   15.27    4.18
  -2  -5   6   17.85    3.22
   2   5  -6   17.29    2.63
   2   5  -6   15.76    3.05
  -2  -5   6   19.61    4.07
   2   5  -5   71.34    7.28
  -2  -5   5   65.55    4.94
  -2  -5   5   87.39    6.48
  -2  -5   5   65.00    5.44
  -2  -5   5   65.11    5.24
   2   5  -5   69.07    7.24
  -2  -5   5   64.38    5.90
   2   5  -5   57.73    7.77
  -2  -5   5   65.58    5.41
  -2  -5   5   80.89    7.75
   2   5  -5   69.57    6.81
   2   5  -5   65.86    6.53
   2   5  -4  349.92   17.04
   2   5  -4  266.62   15.99
  -2  -5   4  295.72   14.40
   2   5  -4  279.92   18.49
  -2  -5   4  350.36   17.21
  -2  -5   4  316.56   17.17
   2   5  -4  326.51   16.29
   2   5  -3   68.65    6.24
   2   5  -3   62.53    6.33
  -2  -5   3   69.13    5.33
   2   5  -3   62.18    7.82
   2   5  -3   78.88    5.76
  -2  -5   3   82.28    6.95
  -2  -5   3   67.71    7.02
   2   5  -3   81.52    6.94
   2   5  -3   64.30    5.36
   2   5  -2   67.17    5.44
   2   5  -2   64.39    5.65
   2   5  -2   75.17    5.34
   2   5  -2   75.08    8.41
   2   5  -2   67.29    5.43
  -2  -5   2   78.14    6.81
  -2  -5   2   68.42    6.01
  -2  -5   2   60.81    6.51
   2   5  -1   50.19    4.64
   2   5  -1   40.07    4.09
   2   5  -1   40.77    4.07
   2   5  -1   52.77    4.47
   2   5  -1   42.89    3.58
   2   5  -1   54.24    4.84
  -2  -5   1   44.73    5.41
  -2  -5   1   46.65    4.63
  -2  -5   1   43.61    5.17
  -2  -5   0    9.81    2.02
   2   5   0   10.36    1.81
   2   5   0    9.78    1.92
   2   5   0   11.32    2.17
  -2  -5   0   10.21    2.62
   2   5   0   13.23    2.43
   2   5   0    8.97    1.65
  -2  -5   0    6.88    2.17
  -2  -5  -1   38.16    5.35
   2   5   1   36.93    4.24
   2   5   1   46.33    4.50
   2   5   1   34.47    3.26
   2   5   1   36.76    3.67
  -2  -5  -1   36.72    4.81
   2   5   2  121.29    6.59
  -2  -5  -2  113.98   10.25
   2   5   2  101.83    8.34
   2   5   2  119.20    6.17
   2   5   2  118.81    7.45
  -2  -5  -2  117.91    9.23
  -2  -5  -3  459.08   21.45
  -2  -5  -3  437.58   24.33
   2   5   3  445.14   22.31
  -2  -5  -3  459.79   20.43
  -2  -5  -3  479.59   23.93
   2   5   3  457.71   17.93
   2   5   3  491.85   19.70
  -2  -5  -3  426.09   21.67
  -2  -5  -4  752.99   30.49
  -2  -5  -4  677.55   34.32
   2   5   4  724.76   32.61
  -2  -5  -4  780.24   29.21
  -2  -5  -4  724.75   33.10
   2   5   4  714.01   26.84
   2   5   4  729.50   33.60
   2   5   4  765.48   28.36
   2   5   4  694.53   32.55
  -2  -5  -4  747.44   31.06
   2   5   4  634.79   32.26
   2   5   4  743.88   31.59
  -2  -5  -5  107.03    8.89
  -2  -5  -5   98.25   11.15
   2   5   5  111.15   10.80
   2   5   5  145.10    9.63
  -2  -5  -5  126.50   11.26
   2   5   5  104.11    7.22
   2   5   5  115.68   11.71
   2   5   5  119.23    7.94
   2   5   5  104.39   10.78
   2   5   5   97.71   10.89
   2   5   6   81.95    5.73
  -2  -5  -6   84.38    7.91
  -2  -5  -6   78.46    6.49
  -2  -5  -6   87.76    6.50
  -2  -5  -6   69.59    9.75
   2   5   6   90.10   10.25
  -2  -5  -6   71.22    5.95
   2   5   6  102.70    8.14
  -2  -5  -6   82.49    6.20
  -2  -5  -6   87.49    9.86
   2   5   6   73.42    6.36
  -2  -5  -6   81.10    6.61
   2   5   6   84.44    6.59
  -2  -5  -6   72.33    6.14
   2   5   7    3.26    1.16
   2   5   7    1.60    1.35
  -2  -5  -7    3.01    1.22
  -2  -5  -7    5.54    2.16
  -2  -5  -7    3.71    1.18
   2   5   7    5.01    2.01
  -2  -5  -7    4.38    1.44
  -2  -5  -7    4.41    1.44
  -2  -5  -7    5.87    2.66
  -2  -5  -7    2.34    2.14
  -2  -5  -7    5.02    1.75
   2   5   7    4.15    1.42
   2   5   7    4.25    1.45
  -2  -5  -7    4.46    1.28
   2   5   8   44.43    4.47
  -2  -5  -8   50.67    5.28
  -2  -5  -8   45.32    4.68
  -2  -5  -8   42.46    4.57
   2   5   8   40.59    5.98
   2   5   8   49.18    4.49
  -2  -5  -8   56.43    5.78
  -2  -5  -8   51.75    4.94
  -2  -5  -8   57.98    5.67
  -2  -5  -8   48.31    7.58
   2   5   8   46.41    5.51
  -2  -5  -8   47.67    5.24
  -2  -5  -8   42.97    4.74
   2   5   9   23.85    3.17
  -2  -5  -9   22.39    3.45
  -2  -5  -9   25.41    3.40
  -2  -5  -9   18.00    2.95
   2   5   9   18.59    3.85
   2   5   9   20.75    2.85
  -2  -5  -9   21.46    3.10
  -2  -5  -9   22.72    3.49
  -2  -5  -9   26.75    5.53
  -2  -5  -9   25.56    3.67
  -2  -5  -9   19.74    3.27
   2   5   9   23.32    2.76
   2   5   9   20.35    3.76
  -2  -5  -9   16.67    2.82
   2   5  10   91.79    6.51
  -2  -5 -10   85.51    6.75
  -2  -5 -10   82.76    6.04
   2   5  10   74.22    7.75
   2   5  10   84.94    6.07
  -2  -5 -10   85.85    6.95
  -2  -5 -10   84.89    6.01
  -2  -5 -10   99.20    7.26
   2   5  10   80.48    6.90
  -2  -5 -10   82.82    6.66
   2   5  10   88.95    5.72
  -2  -5 -10   78.94    6.16
  -2  -5 -11   86.88    6.21
  -2  -5 -11  101.70    6.58
  -2  -5 -11   86.52    6.21
  -2  -5 -11   77.45    5.28
   2   5  11   79.80    7.29
   2   5  11   92.01    5.96
  -2  -5 -11   96.82    6.54
   2   5  11   82.39    6.37
  -2  -5 -11   86.99    6.22
   2   5  11   92.18    5.46
   2   5  11   93.82    6.22
  -2  -5 -12  101.15    5.84
  -2  -5 -12   96.11    5.72
   2   5  12  103.97    5.72
   2   5  12   90.87    6.33
   2   5  12   84.04    5.88
   2   5  12   95.93    5.84
  -2  -5 -12   98.27    5.82
   2   5  12  101.80    5.03
   2   5  12  108.50    5.98
  -2  -6  11   30.61    2.63
   2   6 -11   33.16    2.77
  -2  -6  11   32.77    2.44
   2   6 -11   33.59    2.84
   2   6 -11   33.63    3.09
  -2  -6  11   33.87    2.68
  -2  -6  10    5.03    1.18
   2   6 -10    7.22    1.41
  -2  -6  10    4.53    1.00
   2   6 -10    5.82    1.37
   2   6 -10    4.93    1.28
  -2  -6  10    5.47    1.19
   2   6 -10    5.46    1.26
  -2  -6   9    5.16    1.33
  -2  -6   9    4.38    1.10
   2   6  -9    4.11    1.15
   2   6  -9    5.46    1.54
  -2  -6   9    5.06    1.15
   2   6  -9    4.08    1.26
  -2  -6   8   11.07    2.06
  -2  -6   8   11.54    1.90
   2   6  -8   11.41    2.06
  -2  -6   8    9.97    1.90
   2   6  -8   10.28    3.16
  -2  -6   8   13.58    2.12
   2   6  -8    7.73    1.83
   2   6  -8   10.13    2.85
  -2  -6   7   95.66    6.67
   2   6  -7   98.73    8.84
  -2  -6   7   94.43    7.17
  -2  -6   7   92.98    6.75
   2   6  -7   98.74   10.40
   2   6  -7   91.20   11.27
  -2  -6   7  111.88    6.86
   2   6  -7   96.01    7.02
   2   6  -7   96.78    9.04
   2   6  -6    1.53    1.28
  -2  -6   6    1.43    1.36
  -2  -6   6    1.35    0.73
  -2  -6   6    2.09    0.89
   2   6  -6    3.14    1.36
  -2  -6   6    1.03    0.58
   2   6  -6    0.59    0.88
   2   6  -6    1.01    1.89
  -2  -6   6    0.57    0.59
  -2  -6   6    1.46    0.79
   2   6  -6    0.79    0.38
  -2  -6   5  156.80    8.66
   2   6  -5  183.06   12.40
  -2  -6   5  192.43   10.56
  -2  -6   5  162.84    9.58
  -2  -6   5  164.59    9.74
  -2  -6   5  154.31    9.40
  -2  -6   5  159.50    9.30
   2   6  -5  151.47   11.97
  -2  -6   5  170.46   10.40
   2   6  -5  132.29   13.34
  -2  -6   5  173.45    8.79
  -2  -6   5  191.53   13.18
   2   6  -5  152.60   11.31
   2   6  -5  140.74   10.74
  -2  -6   4  240.21   11.43
   2   6  -4  281.00   15.53
  -2  -6   4  300.04   13.73
  -2  -6   4  264.04   13.13
  -2  -6   4  247.51   12.84
  -2  -6   4  253.18   12.57
  -2  -6   4  245.60   12.23
   2   6  -4  253.50   15.70
   2   6  -4  238.76   18.09
   2   6  -4  278.62   14.06
  -2  -6   4  264.05   11.59
  -2  -6   4  307.21   16.63
  -2  -6   4  240.60   15.60
   2   6  -4  265.38   15.30
   2   6  -3   24.93    3.90
   2   6  -3   21.42    3.89
   2   6  -3   18.62    4.54
   2   6  -3   26.06    3.61
  -2  -6   3   26.14    4.11
  -2  -6   3   23.16    4.34
   2   6  -3   28.88    4.38
   2   6  -2  167.17   10.65
   2   6  -2  229.54   11.76
   2   6  -2  207.93   11.75
   2   6  -2  196.30   15.75
   2   6  -2  202.12   11.49
  -2  -6   2  190.20   13.37
  -2  -6   2  204.90   12.39
   2   6  -2  194.22   11.10
   2   6  -1   30.76    3.92
   2   6  -1   28.36    3.82
   2   6  -1   30.17    3.81
   2   6  -1   26.23    3.51
   2   6  -1   32.66    6.19
   2   6  -1   29.43    3.90
  -2  -6   1   26.43    4.45
  -2  -6   1   34.80    5.31
  -2  -6   1   30.90    4.17
   2   6   0   28.30    3.80
   2   6   0   23.31    3.59
   2   6   0   27.69    3.66
   2   6   0   23.09    3.12
   2   6   0   22.53    3.54
  -2  -6   0   21.83    4.10
  -2  -6   0   25.75    4.72
   2   6   1   13.36    2.86
  -2  -6  -1   13.54    3.61
   2   6   1   13.43    2.34
   2   6   1   12.96    2.48
   2   6   1   16.13    3.03
  -2  -6  -1   12.52    3.03
   2   6   2   -0.53    0.56
  -2  -6  -2    2.12    1.71
   2   6   2    0.37    0.24
   2   6   2    1.27    1.02
   2   6   2    0.78    0.63
  -2  -6  -2    1.45    0.93
  -2  -6  -3   91.40   10.45
   2   6   3   99.98    9.40
   2   6   3   93.01    7.12
  -2  -6  -3  102.56    9.45
  -2  -6  -4  672.34   29.52
  -2  -6  -4  605.82   25.28
   2   6   4  650.25   25.20
  -2  -6  -4  567.05   32.39
  -2  -6  -4  633.40   25.63
   2   6   4  605.08   30.49
  -2  -6  -4  608.72   25.09
  -2  -6  -4  574.32   24.50
   2   6   4  794.84   29.15
  -2  -6  -4  648.90   27.71
  -2  -6  -4  648.28   25.35
  -2  -6  -4  845.28   26.21
  -2  -6  -4  652.09   32.20
  -2  -6  -4  611.83   25.38
   2   6   4  638.08   25.75
  -2  -6  -4  598.73   29.03
  -2  -6  -5  456.52   23.13
  -2  -6  -5  443.13   19.70
  -2  -6  -5  371.08   25.67
  -2  -6  -5  444.84   19.77
   2   6   5  405.31   24.72
  -2  -6  -5  436.17   19.58
  -2  -6  -5  389.33   18.53
   2   6   5  537.31   22.89
   2   6   5  463.38   17.96
  -2  -6  -5  453.20   19.54
  -2  -6  -5  629.37   20.30
  -2  -6  -5  468.51   26.25
   2   6   5  425.82   19.63
  -2  -6  -5  412.97   19.52
   2   6   5  427.85   19.57
   2   6   5  676.10   25.58
   2   6   6  100.12    6.67
  -2  -6  -6   94.46    9.15
  -2  -6  -6   95.00    7.39
  -2  -6  -6   68.88    6.35
  -2  -6  -6   73.97   10.36
  -2  -6  -6   90.02    7.19
   2   6   6   81.35   10.17
  -2  -6  -6   81.43    6.56
   2   6   6  118.25    9.14
   2   6   6   92.03    6.28
  -2  -6  -6   97.48    7.18
  -2  -6  -6   91.95   10.71
   2   6   6   89.29    7.49
  -2  -6  -6   89.02    7.25
   2   6   6  138.96   10.18
   2   6   7   51.78    4.78
  -2  -6  -7   48.42    6.42
  -2  -6  -7   47.00    5.14
  -2  -6  -7   32.11    4.28
  -2  -6  -7   49.13    5.18
  -2  -6  -7   43.24    4.60
   2   6   7   48.81    4.52
  -2  -6  -7   49.57    4.97
  -2  -6  -7   50.33    8.00
   2   6   7   46.21    5.61
  -2  -6  -7   48.48    5.24
   2   6   8   47.58    4.64
  -2  -6  -8   45.68    5.05
  -2  -6  -8   39.77    4.60
  -2  -6  -8   48.38    5.11
  -2  -6  -8   33.65    4.04
   2   6   8   35.87    3.91
  -2  -6  -8   44.48    4.66
  -2  -6  -8   42.69    7.38
   2   6   8   36.59    5.06
  -2  -6  -8   43.35    4.90
  -2  -6  -9   79.49    6.58
  -2  -6  -9   84.54    6.43
  -2  -6  -9   78.18    6.43
  -2  -6  -9   73.30    5.82
   2   6   9   61.46    6.88
  -2  -6  -9   81.03    6.62
  -2  -6  -9   81.93    6.22
  -2  -6  -9   94.22    6.92
  -2  -6  -9   82.87   10.01
   2   6   9   71.23    5.68
  -2  -6  -9   73.30    6.33
   2   6   9   72.45    6.81
   2   6   9   83.39    6.23
   2   6  10    8.89    1.84
  -2  -6 -10   10.96    2.18
  -2  -6 -10    8.12    1.58
  -2  -6 -10    8.59    1.84
   2   6  10    6.64    1.51
  -2  -6 -10    8.36    1.81
  -2  -6 -10    7.10    1.50
  -2  -6 -10   12.29    2.16
   2   6  10    7.48    1.82
   2   6  10    7.31    1.56
   2   6  10    9.10    2.16
  -2  -6 -10    8.88    1.95
  -2  -6 -10    6.15    1.30
   2   6  10    7.85    2.08
  -2  -6 -11   88.04    5.77
  -2  -6 -11   81.63    5.48
   2   6  11   88.82    5.62
   2   6  11   84.16    6.09
  -2  -6 -11   80.91    5.58
   2   6  11   93.22    5.77
  -2  -6 -12   65.17    4.00
  -2  -6 -12   61.56    3.82
   2   6  12   75.47    4.26
  -2  -6 -12   60.64    3.92
   2   6  12   72.92    4.20
  -2  -7  11   -0.08    0.14
   2   7 -11    0.42    0.32
  -2  -7  11    0.16    0.26
  -2  -7  10    2.16    0.67
   2   7 -10    2.68    0.74
   2   7 -10    2.23    0.81
   2   7 -10    2.21    0.78
  -2  -7  10    1.67    0.57
   2   7 -10    2.56    0.72
  -2  -7   9   18.41    2.37
   2   7  -9   17.82    2.40
   2   7  -9   19.05    2.71
  -2  -7   9   21.66    2.46
   2   7  -9   21.85    2.76
  -2  -7   8  209.56   10.40
   2   7  -8  203.28   10.39
  -2  -7   8  189.16   10.16
  -2  -7   8  227.98   10.33
   2   7  -8  206.41   10.94
  -2  -7   7  200.79   10.50
  -2  -7   7  204.96   10.93
  -2  -7   7  213.06   11.39
   2   7  -7  213.78   15.76
   2   7  -7  206.80   17.69
  -2  -7   7  225.06   10.60
   2   7  -7  206.40   11.34
   2   7  -7  218.02   14.33
  -2  -7   6  350.90   15.24
  -2  -7   6  335.80   16.08
  -2  -7   6  359.22   16.00
   2   7  -6  339.29   21.80
   2   7  -6  359.44   24.45
   2   7  -6  325.78   15.42
  -2  -7   6  395.56   15.38
   2   7  -6  340.02   16.07
   2   7  -6  337.45   19.20
  -2  -7   5  137.28    8.08
  -2  -7   5  189.11   10.40
  -2  -7   5  153.26    9.32
  -2  -7   5  144.68    9.17
  -2  -7   5  144.59    9.08
  -2  -7   5  143.63    8.94
   2   7  -5  144.29   14.66
   2   7  -5  132.78    8.52
  -2  -7   5  156.32    8.25
   2   7  -5  144.55   11.37
   2   7  -5  145.00   11.03
  -2  -7   4  535.92   21.81
   2   7  -4  641.76   27.67
  -2  -7   4  707.01   25.06
  -2  -7   4  558.55   23.87
  -2  -7   4  575.98   23.90
  -2  -7   4  571.56   23.48
  -2  -7   4  571.13   23.18
   2   7  -4  555.15   27.84
   2   7  -4  566.40   32.55
   2   7  -4  600.56   26.12
  -2  -7   4  604.29   21.96
  -2  -7   4  697.82   29.40
   2   7  -4  630.23   27.95
  -2  -7   3  130.62    8.23
  -2  -7   3  103.82    7.79
  -2  -7   3  114.46    7.91
  -2  -7   3  111.10    7.39
   2   7  -3  114.80    9.18
  -2  -7   3  102.43    7.07
   2   7  -3   97.17    9.35
   2   7  -3   96.20   11.63
   2   7  -3  102.89    8.59
  -2  -7   3  105.04   10.45
  -2  -7   3  120.91   10.06
   2   7  -3  128.70   10.27
  -2  -7   2   41.72    4.64
  -2  -7   2   47.68    4.69
  -2  -7   2   42.72    4.75
   2   7  -2   55.11    6.10
  -2  -7   2   43.17    4.57
  -2  -7   2   40.63    4.01
   2   7  -2   50.36    5.64
  -2  -7   2   37.60    3.81
   2   7  -2   41.27    7.56
   2   7  -2   39.47    5.10
  -2  -7   2   39.47    6.07
  -2  -7   2   47.55    5.94
   2   7  -2   54.17    6.50
   2   7  -2   41.70    4.91
   2   7  -1   26.62    3.88
   2   7  -1   25.68    4.14
  -2  -7   1   24.55    3.47
  -2  -7   1   27.30    3.41
  -2  -7   1   24.29    3.47
  -2  -7   1   31.68    3.74
   2   7  -1   26.05    4.14
  -2  -7   1   23.34    2.89
  -2  -7   1   19.24    2.57
  -2  -7   1   30.21    5.59
   2   7  -1   27.97    4.05
   2   7  -1   23.62    5.74
   2   7  -1   24.23    4.02
  -2  -7   1   22.02    4.47
   2   7   0    2.93    1.01
   2   7   0    2.94    1.21
  -2  -7   0    4.75    1.52
  -2  -7   0    2.10    1.05
  -2  -7   0    2.47    0.71
  -2  -7   0    2.92    1.12
  -2  -7   0    2.58    0.92
   2   7   0   -0.40    0.46
  -2  -7   0   -0.25    0.65
   2   7   0    4.34    1.86
   2   7   0    3.31    1.47
   2   7   0    3.42    1.57
  -2  -7   0    4.45    1.98
   2   7   1   11.80    2.63
  -2  -7  -1    9.91    2.08
  -2  -7  -1   10.86    2.29
  -2  -7  -1   11.27    2.41
  -2  -7  -1    8.73    1.73
  -2  -7  -1   12.89    2.29
   2   7   1   11.26    2.72
  -2  -7  -1   11.79    2.36
   2   7   1    8.45    2.67
  -2  -7  -1    9.10    3.19
   2   7   1   11.63    4.64
   2   7   1   12.62    2.97
   2   7   1   11.09    2.37
  -2  -7  -1   10.23    2.98
  -2  -7  -2  279.73   20.03
  -2  -7  -2  251.78   13.38
   2   7   2  270.34   16.92
  -2  -7  -2  277.82   14.27
  -2  -7  -2  261.97   13.12
  -2  -7  -2  263.82   13.08
   2   7   2  305.96   16.33
  -2  -7  -2  270.95   13.78
   2   7   2  318.40   16.94
  -2  -7  -2  273.61   17.76
  -2  -7  -3  185.73   10.81
  -2  -7  -3  178.19   16.08
   2   7   3  177.08   13.96
  -2  -7  -3  204.91   11.63
  -2  -7  -3  186.88   10.55
  -2  -7  -3  199.43   10.40
   2   7   3  236.98   13.85
  -2  -7  -3  202.57   11.22
   2   7   3  169.25   10.92
  -2  -7  -3  186.84   11.01
   2   7   3  213.94   13.59
  -2  -7  -3  193.21   14.47
  -2  -7  -4 1016.43   37.83
  -2  -7  -4  923.29   46.97
  -2  -7  -4 1076.56   38.73
   2   7   4  973.07   44.27
  -2  -7  -4  978.48   37.17
  -2  -7  -4 1032.69   37.98
   2   7   4  984.32   38.62
  -2  -7  -4  964.74   37.75
  -2  -7  -4 1000.27   43.15
  -2  -7  -5  776.97   31.11
   2   7   5  785.39   29.13
  -2  -7  -5  864.06   32.29
   2   7   5  786.31   38.64
  -2  -7  -5  790.28   30.80
   2   7   5  977.63   35.81
  -2  -7  -5  826.66   31.39
   2   7   5  752.80   32.13
  -2  -7  -5  770.07   31.20
   2   7   5  999.48   36.20
  -2  -7  -6  271.94   14.12
  -2  -7  -6  274.04   14.35
  -2  -7  -6  260.39   13.60
  -2  -7  -6  271.01   13.95
   2   7   6  248.00   14.70
  -2  -7  -6  263.14   19.92
   2   7   6  252.38   12.39
  -2  -7  -6  240.38   13.67
   2   7   6  280.47   16.08
   2   7   7   12.96    2.34
  -2  -7  -7    8.23    2.05
  -2  -7  -7    9.40    2.16
   2   7   7    8.46    2.55
  -2  -7  -7    9.41    2.11
   2   7   7    9.71    1.86
  -2  -7  -7    9.11    2.06
   2   7   7    9.90    2.49
  -2  -7  -7   10.20    3.95
  -2  -7  -7    9.28    2.25
  -2  -7  -8   20.15    3.09
  -2  -7  -8   19.84    3.19
  -2  -7  -8   22.29    3.19
   2   7   8   24.40    3.38
   2   7   8   22.80    3.03
  -2  -7  -8   18.26    2.88
   2   7   8   22.80    3.70
  -2  -7  -8   20.14    4.97
  -2  -7  -8   18.60    3.10
   2   7   8   22.83    3.06
   2   7   9   14.07    2.28
  -2  -7  -9   11.16    2.15
  -2  -7  -9   13.44    2.26
  -2  -7  -9   11.29    2.11
  -2  -7  -9   13.81    2.27
   2   7   9   13.09    2.64
   2   7   9   12.24    2.16
  -2  -7  -9   11.98    2.28
   2   7   9   14.85    2.38
  -2  -7 -10   56.92    4.56
  -2  -7 -10   56.53    4.29
  -2  -7 -10   55.69    4.37
   2   7  10   52.84    4.16
   2   7  10   54.75    4.35
  -2  -7 -10   55.56    4.19
   2   7  10   55.32    5.09
  -2  -7 -10   52.93    4.46
   2   7  10   63.86    4.59
   2   7  11    1.00    0.36
  -2  -7 -11    0.76    0.41
  -2  -7 -11    1.55    0.56
   2   7  11    1.32    0.33
   2   7  11    1.76    0.85
  -2  -7 -11    1.68    0.63
  -2  -8  10   30.52    2.30
   2   8 -10   35.72    2.68
   2   8 -10   33.66    2.73
  -2  -8  10   31.55    2.16
  -2  -8   9   15.27    1.85
   2   8  -9   14.48    1.81
   2   8  -9   13.47    1.85
   2   8  -9   14.20    2.05
  -2  -8   9   14.05    1.66
   2   8  -9   15.84    2.12
  -2  -8   8   29.51    2.94
   2   8  -8   27.62    3.02
  -2  -8   8   30.32    3.03
  -2  -8   8   28.95    2.73
   2   8  -8   29.94    3.33
  -2  -8   7  158.60    8.44
  -2  -8   7  154.28    8.72
   2   8  -7  166.62    9.11
  -2  -8   7  160.13    9.14
  -2  -8   7  165.85    8.16
   2   8  -7  151.05    8.56
   2   8  -7  157.93    9.24
  -2  -8   6   55.30    4.63
  -2  -8   6   59.84    5.32
  -2  -8   6   61.97    5.28
   2   8  -6   59.66    7.91
   2   8  -6   59.33    9.20
   2   8  -6   59.37    5.27
  -2  -8   6   68.18    4.73
   2   8  -6   60.16    5.47
   2   8  -6   65.38    7.27
  -2  -8   5  224.10   10.89
  -2  -8   5  237.63   12.07
  -2  -8   5  238.72   12.28
  -2  -8   5  229.21   11.80
   2   8  -5  255.49   20.38
   2   8  -5  213.17   11.73
  -2  -8   5  223.91   12.02
   2   8  -5  238.40   15.25
  -2  -8   4   39.90    4.38
  -2  -8   4   33.19    4.10
  -2  -8   4   31.17    3.98
  -2  -8   4   31.00    3.75
  -2  -8   4   28.75    3.58
   2   8  -4   33.19    7.00
   2   8  -4   32.80    5.03
   2   8  -4   29.99    5.05
   2   8  -3   12.78    3.32
  -2  -8   3   12.17    2.55
  -2  -8   3   18.19    2.96
  -2  -8   3   15.75    2.77
  -2  -8   3   13.23    2.43
  -2  -8   3   13.82    2.37
   2   8  -3   13.73    4.68
   2   8  -3    9.97    2.78
   2   8  -2   22.78    4.33
   2   8  -2   14.36    2.41
  -2  -8   2   23.29    3.29
  -2  -8   2   17.92    3.08
  -2  -8   2   19.96    3.20
  -2  -8   2   16.30    2.56
  -2  -8   2   17.39    2.59
   2   8  -2   23.69    5.86
   2   8  -2   18.25    3.72
  -2  -8   1   49.17    5.23
  -2  -8   1   56.01    5.09
  -2  -8   1   54.95    5.63
   2   8  -1   64.31    7.49
  -2  -8   1   54.75    5.33
  -2  -8   1   47.78    4.46
  -2  -8   1   45.57    4.25
   2   8  -1   50.22    8.87
   2   8  -1   49.37    6.26
   2   8  -1   53.53    6.12
  -2  -8   1   47.03    7.09
   2   8  -1   47.74    5.54
   2   8   0   62.22    6.52
   2   8   0   57.81    5.21
  -2  -8   0   54.15    5.62
  -2  -8   0   57.49    5.12
  -2  -8   0   52.27    5.64
  -2  -8   0   57.35    5.44
   2   8   0   73.63    8.17
  -2  -8   0   52.57    5.42
   2   8   0   63.73   10.01
  -2  -8   0   52.04    7.98
   2   8   0   52.82    6.55
  -2  -8   0   54.22    7.69
   2   8   0   57.16    6.12
   2   8   1  248.31   14.31
  -2  -8  -1  247.10   19.25
  -2  -8  -1  216.81   12.78
  -2  -8  -1  225.65   11.84
  -2  -8  -1  237.62   13.15
  -2  -8  -1  213.50   12.01
   2   8   1  275.22   16.41
  -2  -8  -1  219.16   12.53
   2   8   1  259.16   21.52
   2   8   1  238.69   15.21
  -2  -8  -1  213.16   16.33
   2   8   2  165.67   11.30
  -2  -8  -2  133.03    9.21
  -2  -8  -2  131.70   14.11
  -2  -8  -2  148.25   10.04
  -2  -8  -2  147.87    9.00
  -2  -8  -2  157.74   10.05
  -2  -8  -2  148.56    9.23
   2   8   2  174.26   12.87
   2   8   2  148.55    8.87
  -2  -8  -2  138.78    9.46
   2   8   2  164.34   16.94
   2   8   2  160.83   12.03
   2   8   3  120.21    9.41
  -2  -8  -3   95.45    7.41
  -2  -8  -3   89.24    7.53
  -2  -8  -3   86.19    6.75
  -2  -8  -3   92.36    6.90
   2   8   3  117.11   10.50
   2   8   3   91.11    6.85
  -2  -8  -3   95.93    7.57
   2   8   3  120.68   14.36
   2   8   3  106.30    9.65
  -2  -8  -4  142.41    9.43
  -2  -8  -4  145.32   10.02
  -2  -8  -4  137.17    8.86
  -2  -8  -4  149.95    8.97
   2   8   4  172.49   12.64
  -2  -8  -4  148.15    9.74
   2   8   4  139.53   10.12
   2   8   4  172.13   12.40
  -2  -8  -5   31.50    3.99
  -2  -8  -5   33.27    4.36
  -2  -8  -5   31.90    4.08
  -2  -8  -5   26.53    3.50
   2   8   5   36.87    5.64
   2   8   5   31.19    3.86
  -2  -8  -5   30.17    4.05
   2   8   5   31.49    4.51
   2   8   5   36.87    7.75
  -2  -8  -5   28.38    3.93
   2   8   5   33.65    5.11
  -2  -8  -6   24.12    3.48
  -2  -8  -6   26.25    3.81
  -2  -8  -6   26.29    3.41
  -2  -8  -6   23.31    3.16
   2   8   6   30.90    5.12
   2   8   6   28.94    3.64
   2   8   6   27.95    3.26
  -2  -8  -6   27.33    3.72
   2   8   6   25.56    4.05
  -2  -8  -6   23.16    3.54
   2   8   6   28.39    4.44
  -2  -8  -7   12.78    2.40
  -2  -8  -7   16.00    2.91
   2   8   7   11.73    2.25
  -2  -8  -7   15.98    2.50
   2   8   7   15.58    2.43
  -2  -8  -7   14.50    2.72
   2   8   7   10.46    2.67
  -2  -8  -7   16.61    2.73
  -2  -8  -8   59.37    5.14
  -2  -8  -8   71.97    5.78
  -2  -8  -8   59.79    4.87
   2   8   8   68.68    5.18
   2   8   8   66.67    5.35
   2   8   8   62.24    6.00
  -2  -8  -8   68.15    5.55
  -2  -8  -8   70.10    5.53
  -2  -8  -9   42.83    3.83
   2   8   9   42.65    3.79
  -2  -8  -9   46.86    4.07
  -2  -8  -9   41.53    3.54
   2   8   9   44.27    3.79
   2   8   9   45.14    3.92
  -2  -8  -9   41.42    3.70
   2   8   9   43.18    4.52
  -2  -8  -9   42.28    3.90
  -2  -8 -10   14.86    1.85
   2   8  10   17.10    1.80
  -2  -8 -10   15.32    1.79
   2   8  10   17.20    2.01
   2   8  10   18.72    2.07
  -2  -8 -10   16.12    1.81
   2   8  10   16.99    2.36
   2   9  -9   54.88    3.45
   2   9  -9   52.68    3.47
  -2  -9   8   86.97    4.71
   2   9  -8   83.45    4.63
   2   9  -8   91.14    5.36
  -2  -9   8   87.55    5.01
   2   9  -8  103.81    5.86
   2   9  -8  100.22    5.79
  -2  -9   7   76.65    4.71
   2   9  -7   84.02    5.45
  -2  -9   7   77.84    5.17
   2   9  -7   84.60    5.63
   2   9  -7   86.08    5.86
  -2  -9   6   36.38    3.16
  -2  -9   6   36.53    3.65
   2   9  -6   38.13    3.94
  -2  -9   6   36.44    3.72
   2   9  -6   35.46    3.90
  -2  -9   5   81.32    6.08
  -2  -9   5   88.67    6.09
  -2  -9   5   78.64    5.88
   2   9  -5   80.25    6.24
  -2  -9   4   94.40    6.91
  -2  -9   4   92.13    6.93
  -2  -9   4   89.78    6.57
  -2  -9   4   86.46    6.39
   2   9  -4   99.65   12.46
   2   9  -4  101.18    7.25
   2   9  -4   98.77    9.15
   2   9  -3   25.71    4.56
  -2  -9   3   28.31    3.80
  -2  -9   3   30.46    3.85
  -2  -9   3   22.61    3.11
  -2  -9   3   24.27    3.14
   2   9  -3   25.61    6.23
   2   9  -3   33.16    5.23
   2   9  -2  133.95    8.59
  -2  -9   2  126.58    9.00
  -2  -9   2  130.95    8.85
  -2  -9   2  120.74    7.82
  -2  -9   2  125.86    7.83
   2   9  -2  118.35   14.08
   2   9  -2  134.55   11.25
   2   9  -2  144.04   11.57
   2   9  -1    9.58    3.09
   2   9  -1    3.35    1.16
  -2  -9   1    6.22    2.02
  -2  -9   1    5.53    1.91
  -2  -9   1    7.24    1.85
  -2  -9   1    4.10    1.22
  -2  -9   1    6.91    1.51
   2   9  -1    9.14    3.19
   2   9  -1    5.92    3.64
   2   9  -1    6.82    2.71
   2   9   0  156.65    9.59
  -2  -9   0  138.15    9.60
  -2  -9   0  138.75    9.68
   2   9   0  157.44   13.79
  -2  -9   0  138.35    9.26
   2   9   0  136.48   15.24
   2   9   0  136.88   11.64
   2   9   0  178.23   13.23
   2   9   1   44.83    4.87
  -2  -9  -1   34.17    4.44
  -2  -9  -1   44.53    5.07
   2   9   1   55.21    7.46
  -2  -9  -1   38.73    4.45
  -2  -9  -1   41.06    4.79
   2   9   1   40.27    7.99
   2   9   1   43.70    6.19
   2   9   2   88.45    7.21
  -2  -9  -2   90.75    7.50
  -2  -9  -2   89.84    7.45
   2   9   2  106.87   10.80
  -2  -9  -2   88.90    6.93
   2   9   2   93.09    6.79
  -2  -9  -2   86.28    7.16
   2   9   2  102.64    9.57
   2   9   3  164.11   10.28
  -2  -9  -3  144.09    9.95
  -2  -9  -3  159.98   10.20
  -2  -9  -3  147.92    9.31
   2   9   3  185.06   14.40
   2   9   3  147.59    9.33
  -2  -9  -3  157.83   10.08
   2   9   3  180.56   17.18
   2   9   3  172.22   12.73
  -2  -9  -4   10.07    2.22
  -2  -9  -4   14.55    2.78
  -2  -9  -4   13.37    2.71
  -2  -9  -4   15.45    2.47
  -2  -9  -4   14.51    2.69
   2   9   4   16.98    3.12
   2   9   4   18.14    4.31
   2   9   4   11.41    2.26
   2   9   4   15.56    3.56
  -2  -9  -5   13.67    2.49
  -2  -9  -5   13.87    2.68
  -2  -9  -5   11.21    2.34
   2   9   5   17.85    2.82
   2   9   5   15.66    2.91
  -2  -9  -5   17.02    2.81
  -2  -9  -6   49.85    4.61
  -2  -9  -6   48.89    4.91
  -2  -9  -6   51.04    4.53
   2   9   6   45.00    4.53
  -2  -9  -6   51.46    4.93
   2   9   6   48.38    5.29
  -2  -9  -7   50.16    4.46
   2   9   7   64.99    5.30
  -2  -9  -7   56.74    5.02
   2   9   7   66.16    5.29
   2   9   7   64.22    5.88
  -2  -9  -7   58.39    4.90
  -2  -9  -8   20.78    2.44
   2   9   8   24.96    2.82
  -2  -9  -8   23.98    2.80
   2   9   8   22.90    2.77
  -2  -9  -8   20.41    2.49
   2   9   8   21.85    3.09
  -2  -9  -9    5.03    1.06
   2   9   9    5.87    1.12
  -2  -9  -9    6.02    1.12
  -2  -9  -9    6.10    1.12
   2   9   9    8.10    1.57
   2   9   9    6.61    1.22
   2  10  -7   20.80    2.15
  -2 -10   7   20.84    2.02
   2  10  -7   27.20    2.55
   2  10  -7   24.75    2.46
  -2 -10   6    4.90    1.13
   2  10  -6    4.33    0.99
   2  10  -6    7.58    1.49
   2  10  -6    5.09    1.22
  -2 -10   5    7.49    1.44
   2  10  -5    7.09    1.55
  -2 -10   5    8.91    1.59
   2  10  -5    9.34    1.84
  -2 -10   4   34.59    3.45
  -2 -10   4   33.97    3.58
  -2 -10   4   36.89    3.51
  -2 -10   4   32.41    3.32
   2  10  -4   37.37    3.89
  -2 -10   3   68.76    5.48
  -2 -10   3   68.56    5.50
  -2 -10   3   62.53    4.89
  -2 -10   3   68.95    5.07
   2  10  -3   62.48    5.44
   2  10  -2   35.75    3.99
  -2 -10   2   31.91    3.86
  -2 -10   2   31.66    3.77
  -2 -10   2   35.22    3.50
  -2 -10   2   34.27    3.42
   2  10  -1   60.61    5.50
  -2 -10   1   64.98    5.77
  -2 -10   1   59.81    5.43
  -2 -10   1   61.39    4.70
  -2 -10   1   58.10    4.56
   2  10   0   29.21    3.81
   2  10   0   40.00    4.19
  -2 -10   0   31.28    3.96
  -2 -10   0   36.55    4.30
  -2 -10   0   33.18    3.96
   2  10   1   45.93    4.83
   2  10   1   51.85    5.09
  -2 -10  -1   46.46    4.84
  -2 -10  -1   53.41    5.31
  -2 -10  -1   45.24    4.58
   2  10   2    7.62    1.84
   2  10   2    9.50    2.30
  -2 -10  -2    5.71    1.49
  -2 -10  -2    8.09    2.01
  -2 -10  -2    7.71    1.73
   2  10   3   17.98    2.91
   2  10   3   25.48    3.46
  -2 -10  -3   21.98    3.23
  -2 -10  -3   23.09    3.20
  -2 -10  -3   18.53    2.71
   2  10   3   21.29    2.93
  -2 -10  -3   21.17    3.15
   2  10   4    0.61    0.43
   2  10   4    0.56    0.62
  -2 -10  -4    0.49    0.50
  -2 -10  -4   -0.84    0.56
  -2 -10  -4    0.02    0.41
   2  10   4    0.42    0.68
  -2 -10  -4   -0.13    0.78
   2  10   5   37.53    3.89
   2  10   5   48.03    4.57
  -2 -10  -5   44.44    4.38
  -2 -10  -5   38.85    3.81
   2  10   5   42.97    4.20
  -2 -10  -5   43.52    4.17
   2  10   5   48.81    4.64
  -2 -10  -6  121.95    7.16
   2  10   6  114.09    6.86
   2  10   6  138.73    7.83
  -2 -10  -6  125.52    7.44
  -2 -10  -6  111.79    6.35
   2  10   6  126.28    7.46
   2  10   6  146.45    8.26
   2  10   7   15.35    1.84
   2  10   7   19.50    2.38
  -2 -10  -7   18.09    2.26
   2  10   7   18.00    2.32
  -2 -10  -7   15.26    2.01
   2  10   7   22.68    2.70
   2  10   8   10.72    1.51
  -2 -11   5   19.82    1.86
   2  11  -5   19.57    1.88
   2  11  -5   26.74    2.56
   2  11  -5   24.13    2.43
   2  11  -4   96.46    5.26
  -2 -11   4   97.42    5.21
   2  11  -4  117.58    6.50
  -2 -11   4   90.70    5.09
   2  11  -4  119.50    6.44
  -2 -11   3    0.46    0.41
  -2 -11   3   -0.09    0.48
  -2 -11   3    0.63    0.30
  -2 -11   3    0.60    0.41
   2  11  -3    0.40    0.47
   2  11  -3   -0.22    0.21
   2  11  -2   30.49    3.14
  -2 -11   2   29.76    3.09
  -2 -11   2   28.58    3.01
  -2 -11   2   26.74    2.51
  -2 -11   2   26.49    2.46
   2  11  -2   30.66    3.30
   2  11  -1   56.71    4.72
  -2 -11   1   53.72    4.47
  -2 -11   1   50.39    4.27
   2  11  -1   47.54    4.28
   2  11   0   11.62    2.06
  -2 -11   0   11.30    2.05
  -2 -11   0   11.61    1.99
   2  11   0   10.96    1.98
   2  11   1    9.17    1.91
   2  11   1   11.80    2.00
  -2 -11  -1    9.45    1.88
  -2 -11  -1    9.00    1.75
   2  11   2   44.26    4.30
   2  11   2   51.71    4.48
  -2 -11  -2   45.46    4.11
  -2 -11  -2   46.46    4.18
  -2 -11  -2   47.08    3.94
   2  11   3   28.56    3.25
   2  11   3   30.77    3.35
  -2 -11  -3   25.07    2.93
  -2 -11  -3   26.51    2.98
  -2 -11  -3   22.79    2.50
   2  11   4  116.45    6.80
   2  11   4  125.75    7.10
  -2 -11  -4  104.98    6.35
  -2 -11  -4  106.68    6.23
  -2 -11  -4   99.68    5.50
   2  11   4  127.53    6.61
   2  11   5  118.55    6.40
   2  11   5  136.17    6.96
  -2 -11  -5  110.95    6.21
  -2 -11  -5   98.10    5.48
   2  11   5  138.93    6.66
  -2 -12   1   46.26    3.08
  -2 -12   0    7.63    1.21
  -2 -12   0    7.71    1.18
  -2 -12  -1    2.52    0.67
  -2 -12  -1    1.18    0.41
   3  -9  -4    4.16    0.90
  -3   9   4    5.29    1.21
   3  -9  -4    5.55    0.93
  -3   9   4    5.78    1.45
  -3   9   4    7.82    1.83
   3  -9  -4    4.66    1.12
  -3   9   4    5.78    1.37
  -3   9   3  170.25    9.55
   3  -9  -3  152.67    7.14
  -3   9   3  167.54    8.43
   3  -9  -3  143.32    6.82
   3  -9  -3  131.92    6.14
  -3   9   3  165.00    8.82
  -3   9   3  173.50    9.89
   3  -9  -3  113.48    7.84
  -3   9   2   88.15    5.84
   3  -9  -2   86.75    5.10
   3  -9  -2   94.02    5.24
  -3   9   2   99.67    6.36
  -3   9   2  104.48    7.82
  -3   9   2  102.16    7.51
   3  -9  -2   69.99    6.14
   3  -9  -2   81.16    4.61
  -3   9   2   94.50    6.60
  -3   9   1    5.97    1.41
  -3   9   1    8.89    1.82
  -3   9   1    8.82    1.73
   3  -9  -1    7.03    1.31
  -3   9   1    9.46    2.28
  -3   9   1    6.08    1.89
   3  -9  -1    6.17    1.68
   3  -9  -1    6.34    1.14
  -3   9   1    8.63    1.88
  -3   9   1   10.70    2.43
  -3   9   0   48.16    4.51
  -3   9   0   41.02    4.22
   3  -9   0   41.12    3.44
  -3   9   0   46.03    4.05
  -3   9   0   48.39    5.24
  -3   9   0   40.82    4.12
  -3   9   0   41.41    4.83
   3  -9   0   34.21    4.33
   3  -9   0   38.92    3.12
  -3   9   0   46.32    5.26
  -3   9  -1   28.23    3.12
  -3   9  -1   27.34    3.48
  -3   9  -1   26.88    3.32
  -3   9  -1   28.50    2.95
   3  -9   1   23.64    2.56
  -3   9  -1   29.39    4.14
  -3   9  -1   29.47    4.13
  -3   9  -1   27.79    3.89
   3  -9   1   24.62    2.42
  -3   9  -2   29.23    3.57
  -3   9  -2   28.43    3.38
  -3   9  -2   30.15    4.21
  -3   9  -2   29.86    4.02
  -3   9  -2   29.27    3.89
   3  -9   2   23.82    2.38
   3  -9   2   25.61    2.61
   3  -9   3    1.65    0.37
  -3   9  -3    2.43    0.86
  -3   9  -3    3.04    1.09
  -3   9  -3    1.78    0.98
  -3   9  -3    1.72    0.90
  -3   9  -3    0.23    0.44
   3  -9   3    2.03    0.61
   3  -9   3    2.34    0.62
  -3   9  -4   16.17    2.28
  -3   9  -4   15.80    2.15
  -3   9  -4   12.77    2.33
  -3   9  -4   14.73    2.62
  -3   9  -4   13.18    2.30
   3  -9   4   14.11    1.60
  -3   9  -4   12.19    1.71
  -3   9  -5   58.75    4.52
  -3   8   6   38.47    3.70
   3  -8  -6   33.46    2.84
  -3   8   6   33.29    3.17
   3  -8  -6   32.55    2.41
  -3   8   6   36.96    3.97
  -3   8   6   34.82    3.72
   3  -8  -6   25.29    2.98
  -3   8   6   38.79    2.85
  -3   8   6   29.73    2.69
  -3   8   5   46.20    4.61
   3  -8  -5   43.69    3.53
  -3   8   5   51.04    4.48
   3  -8  -5   40.18    3.09
  -3   8   5   50.92    5.30
  -3   8   5   44.95    3.41
   3  -8  -5   35.14    2.45
   3  -8  -5   33.18    3.91
  -3   8   5   45.10    4.78
  -3   8   5   40.65    3.49
  -3   8   4    4.70    1.14
   3  -8  -4    2.56    0.88
  -3   8   4    4.27    1.42
   3  -8  -4    3.39    0.92
  -3   8   4    1.27    0.42
  -3   8   4    3.72    1.42
   3  -8  -4    1.35    0.74
   3  -8  -4    2.67    0.78
  -3   8   4    4.55    1.51
  -3   8   3   19.98    2.87
   3  -8  -3   21.46    2.67
   3  -8  -3   20.95    2.42
  -3   8   3   19.12    3.14
  -3   8   3   22.89    4.08
  -3   8   3   22.93    3.90
   3  -8  -3   15.31    2.97
   3  -8  -3   18.65    2.08
  -3   8   3   19.61    3.47
  -3   8   2   42.85    4.49
  -3   8   2   44.91    4.74
   3  -8  -2   38.85    3.64
   3  -8  -2   44.37    3.93
  -3   8   2   46.01    5.05
  -3   8   2   59.02    6.81
  -3   8   2   42.90    5.67
   3  -8  -2   37.80    4.97
   3  -8  -2   40.56    3.35
  -3   8   2   51.58    5.68
  -3   8   1   33.75    4.22
  -3   8   1   30.15    4.02
   3  -8  -1   26.95    3.05
  -3   8   1   27.74    3.91
   3  -8  -1   28.66    3.10
  -3   8   1   34.60    4.56
  -3   8   1   33.63    4.99
   3  -8  -1   18.41    3.58
   3  -8  -1   27.87    2.79
  -3   8   1   34.83    5.32
  -3   8   0   28.29    4.04
  -3   8   0   26.07    3.80
  -3   8   0   26.83    3.72
   3  -8   0   24.52    2.95
  -3   8   0   31.50    5.03
  -3   8   0   28.87    4.73
   3  -8   0   19.72    3.81
   3  -8   0   27.89    2.92
  -3   8   0   23.59    3.76
   3  -8   1   20.95    1.99
  -3   8  -1   20.33    3.58
  -3   8  -1   24.37    3.72
  -3   8  -1   23.24    3.30
   3  -8   1   18.64    2.56
  -3   8  -1   24.95    4.44
  -3   8  -1   22.54    4.13
  -3   8  -1   26.59    4.44
   3  -8   1   18.68    3.55
   3  -8   1   24.04    2.66
  -3   8  -1   21.59    3.41
   3  -8   2   10.25    1.43
  -3   8  -2   10.32    2.50
  -3   8  -2    9.44    2.32
  -3   8  -2    8.97    1.88
   3  -8   2    7.45    1.52
  -3   8  -2   10.35    2.69
  -3   8  -2   11.22    2.81
  -3   8  -2   10.84    2.84
   3  -8   2    5.44    1.79
   3  -8   2    9.47    1.69
  -3   8  -2    9.06    2.13
   3  -8   3   29.01    2.51
  -3   8  -3   33.01    4.34
  -3   8  -3   30.71    4.05
   3  -8   3   26.58    2.96
  -3   8  -3   29.12    4.59
  -3   8  -3   33.00    4.84
  -3   8  -3   31.31    4.64
   3  -8   3   22.96    2.66
  -3   8  -3   34.21    3.85
   3  -8   4    6.24    1.12
  -3   8  -4    5.59    1.61
  -3   8  -4    8.31    2.02
   3  -8   4    6.37    1.37
  -3   8  -4    5.55    1.61
  -3   8  -4    6.82    2.00
  -3   8  -4    5.82    2.08
   3  -8   4    6.65    1.37
  -3   8  -4    6.30    1.54
   3  -8   5    7.64    1.20
  -3   8  -5   10.14    2.04
  -3   8  -5    7.92    1.72
  -3   8  -5   10.21    2.37
  -3   8  -5    6.47    1.82
   3  -8   5    9.03    1.41
  -3   8  -5   10.51    1.89
  -3   8  -5    8.66    2.29
   3  -8   6   23.09    2.11
  -3   8  -6   26.15    2.91
  -3   8  -6   24.37    2.70
  -3   8  -6   23.05    3.46
  -3   8  -6   21.05    3.24
  -3   8  -6   22.61    3.26
  -3   8  -6   23.72    3.21
  -3   8  -6   22.03    2.26
  -3   8  -6   29.97    3.09
   3  -8   7  104.84    5.09
  -3   8  -7  109.23    7.21
  -3   8  -7  108.42    7.02
  -3   8  -7  109.47    6.87
  -3   8  -7  107.89    6.66
  -3   8  -7  125.77    6.34
   3  -7  -8   17.46    1.79
  -3   7   8   16.46    1.89
  -3   7   8   13.73    1.80
  -3   7   7    8.21    1.53
  -3   7   7    9.97    2.15
   3  -7  -7    9.98    1.52
  -3   7   7   10.91    1.81
   3  -7  -7    9.05    1.25
  -3   7   7    9.21    1.61
  -3   7   7    7.23    1.71
   3  -7  -7    7.23    1.50
   3  -7  -7    7.51    1.54
  -3   7   7    8.60    1.85
   3  -7  -6   37.92    3.40
  -3   7   6   29.21    3.56
   3  -7  -6   32.80    2.84
  -3   7   6   38.93    4.98
  -3   7   6   34.33    3.60
  -3   7   6   40.33    4.85
   3  -7  -6   28.54    3.69
   3  -7  -6   33.07    4.04
  -3   7   6   33.66    4.16
  -3   7   6   30.62    3.56
   3  -7  -5   96.23    6.20
  -3   7   5   99.59    7.48
   3  -7  -5   98.13    5.78
  -3   7   5  116.57    9.70
  -3   7   5   97.34    6.77
  -3   7   5  104.63    8.84
   3  -7  -5   86.96    7.46
   3  -7  -5   88.35    4.93
  -3   7   5  109.67    8.49
   3  -7  -5   89.66    7.51
  -3   7   5   96.09    6.97
  -3   7   4   17.79    3.17
   3  -7  -4   23.55    2.93
   3  -7  -4   19.24    2.42
  -3   7   4   19.24    2.89
  -3   7   4   22.05    4.11
   3  -7  -4   18.33    3.37
   3  -7  -4   19.50    3.57
   3  -7  -4   21.92    2.29
  -3   7   4   23.62    4.11
  -3   7   4   24.50    4.49
  -3   7   4   22.80    3.53
  -3   7   3   65.50    5.96
   3  -7  -3   65.68    5.18
  -3   7   3   65.35    6.53
   3  -7  -3   59.37    4.73
  -3   7   3   78.30    8.42
  -3   7   3   64.06    5.43
  -3   7   3   69.25    7.71
   3  -7  -3   63.20    6.77
   3  -7  -3   61.65    4.30
  -3   7   3   75.04    7.52
  -3   7   3   63.45    5.75
  -3   7   2    8.84    2.10
  -3   7   2   10.98    2.50
  -3   7   2    8.82    2.28
  -3   7   2    9.27    2.23
   3  -7  -2   10.40    1.96
   3  -7  -2    9.11    1.76
  -3   7   2   14.15    3.65
  -3   7   2    9.05    1.87
  -3   7   2    8.15    2.66
   3  -7  -2    9.19    2.73
   3  -7  -2   11.31    1.77
  -3   7   2   10.68    2.66
  -3   7   1   53.50    5.84
  -3   7   1   58.50    6.08
  -3   7   1   53.17    8.07
   3  -7  -1   49.58    4.49
  -3   7   1   50.79    5.88
   3  -7  -1   52.35    4.55
  -3   7   1   65.28    7.78
   3  -7  -1   43.34    5.93
   3  -7  -1   53.67    4.09
  -3   7   1   64.49    7.46
  -3   7   1   49.21    6.17
  -3   7   1   54.18    5.23
   3  -7   0    0.98    0.50
  -3   7   0    2.35    1.31
  -3   7   0    2.51    1.44
   3  -7   0    0.34    0.38
  -3   7   0    1.48    0.63
  -3   7   0    2.01    1.01
   3  -7   0    0.90    0.63
  -3   7   0    1.66    1.55
  -3   7   0    1.78    1.18
   3  -7   0    1.31    0.91
   3  -7   0    0.72    0.38
  -3   7   0    1.09    1.42
   3  -7   1   62.64    3.98
  -3   7  -1   63.02    6.78
  -3   7  -1   68.10    6.85
  -3   7  -1   65.65    9.47
  -3   7  -1   60.71    6.09
  -3   7  -1   64.18    6.81
   3  -7   1   56.93    4.86
  -3   7  -1   62.28    7.58
  -3   7  -1   60.53    7.23
   3  -7   1   47.65    6.44
   3  -7   1   58.71    4.49
  -3   7  -1   62.56    8.39
   3  -7   2   29.15    2.60
  -3   7  -2   28.12    4.43
  -3   7  -2   23.20    3.91
   3  -7   2   22.88    4.41
  -3   7  -2   28.58    3.88
  -3   7  -2   28.97    6.17
   3  -7   2   25.15    3.10
  -3   7  -2   31.24    5.24
  -3   7  -2   24.23    4.33
  -3   7  -2   23.12    4.44
   3  -7   2   25.09    2.84
  -3   7  -2   30.03    5.65
   3  -7   2   29.70    2.98
  -3   7  -2   24.92    3.96
   3  -7   3  108.72    5.88
  -3   7  -3  119.93    9.44
  -3   7  -3  117.94    9.10
   3  -7   3  102.73    6.83
  -3   7  -3  115.39    7.87
   3  -7   3  111.11    6.43
  -3   7  -3  122.44   10.63
  -3   7  -3  115.35   10.04
  -3   7  -3  114.75    8.61
  -3   7  -3  110.08    9.73
   3  -7   3  107.33    6.60
  -3   7  -3  120.13   12.20
   3  -7   4   20.74    2.25
  -3   7  -4   22.82    3.77
  -3   7  -4   21.16    3.49
  -3   7  -4   16.70    3.54
  -3   7  -4   18.73    3.71
   3  -7   4   22.02    2.62
  -3   7  -4   22.43    3.30
   3  -7   4   20.65    2.47
   3  -7   4   19.15    2.62
  -3   7  -4   22.10    3.31
  -3   7  -4   23.08    4.30
   3  -7   5    3.53    0.97
  -3   7  -5    3.96    1.46
  -3   7  -5    3.40    1.36
   3  -7   5    3.06    0.99
  -3   7  -5    1.45    0.68
  -3   7  -5    3.48    1.40
   3  -7   5    3.46    1.10
  -3   7  -5    2.58    1.53
  -3   7  -5    5.88    1.68
   3  -7   6  103.64    5.67
  -3   7  -6  114.07    7.79
  -3   7  -6  100.61    7.17
  -3   7  -6  104.00    9.02
   3  -7   6   93.94    5.83
  -3   7  -6  105.62    8.74
  -3   7  -6  101.99    8.39
  -3   7  -6   86.87    6.16
  -3   7  -6  126.21    8.26
   3  -7   7   50.86    3.61
  -3   7  -7   62.98    4.86
  -3   7  -7   56.27    4.49
   3  -7   7   50.96    3.83
  -3   7  -7   51.40    5.66
  -3   7  -7   52.21    5.57
  -3   7  -7   50.22    5.33
  -3   7  -7   47.49    5.06
  -3   7  -7   59.43    5.14
   3  -7   8    4.76    0.90
  -3   7  -8    5.37    1.47
   3  -7   8    6.23    1.13
  -3   7  -8    8.09    1.85
  -3   7  -8    6.77    1.61
  -3   7  -8    5.96    1.56
  -3   7  -8    6.66    1.49
  -3   6   9    8.46    1.47
   3  -6  -9    6.24    1.03
  -3   6   9    6.22    1.24
   3  -6  -8   19.43    2.33
   3  -6  -8   20.92    2.22
   3  -6  -8   18.56    1.82
  -3   6   8   18.51    3.11
  -3   6   8   19.18    2.60
  -3   6   8   13.30    1.51
  -3   6   8   20.91    3.16
   3  -6  -8   14.53    2.33
   3  -6  -8   15.73    2.43
  -3   6   8   19.96    2.74
  -3   6   8   20.05    2.70
   3  -6  -7   21.64    2.55
  -3   6   7   20.98    2.92
   3  -6  -7   19.62    2.15
  -3   6   7   24.69    3.21
  -3   6   7   14.44    1.74
  -3   6   7   22.43    3.71
   3  -6  -7   16.80    2.84
   3  -6  -7   17.57    2.81
  -3   6   7   18.95    3.04
  -3   6   7   22.05    3.87
  -3   6   7   18.68    2.85
   3  -6  -6   59.28    5.92
   3  -6  -6   61.78    4.76
  -3   6   6   55.97    5.54
   3  -6  -6   59.90    4.37
  -3   6   6   72.77    7.69
  -3   6   6   67.82    5.87
  -3   6   6   64.53    7.00
   3  -6  -6   54.46    5.65
   3  -6  -6   60.57    3.77
  -3   6   6   71.04    6.74
  -3   6   6   60.48    5.75
  -3   6   5    1.30    1.07
   3  -6  -5    1.50    0.85
  -3   6   5    2.74    1.44
  -3   6   5    1.21    1.03
   3  -6  -5    1.77    0.80
  -3   6   5    1.31    0.91
  -3   6   5    1.50    0.72
   3  -6  -5    1.19    1.08
   3  -6  -5    3.59    1.79
   3  -6  -5    2.02    0.79
  -3   6   5    2.04    1.47
   3  -6  -4  235.02   11.33
  -3   6   4  245.46   13.97
   3  -6  -4  238.95   11.09
  -3   6   4  270.47   17.00
  -3   6   4  226.83   12.75
  -3   6   4  254.53   15.96
   3  -6  -4  212.16   13.56
   3  -6  -4  208.01   13.51
   3  -6  -4  246.18   10.21
  -3   6   4  243.35   15.07
  -3   6   4  219.65   12.87
  -3   6   3  358.34   17.38
   3  -6  -3  355.94   15.57
  -3   6   3  369.32   18.76
   3  -6  -3  387.24   15.55
  -3   6   3  412.26   22.10
   3  -6  -3  349.51   19.33
  -3   6   3  364.95   17.25
  -3   6   3  396.97   21.10
   3  -6  -3  331.29   18.40
   3  -6  -3  333.55   18.50
   3  -6  -3  389.55   14.56
  -3   6   3  384.44   20.14
  -3   6   3  331.98   17.10
  -3   6   2   17.42    3.06
  -3   6   2   19.58    3.33
  -3   6   2   17.40    3.19
   3  -6  -2   15.43    2.38
  -3   6   2   15.74    4.04
  -3   6   2   16.16    3.17
   3  -6  -2   18.40    2.54
  -3   6   2   21.94    4.58
  -3   6   2   25.38    3.47
  -3   6   2   21.04    4.31
   3  -6  -2   15.56    3.57
   3  -6  -2   16.51    3.44
   3  -6  -2   20.18    3.94
   3  -6  -2   17.64    2.25
  -3   6   2   18.30    3.68
  -3   6   1   97.07    8.04
  -3   6   1   90.09    7.77
  -3   6   1   90.61   10.65
   3  -6  -1   90.27    6.12
  -3   6   1   86.49    7.87
   3  -6  -1   84.59    5.95
  -3   6   1  100.84    9.86
   3  -6  -1   76.94    7.94
  -3   6   1   91.31    6.84
  -3   6   1   95.10    9.23
   3  -6  -1   86.59    8.31
   3  -6  -1   88.52    5.47
  -3   6   1  100.19    9.00
  -3   6   1   80.12    6.82
  -3   6   0   90.16    8.13
  -3   6   0   91.40    8.05
  -3   6   0   85.13   10.62
  -3   6   0  100.59    8.38
   3  -6   0   88.86    6.13
  -3   6   0  114.06   10.40
  -3   6   0  100.97    9.40
   3  -6   0   80.39    8.17
   3  -6   0   97.45    5.79
  -3   6   0  103.93    9.13
  -3   6   0   93.08    9.81
  -3   6   0   87.85    6.99
   3  -6   1  118.57    5.76
  -3   6  -1  102.08    8.98
  -3   6  -1  105.15    8.99
  -3   6  -1  113.30    9.14
  -3   6  -1  115.70   12.53
  -3   6  -1   94.45    8.16
   3  -6   1   95.16    6.52
  -3   6  -1  111.11   10.28
  -3   6  -1  105.71    9.79
   3  -6   1   84.01    8.54
   3  -6   1   96.76    5.97
  -3   6  -1  101.35   10.72
   3  -6   2  152.06    6.95
  -3   6  -2  141.58   10.70
  -3   6  -2  122.07    9.87
  -3   6  -2  147.75   14.30
  -3   6  -2  146.67   11.92
  -3   6  -2  131.85    9.40
   3  -6   2  109.79   10.01
   3  -6   2  131.44    7.85
  -3   6  -2  128.09   10.85
   3  -6   2  120.86    7.02
  -3   6  -2  128.71    9.94
  -3   6  -2  125.17   12.46
   3  -6   3  170.24    7.64
  -3   6  -3  143.28   11.00
  -3   6  -3  149.67   10.75
  -3   6  -3  158.57   14.94
  -3   6  -3  161.49   12.61
  -3   6  -3  160.70    9.96
   3  -6   3  147.61    8.51
  -3   6  -3  145.36   10.34
  -3   6  -3  147.94   11.79
  -3   6  -3  145.94   11.62
   3  -6   3  122.11   10.78
   3  -6   3  143.65    7.84
   3  -6   3  136.85    8.46
  -3   6  -3  166.04   10.43
  -3   6  -3  159.54   14.34
   3  -6   4   33.01    2.92
  -3   6  -4   28.64    4.50
  -3   6  -4   33.79    4.67
  -3   6  -4   36.29    6.70
   3  -6   4   40.35    3.76
  -3   6  -4   32.49    5.37
   3  -6   4   30.87    3.46
  -3   6  -4   30.49    5.04
  -3   6  -4   24.76    4.39
   3  -6   4   33.49    3.28
  -3   6  -4   29.90    4.21
   3  -6   4   27.79    3.53
  -3   6  -4   29.71    4.22
  -3   6  -4   30.79    6.13
   3  -6   5   36.22    4.14
   3  -6   5   38.59    3.24
  -3   6  -5   37.10    4.99
  -3   6  -5   32.82    4.53
   3  -6   5   38.18    2.81
   3  -6   5   38.44    3.70
  -3   6  -5   31.80    4.90
  -3   6  -5   36.91    5.69
  -3   6  -5   34.09    4.72
  -3   6  -5   37.98    5.64
   3  -6   5   35.29    3.42
  -3   6  -5   34.88    6.52
   3  -6   6   13.44    1.91
  -3   6  -6   13.09    2.81
   3  -6   6   11.19    1.45
  -3   6  -6   13.14    2.62
   3  -6   6    9.21    1.75
  -3   6  -6   11.58    3.03
  -3   6  -6   13.28    3.15
  -3   6  -6   12.10    3.05
  -3   6  -6   12.30    2.78
  -3   6  -6   15.96    4.31
   3  -6   7   13.50    1.85
  -3   6  -7   17.72    2.87
   3  -6   7   13.46    1.59
  -3   6  -7   15.19    2.61
  -3   6  -7   17.86    3.51
   3  -6   7   12.73    1.99
  -3   6  -7   13.76    3.00
  -3   6  -7   12.47    2.89
  -3   6  -7   11.13    2.57
  -3   6  -7   14.85    2.17
  -3   6  -7   18.31    3.19
   3  -6   8   82.67    4.98
  -3   6  -8   91.33    5.94
  -3   6  -8   86.50    5.84
   3  -6   8   81.71    4.48
   3  -6   8   87.88    5.60
  -3   6  -8   85.10    7.61
  -3   6  -8   77.15    6.87
  -3   6  -8   75.37    6.67
  -3   6  -8   80.07    7.22
  -3   6  -8   93.95    6.96
   3  -6   9  127.98    6.20
   3  -6   9  125.20    5.71
  -3   6  -9  124.90    8.58
  -3   6  -9  131.44    8.58
  -3   6  -9  118.92    7.99
  -3   6  -9  119.23    7.81
   3  -6   9  142.76    6.98
  -3   6  -9  149.56    8.10
   3  -6  10    1.26    0.40
  -3   6 -10    2.01    0.62
   3  -5 -10   92.79    5.03
   3  -5 -10   91.50    4.35
  -3   5  10   98.04    5.26
  -3   5  10   92.93    5.31
   3  -5  -9  143.55    7.65
   3  -5  -9  148.99    6.86
   3  -5  -9  140.22    6.14
  -3   5   9  161.28    9.67
  -3   5   9  151.84    8.10
  -3   5   9  110.00    6.08
  -3   5   9  158.85    9.20
   3  -5  -9  126.84    7.38
  -3   5   9  138.03    6.79
   3  -5  -9  127.90    7.43
  -3   5   9  144.43    8.09
   3  -5  -8   76.81    5.60
  -3   5   8   75.93    5.99
   3  -5  -8   78.69    4.99
   3  -5  -8   74.43    4.52
  -3   5   8   73.33    7.24
  -3   5   8   75.25    5.98
  -3   5   8   61.93    4.38
  -3   5   8   82.30    7.22
   3  -5  -8   67.07    5.67
   3  -5  -8   73.84    5.92
  -3   5   8   67.78    4.85
  -3   5   8   73.97    6.04
   3  -5  -7   30.21    3.50
   3  -5  -7   26.96    3.02
  -3   5   7   28.13    3.57
  -3   5   7   30.71    4.87
  -3   5   7   26.73    3.65
  -3   5   7   22.48    2.56
  -3   5   7   27.74    4.41
   3  -5  -7   27.72    3.75
   3  -5  -7   28.00    3.80
   3  -5  -7   30.24    2.42
  -3   5   7   28.09    3.93
  -3   5   7   31.22    3.36
  -3   5   7   29.91    3.88
   3  -5  -7   29.04    2.87
  -3   5   7   25.91    3.69
  -3   5   6    2.16    0.67
   3  -5  -6   -0.19    0.84
   3  -5  -6    1.76    1.01
   3  -5  -6    1.06    0.76
  -3   5   6    0.84    0.87
  -3   5   6    1.49    1.17
   3  -5  -6    1.28    0.55
  -3   5   6    2.57    2.10
  -3   5   6    2.65    0.97
  -3   5   6    3.17    1.51
  -3   5   6    1.79    0.74
   3  -5  -6    2.26    1.18
   3  -5  -6    1.61    1.00
   3  -5  -6    0.38    0.25
  -3   5   6    1.57    0.31
  -3   5   6    0.83    0.65
  -3   5   5   15.33    2.95
   3  -5  -5   15.10    3.25
   3  -5  -5   15.19    2.31
  -3   5   5   12.90    2.64
   3  -5  -5   16.17    2.33
  -3   5   5   11.64    2.54
  -3   5   5   10.66    2.75
  -3   5   5   13.19    1.99
   3  -5  -5   11.11    2.62
   3  -5  -5   15.07    3.06
   3  -5  -5   13.33    3.04
  -3   5   5   15.60    3.31
  -3   5   5   15.35    3.56
  -3   5   5   13.92    2.31
   3  -5  -4  456.96   18.28
  -3   5   4  442.52   21.05
  -3   5   4  498.10   25.06
  -3   5   4  459.37   20.71
   3  -5  -4  442.13   21.87
  -3   5   4  471.11   23.75
   3  -5  -4  446.56   21.29
   3  -5  -4  447.35   21.31
  -3   5   4  486.82   22.98
   3  -5  -4  487.23   18.29
  -3   5   4  432.12   20.64
   3  -5  -3  617.30   23.48
  -3   5   3  649.88   27.31
   3  -5  -3  689.74   23.72
  -3   5   3  697.85   30.95
  -3   5   3  630.05   25.96
   3  -5  -3  600.90   27.20
  -3   5   3  682.98   29.81
   3  -5  -3  611.01   27.02
   3  -5  -3  608.76   26.97
  -3   5   3  661.42   28.81
  -3   5   3  596.27   25.99
  -3   5   2  461.76   20.74
  -3   5   2  453.63   25.45
   3  -5  -2  460.48   18.26
  -3   5   2  478.08   21.89
   3  -5  -2  502.82   18.48
  -3   5   2  548.39   25.44
  -3   5   2  454.44   20.18
   3  -5  -2  425.72   21.42
  -3   5   2  497.36   23.84
   3  -5  -2  453.83   21.70
   3  -5  -2  458.03   21.83
  -3   5   2  505.06   23.48
   3  -5  -2  412.17   29.59
  -3   5   2  509.27   32.49
   3  -5  -2  530.37   34.48
  -3   5   2  531.54   32.57
  -3   5   2  472.98   30.54
  -3   5   2  524.43   31.91
  -3   5   2  416.82   20.09
  -3   5   2  486.09   29.66
   3  -5  -2  401.81   26.41
  -3   5   1  820.62   33.55
  -3   5   1  870.74   33.88
  -3   5   1  845.64   39.67
   3  -5  -1  883.61   30.64
  -3   5   1  794.96   33.99
   3  -5  -1  917.62   30.78
  -3   5   1 1046.29   38.97
  -3   5   1  870.55   32.49
   3  -5  -1  834.57   34.21
  -3   5   1  935.99   37.01
   3  -5  -1  816.92   34.41
   3  -5  -1  807.12   34.49
   3  -5  -1 1021.11   30.23
  -3   5   1  945.72   36.57
   3  -5  -1  795.56   45.20
  -3   5   1  935.36   46.81
   3  -5  -1  918.50   49.09
  -3   5   1  918.86   46.31
  -3   5   1  895.41   45.11
  -3   5   1  963.51   46.04
  -3   5   1  772.27   32.37
  -3   5   1  889.75   43.66
   3  -5  -1  729.28   40.16
  -3   5   0  325.30   16.71
  -3   5   0  330.06   16.77
  -3   5   0  345.74   21.65
  -3   5   0  324.59   16.79
   3  -5   0  325.82   13.72
  -3   5   0  373.90   19.62
  -3   5   0  326.88   14.91
   3  -5   0  315.01   16.54
  -3   5   0  330.72   18.15
   3  -5   0  295.31   16.88
   3  -5   0  361.48   13.26
  -3   5   0  329.82   17.78
   3  -5   0  341.56   14.14
   3  -5   0  274.39   24.09
  -3   5   0  283.66   18.31
  -3   5   0  317.62   24.20
   3  -5   0  324.23   27.43
  -3   5   0  304.17   23.76
  -3   5   0  334.54   24.07
  -3   5   0  341.46   24.19
  -3   5   0  278.76   14.80
  -3   5   0  313.39   22.69
   3  -5   0  263.83   20.95
  -3   5  -1  303.46   16.36
  -3   5  -1  284.92   15.86
  -3   5  -1  308.01   20.82
  -3   5  -1  301.52   15.89
   3  -5   1  298.29   13.00
  -3   5  -1  312.51   17.46
   3  -5   1  262.91   16.05
   3  -5   1  327.95   12.55
  -3   5  -1  327.93   17.36
   3  -5   1  370.50   13.99
   3  -5   1  319.08   13.56
   3  -5   1  227.52   22.38
  -3   5  -1  287.28   18.77
  -3   5  -1  290.54   23.05
   3  -5   1  354.81   21.85
   3  -5   1  313.61   27.93
  -3   5  -1  325.02   18.25
  -3   5  -1  263.16   22.02
  -3   5  -1  282.08   22.13
  -3   5  -1  316.90   23.06
  -3   5  -1  260.40   13.96
  -3   5  -1  279.09   21.35
   3  -5   1  220.74   19.56
  -3   5  -2  175.61   16.71
  -3   5  -2  182.79   12.72
  -3   5  -2  187.18   12.29
  -3   5  -2  160.78   11.42
  -3   5  -2  192.53   15.96
  -3   5  -2  170.46   10.86
   3  -5   2  177.37    9.08
  -3   5  -2  203.41   13.68
   3  -5   2  145.90   11.40
   3  -5   2  187.22    8.59
  -3   5  -2  172.80   11.63
   3  -5   2  188.53    9.63
   3  -5   2  223.13   10.00
   3  -5   2  132.01   17.11
  -3   5  -2  169.28   14.14
  -3   5  -2  159.11   16.64
   3  -5   2  179.63   21.88
  -3   5  -2  151.78   16.43
  -3   5  -2  167.85   16.53
  -3   5  -2  170.09   16.50
  -3   5  -2  144.98   15.01
  -3   5  -3   35.17    7.15
   3  -5   3   56.55    3.68
  -3   5  -3   51.15    5.94
  -3   5  -3   45.29    5.43
  -3   5  -3   41.46    7.14
  -3   5  -3   36.88    5.82
  -3   5  -3   45.81    4.99
   3  -5   3   44.98    4.07
  -3   5  -3   47.14    6.37
  -3   5  -3   47.20    6.01
  -3   5  -3   41.51    5.76
   3  -5   3   34.28    5.12
   3  -5   3   47.07    3.74
  -3   5  -3   38.87    5.08
  -3   5  -3   46.86    5.14
   3  -5   3   42.92    4.19
   3  -5   3   62.44    4.83
   3  -5   3   35.84    9.16
  -3   5  -3   36.86    6.57
  -3   5  -3   38.08    8.04
   3  -5   3   53.02   12.15
  -3   5  -3   38.79    8.31
  -3   5  -3   35.65    7.44
  -3   5  -3   45.22    8.28
  -3   5  -3   39.63    7.42
   3  -5   4  193.17    8.27
  -3   5  -4  171.18   11.83
  -3   5  -4  164.32   11.24
  -3   5  -4  166.98   14.79
  -3   5  -4  166.76   10.06
  -3   5  -4  184.10   13.24
  -3   5  -4  165.69   12.36
  -3   5  -4  144.22   11.53
   3  -5   4  161.29    8.32
  -3   5  -4  156.46   10.74
   3  -5   4  165.19    9.59
  -3   5  -4  167.00   11.05
   3  -5   4  190.85    9.92
  -3   5  -4  174.37   14.99
   3  -5   5   97.40    5.54
  -3   5  -5   83.79    7.82
  -3   5  -5   90.16    7.72
   3  -5   5  113.19    5.39
   3  -5   5   90.14    6.29
  -3   5  -5   88.83    8.99
  -3   5  -5   82.70    8.49
  -3   5  -5   76.97    8.11
   3  -5   5   82.26    6.21
  -3   5  -5   82.02    7.26
  -3   5  -5   95.31   12.70
   3  -5   5   79.18    6.52
  -3   5  -5   90.56    7.93
   3  -5   5   92.44    6.85
  -3   5  -5   79.15   10.11
   3  -5   6   97.56    5.69
  -3   5  -6   97.72    8.14
  -3   5  -6   90.54    7.67
   3  -5   6  103.30    5.40
   3  -5   6  101.38    6.64
  -3   5  -6  100.60    9.62
  -3   5  -6   90.30    8.94
  -3   5  -6   84.36    8.41
  -3   5  -6  128.94   15.32
   3  -5   6   90.70    7.15
  -3   5  -6  101.89    8.52
  -3   5  -6   93.29   10.61
   3  -5   7  129.29    6.83
  -3   5  -7  125.86    8.86
  -3   5  -7  127.02    8.74
   3  -5   7  131.56    6.39
   3  -5   7  123.53    7.55
  -3   5  -7  115.13   10.23
  -3   5  -7  129.80   10.54
  -3   5  -7  117.89    9.92
  -3   5  -7  105.42    9.14
  -3   5  -7  114.07    7.44
  -3   5  -7  127.67   15.49
   3  -5   7  115.93    8.36
  -3   5  -7  143.82   10.03
  -3   5  -7  132.05   12.32
   3  -5   8  261.74   11.33
  -3   5  -8  281.84   13.31
  -3   5  -8  259.31   13.06
   3  -5   8  280.34   10.98
   3  -5   8  264.18   12.40
   3  -5   8  248.88   12.02
  -3   5  -8  269.06   16.05
  -3   5  -8  268.11   15.68
  -3   5  -8  238.48   14.67
  -3   5  -8  242.14   14.40
  -3   5  -8  285.89   14.71
  -3   5  -8  304.33   13.52
   3  -5   9  163.93    7.67
   3  -5   9  164.19    7.36
   3  -5   9  148.89    7.95
  -3   5  -9  148.75   10.63
  -3   5  -9  143.37   10.26
  -3   5  -9  145.00    9.91
  -3   5  -9  131.99    9.36
   3  -5   9  169.55    8.64
  -3   5  -9  181.01   10.15
  -3   5  -9  184.78    9.16
   3  -5  10    2.39    0.65
   3  -5  10    1.31    0.47
   3  -5  10    2.89    0.92
  -3   5 -10    1.86    0.32
  -3   5 -10    1.16    0.81
  -3   5 -10    1.39    0.83
  -3   5 -10    1.90    0.88
  -3   5 -10    3.15    1.06
   3  -4 -11  284.99    9.81
  -3   4  11  195.99    8.22
   3  -4 -10  120.35    6.75
   3  -4 -10  118.70    5.75
   3  -4 -10  118.34    5.20
  -3   4  10  126.72    7.26
  -3   4  10  127.60    6.92
   3  -4 -10  127.42    6.54
  -3   4  10  112.09    6.13
  -3   4  10  125.05    7.03
   3  -4  -9  417.06   16.94
   3  -4  -9  421.02   15.52
  -3   4   9  455.13   18.29
   3  -4  -9  438.13   15.14
  -3   4   9  431.25   19.92
  -3   4   9  404.99   17.25
  -3   4   9  422.85   19.09
  -3   4   9  333.55   14.99
   3  -4  -9  367.47   16.52
   3  -4  -9  443.74   16.92
   3  -4  -9  383.39   16.61
  -3   4   9  372.95   16.07
  -3   4   9  417.38   17.65
   3  -4  -8  162.45    9.30
   3  -4  -8  175.10    8.55
  -3   4   8  173.77   12.30
  -3   4   8  186.74   10.84
  -3   4   8  153.31    9.71
  -3   4   8  160.64   11.33
  -3   4   8  143.78    8.01
   3  -4  -8  152.86    9.50
   3  -4  -8  182.41    9.59
   3  -4  -8  160.43    9.61
  -3   4   8  151.47    8.89
  -3   4   8  169.77   10.19
   3  -4  -7  125.31   10.41
   3  -4  -7  138.18    8.49
   3  -4  -7  138.87    7.69
   3  -4  -7  137.65    9.11
  -3   4   7  129.71   10.97
  -3   4   7  132.93    9.15
  -3   4   7  139.35   10.82
   3  -4  -7  131.95    9.01
  -3   4   7  142.40    9.68
  -3   4   7  141.88    9.74
  -3   4   7  120.76    7.94
  -3   4   7  138.12    9.35
   3  -4  -6   72.66    7.52
   3  -4  -6   78.85    6.05
   3  -4  -6   79.72    5.51
  -3   4   6   85.81    6.89
  -3   4   6   82.82    7.27
  -3   4   6   87.00    8.94
  -3   4   6   79.74    6.86
   3  -4  -6   71.95    7.20
  -3   4   6   74.61    7.88
   3  -4  -6   77.06    6.79
   3  -4  -6   76.09    6.68
  -3   4   6   83.27    7.45
  -3   4   6   73.70    5.91
  -3   4   6   72.14    6.69
   3  -4  -5  144.01   10.85
   3  -4  -5  162.48    8.39
  -3   4   5  154.27   10.02
  -3   4   5  169.00   10.74
  -3   4   5  158.56   12.42
  -3   4   5  151.30   10.02
  -3   4   5  157.07   11.75
   3  -4  -5  152.05   10.71
   3  -4  -5  151.40   10.09
   3  -4  -5  158.82   10.18
  -3   4   5  153.29   10.83
  -3   4   5  145.38    8.85
  -3   4   5  152.46   10.17
  -3   4   4    3.75    1.51
   3  -4  -4    2.71    1.08
   3  -4  -4    3.85    1.53
   3  -4  -4    4.21    1.06
  -3   4   4    7.34    2.00
  -3   4   4    6.37    1.87
  -3   4   4    7.19    2.42
  -3   4   4    5.96    1.86
  -3   4   4    8.68    2.66
  -3   4   4    5.63    1.19
   3  -4  -4    5.16    1.66
   3  -4  -4    7.37    2.02
   3  -4  -4    3.99    1.53
  -3   4   4    6.13    2.08
   3  -4  -4    4.08    2.81
  -3   4   4    8.84    3.76
   3  -4  -4    4.30    2.32
  -3   4   4    6.39    1.58
   3  -4  -4    4.22    2.49
  -3   4   4    6.35    3.12
  -3   4   4    7.52    3.79
  -3   4   4    9.04    3.67
  -3   4   3   11.79    2.40
   3  -4  -3    8.97    2.84
   3  -4  -3    9.54    2.44
   3  -4  -3   10.85    1.80
  -3   4   3    7.42    2.37
  -3   4   3   13.36    2.86
  -3   4   3   12.19    2.61
  -3   4   3   13.97    3.28
  -3   4   3   12.42    2.30
  -3   4   3   13.39    3.11
   3  -4  -3   12.41    2.39
   3  -4  -3   11.23    2.36
   3  -4  -3   14.38    2.87
  -3   4   3    9.71    2.35
   3  -4  -3   10.87    3.39
  -3   4   3    7.78    3.09
   3  -4  -3    7.55    2.87
  -3   4   3   10.31    1.91
  -3   4   3   17.10    4.85
  -3   4   3   11.98    3.91
  -3   4   3   12.71    3.41
   3  -4  -2  117.20   11.53
  -3   4   2  126.91   11.10
   3  -4  -2  128.30    6.91
  -3   4   2  136.14    9.28
  -3   4   2  158.35   11.23
  -3   4   2  122.22    8.29
   3  -4  -2  117.72    8.58
  -3   4   2  123.37    9.74
   3  -4  -2  129.84    9.01
   3  -4  -2  118.85    8.63
  -3   4   2  126.10    9.64
   3  -4  -2  110.11    7.50
   3  -4  -2  124.83    7.54
   3  -4  -2  128.22   13.54
  -3   4   2  134.81   14.20
   3  -4  -2  134.76   14.41
  -3   4   2  134.73   13.96
  -3   4   2  134.96   13.90
  -3   4   2  132.43   13.76
  -3   4   2  124.13    8.47
  -3   4   2  142.78   13.38
  -3   4   1  622.34   25.37
  -3   4   1  651.80   30.68
  -3   4   1  727.76   27.10
   3  -4  -1  694.87   23.00
   3  -4  -1  682.10   26.05
  -3   4   1  698.00   28.00
  -3   4   1  599.98   24.39
   3  -4  -1  581.24   23.69
   3  -4  -1  575.17   23.89
   3  -4  -1  636.37   23.66
   3  -4  -1  587.39   33.61
  -3   4   1  669.27   35.01
   3  -4  -1  705.74   37.52
  -3   4   1  701.45   35.38
  -3   4   1  654.89   33.96
  -3   4   1  720.19   35.13
  -3   4   1  559.69   24.43
  -3   4   1  649.66   32.70
   3  -4  -1  542.70   29.86
  -3   4   0  374.59   17.76
   3  -4   0  407.22   16.27
  -3   4   0  385.18   17.78
  -3   4   0  382.30   22.03
  -3   4   0  375.20   17.89
   3  -4   0  418.07   15.12
   3  -4   0  362.15   17.04
  -3   4   0  402.14   19.20
   3  -4   0  375.15   15.87
   3  -4   0  384.98   15.75
   3  -4   0  337.51   24.35
  -3   4   0  348.62   19.51
  -3   4   0  393.25   24.92
   3  -4   0  456.37   22.56
   3  -4   0  402.70   27.84
  -3   4   0  372.95   24.28
  -3   4   0  387.34   24.16
  -3   4   0  416.26   24.73
  -3   4   0  316.14   16.05
  -3   4   0  374.86   23.00
   3  -4   0  291.08   20.65
  -3   4  -1   18.80    2.77
   3  -4   1   11.02    3.45
  -3   4  -1   22.79    3.56
   3  -4   1   23.64    2.27
  -3   4  -1   20.82    3.32
  -3   4  -1   21.54    3.37
  -3   4  -1   19.49    4.44
   3  -4   1   18.70    2.54
  -3   4  -1   19.02    3.45
   3  -4   1   21.38    2.69
   3  -4   1   21.88    2.74
   3  -4   1   22.75    2.74
   3  -4   1   20.35    5.70
  -3   4  -1   21.01    5.11
   3  -4   1   20.95    6.20
  -3   4  -1   19.77    3.94
  -3   4  -1   18.41    4.80
  -3   4  -1   18.33    4.55
  -3   4  -1   17.15    4.45
  -3   4  -1   20.43    4.88
  -3   4  -2    8.71    3.23
  -3   4  -2    9.57    2.58
  -3   4  -2    7.78    2.14
  -3   4  -2   10.28    3.09
  -3   4  -2   10.02    2.21
   3  -4   2   10.16    1.57
  -3   4  -2    6.55    1.97
  -3   4  -2    9.68    2.46
   3  -4   2    5.43    1.63
   3  -4   2    9.38    1.44
  -3   4  -2   12.36    2.81
   3  -4   2   10.14    1.83
   3  -4   2   11.73    1.97
   3  -4   2   12.07    1.96
   3  -4   2   10.27    1.87
   3  -4   2    6.38    2.90
  -3   4  -2    5.09    2.47
   3  -4   2    4.82    3.33
  -3   4  -2   10.85    3.09
  -3   4  -2    9.50    3.52
  -3   4  -2    8.78    3.37
  -3   4  -2   10.73    3.63
  -3   4  -2    8.02    3.02
  -3   4  -3   21.24    5.14
  -3   4  -3   13.61    2.93
  -3   4  -3   15.89    3.07
  -3   4  -3   21.57    3.27
  -3   4  -3   17.12    4.31
  -3   4  -3   13.83    3.34
  -3   4  -3   18.25    3.71
  -3   4  -3   18.76    3.62
  -3   4  -3   15.49    3.19
   3  -4   3   15.40    3.05
   3  -4   3   20.84    2.71
   3  -4   3   19.14    2.09
   3  -4   3   26.03    3.02
   3  -4   3   20.15    2.73
  -3   4  -3   19.71    3.34
  -3   4  -3   19.48    3.14
   3  -4   3   12.47    5.04
  -3   4  -3   18.10    4.93
   3  -4   3   18.46    6.59
  -3   4  -3   21.77    4.64
  -3   4  -3   14.17    4.43
  -3   4  -3   19.37    4.97
  -3   4  -3   23.25    5.65
  -3   4  -3   14.63    4.16
  -3   4  -4    2.08    1.39
   3  -4   4    7.27    1.26
  -3   4  -4    5.70    1.61
  -3   4  -4    7.24    2.07
  -3   4  -4    7.37    2.96
  -3   4  -4    5.55    2.06
  -3   4  -4    5.92    1.68
  -3   4  -4    4.48    1.59
  -3   4  -4    3.34    1.43
  -3   4  -4    4.69    1.85
   3  -4   4    7.92    1.68
  -3   4  -4   10.31    3.28
   3  -4   4    9.56    1.90
  -3   4  -4    4.68    1.25
   3  -4   4    5.98    1.56
   3  -4   4    5.25    3.36
  -3   4  -4    6.94    3.45
   3  -4   4    3.31    3.06
  -3   4  -4    6.44    2.01
  -3   4  -4    7.10    2.51
  -3   4  -4    4.66    2.09
  -3   4  -4    7.05    3.04
  -3   4  -4    3.69    2.01
  -3   4  -4    4.95    2.82
  -3   4  -5  176.91   17.35
   3  -4   5  272.17   10.52
  -3   4  -5  246.97   14.38
  -3   4  -5  233.10   13.66
  -3   4  -5  237.38   15.46
  -3   4  -5  231.30   14.94
  -3   4  -5  238.44   14.92
   3  -4   5  270.55   12.27
  -3   4  -5  232.94   13.37
  -3   4  -5  276.82   22.28
  -3   4  -5  259.38   14.47
   3  -4   5  252.89   12.49
   3  -4   5  315.47   13.30
   3  -4   5  154.56   19.55
  -3   4  -5  255.04   18.31
  -3   4  -5  201.66   19.10
   3  -4   5  203.70   25.74
  -3   4  -5  209.49   19.47
  -3   4  -5  198.06   18.37
  -3   4  -5  226.68   19.52
  -3   4  -5  193.73   17.70
   3  -4   6    0.52    0.31
  -3   4  -6    2.27    1.28
   3  -4   6    1.74    0.80
  -3   4  -6    1.09    0.98
   3  -4   6    0.77    0.72
  -3   4  -6    0.46    0.63
  -3   4  -6    0.02    0.82
  -3   4  -6    0.44    0.94
   3  -4   6    1.25    0.69
  -3   4  -6    0.33    1.63
   3  -4   6    1.31    0.91
  -3   4  -6    1.51    0.93
   3  -4   6    1.95    0.70
  -3   4  -6   -0.17    0.99
   3  -4   7    4.20    1.11
  -3   4  -7    4.58    1.56
   3  -4   7    3.83    0.93
  -3   4  -7    4.52    1.55
   3  -4   7    4.42    1.22
  -3   4  -7    3.60    1.27
  -3   4  -7    3.46    1.47
  -3   4  -7    1.99    1.10
  -3   4  -7    4.41    1.95
   3  -4   7    4.12    1.29
  -3   4  -7    2.11    0.67
  -3   4  -7    2.09    0.92
  -3   4  -7    4.34    1.83
   3  -4   7    3.76    1.26
  -3   4  -7    2.99    1.83
  -3   4  -7    4.46    1.41
   3  -4   8   62.86    4.48
  -3   4  -8   75.23    6.18
  -3   4  -8   70.37    6.09
   3  -4   8   75.17    4.56
   3  -4   8   66.75    5.34
   3  -4   8   63.73    5.49
  -3   4  -8   67.77    7.56
  -3   4  -8   64.45    7.20
  -3   4  -8   64.82    6.97
   3  -4   8   63.73    5.71
  -3   4  -8   59.81    6.49
  -3   4  -8   83.18   12.53
   3  -4   8   63.48    6.01
  -3   4  -8   73.59    6.93
  -3   4  -8   68.24    6.00
   3  -4   9   26.62    2.67
   3  -4   9   29.12    2.64
  -3   4  -9   35.25    3.66
   3  -4   9   25.82    3.22
   3  -4   9   31.07    3.44
  -3   4  -9   25.15    4.24
  -3   4  -9   25.25    4.21
  -3   4  -9   26.33    4.09
  -3   4  -9   19.10    3.36
  -3   4  -9   33.89    4.25
  -3   4  -9   30.49    3.66
   3  -4  10   39.42    3.00
   3  -4  10   34.41    2.88
  -3   4 -10   48.48    3.92
   3  -4  10   36.51    3.53
   3  -4  10   33.95    3.45
  -3   4 -10   32.34    4.36
  -3   4 -10   38.77    4.66
  -3   4 -10   33.15    4.10
  -3   4 -10   32.42    3.99
  -3   4 -10   37.18    3.99
  -3   4 -10   42.54    3.94
   3  -4  11   10.77    1.37
  -3   4 -11   12.98    1.60
   3  -4  11    8.98    1.51
   3  -4  11    8.04    1.33
  -3   4 -11    7.17    1.71
  -3   4 -11    9.41    1.91
  -3   4 -11    9.50    1.77
  -3   4 -11   11.29    1.92
  -3   4 -11   12.21    1.86
  -3   4 -11   14.20    1.83
  -3   3  11    0.20    0.33
   3  -3 -11    1.37    0.51
  -3   3  11    2.70    1.24
   3  -3 -11    1.02    0.37
  -3   3  11    1.10    0.44
  -3   3  11    1.02    0.49
   3  -3 -11    2.07    0.62
  -3   3  11    0.88    0.48
   3  -3 -10   44.54    3.97
   3  -3 -10   42.86    3.17
  -3   3  10   46.97    4.53
  -3   3  10   43.26    3.91
  -3   3  10   34.88    3.07
   3  -3 -10   41.06    3.77
  -3   3  10   39.07    3.60
  -3   3  10   42.65    4.01
  -3   3   9    6.54    1.62
   3  -3  -9    5.98    1.57
   3  -3  -9    5.04    1.09
  -3   3   9    5.41    1.87
  -3   3   9    8.89    2.60
  -3   3   9    4.28    1.17
  -3   3   9    4.42    1.26
  -3   3   9    4.17    1.03
   3  -3  -9    3.77    1.13
   3  -3  -9    3.19    1.10
   3  -3  -9    5.47    1.22
  -3   3   9    4.70    1.31
  -3   3   8    8.15    2.01
   3  -3  -8   10.60    2.78
   3  -3  -8    7.57    1.80
  -3   3   8   11.92    2.70
   3  -3  -8    9.56    1.82
  -3   3   8   11.28    3.01
  -3   3   8    9.27    2.22
  -3   3   8    9.74    2.67
   3  -3  -8   10.16    2.52
   3  -3  -8   10.96    2.23
   3  -3  -8   10.05    2.11
   3  -3  -8    7.43    2.57
  -3   3   8   11.17    2.14
  -3   3   7   13.73    2.68
   3  -3  -7   10.33    2.80
   3  -3  -7   13.91    2.44
   3  -3  -7   12.72    2.98
  -3   3   7   11.96    2.74
  -3   3   7   13.69    3.57
  -3   3   7   13.29    2.59
  -3   3   7    7.76    2.19
   3  -3  -7   12.98    2.48
   3  -3  -7   13.82    2.39
   3  -3  -7   13.85    2.50
   3  -3  -7   14.88    3.93
  -3   3   7   10.79    2.13
  -3   3   6    7.18    2.07
   3  -3  -6    6.84    2.07
   3  -3  -6   11.39    2.15
  -3   3   6    9.04    2.33
  -3   3   6   10.19    2.28
   3  -3  -6    9.83    2.07
   3  -3  -6   10.30    2.09
   3  -3  -6    9.42    2.46
   3  -3  -6   10.35    3.06
  -3   3   6    8.33    1.83
  -3   3   5    4.66    1.68
   3  -3  -5    4.98    2.27
   3  -3  -5    5.99    2.03
   3  -3  -5    4.79    1.35
  -3   3   5    5.07    1.41
  -3   3   5    6.28    1.93
  -3   3   5    4.81    1.54
  -3   3   5    5.06    1.50
   3  -3  -5    6.97    2.05
  -3   3   5    5.18    1.51
   3  -3  -5    7.51    2.71
   3  -3  -4   96.25    9.31
   3  -3  -4   83.72    7.23
  -3   3   4   73.67    7.63
  -3   3   4  103.59    7.48
  -3   3   4  101.44    7.72
  -3   3   4   92.89    7.11
   3  -3  -4   97.86    7.66
  -3   3   4  102.43    8.00
   3  -3  -4  103.86   10.97
  -3   3   4  112.19   12.64
  -3   3   4   90.15    6.38
   3  -3  -4  103.56   11.23
   3  -3  -4   86.05    9.37
  -3   3   4  110.82   12.25
   3  -3  -4   98.85    6.78
  -3   3   4  117.33   12.74
  -3   3   4   91.17    7.18
  -3   3   4  110.44   11.41
   3  -3  -3  144.89   11.43
   3  -3  -3  133.98    8.95
  -3   3   3  117.98    9.86
  -3   3   3  142.17    8.92
   3  -3  -3  151.16    9.42
   3  -3  -3  159.47   13.58
  -3   3   3  162.66   14.80
   3  -3  -3  172.33   14.31
   3  -3  -3  122.43   11.14
  -3   3   3  167.65   14.53
   3  -3  -3  144.54    8.45
  -3   3   3  170.87   14.72
  -3   3   3  141.87    9.01
  -3   3   3  168.39   13.64
   3  -3  -2  405.91   22.00
   3  -3  -2  436.58   18.62
  -3   3   2  438.57   22.31
  -3   3   2  386.46   20.80
   3  -3  -2  467.23   19.38
   3  -3  -2  455.53   25.25
  -3   3   2  487.73   26.75
   3  -3  -2  495.17   26.51
  -3   3   2  493.20   26.20
   3  -3  -2  436.00   18.09
  -3   3   2  505.98   26.46
  -3   3   2  484.16   24.82
   3  -3  -1  305.21   18.40
  -3   3   1  358.43   19.51
   3  -3  -1  346.96   15.43
   3  -3  -1  303.28   14.85
   3  -3  -1  333.48   21.10
  -3   3   1  339.12   17.37
  -3   3   1  375.36   22.18
   3  -3  -1  373.77   22.65
  -3   3   1  380.65   22.13
  -3   3   1  369.83   21.46
  -3   3   1  403.00   22.12
  -3   3   1  374.37   20.70
   3  -3   0   52.64    4.67
  -3   3   0   63.98    7.37
   3  -3   0   55.33    4.69
   3  -3   0   50.38    4.48
   3  -3   0   56.78    7.94
   3  -3   0   51.01    4.30
  -3   3   0   55.62    6.18
  -3   3   0   54.32    7.53
   3  -3   0   59.67    8.73
  -3   3   0   48.08    6.99
  -3   3   0   57.31    7.47
  -3   3   0   56.22    7.27
  -3   3   0   61.19    7.24
   3  -3   0   43.86    6.13
   3  -3   1   20.66    4.23
   3  -3   1   27.74    3.11
  -3   3  -1   27.63    4.83
   3  -3   1   26.21    3.01
   3  -3   1   29.41    3.18
   3  -3   1   30.41    3.16
   3  -3   1   23.54    5.14
  -3   3  -1   25.34    4.35
  -3   3  -1   25.84    5.14
   3  -3   1   23.49    5.91
  -3   3  -1   25.48    5.00
  -3   3  -1   32.27    5.48
  -3   3  -1   32.20    5.43
  -3   3  -1   26.91    4.79
  -3   3  -2   54.02    7.36
   3  -3   2   59.44    4.60
  -3   3  -2   56.82    7.29
  -3   3  -2   46.95    5.87
   3  -3   2   59.10    4.71
   3  -3   2   65.03    4.76
   3  -3   2   58.98    4.54
   3  -3   2   60.77    4.60
   3  -3   2   38.14    7.14
  -3   3  -2   55.18    6.82
  -3   3  -2   51.79    7.48
   3  -3   2   59.74   10.07
  -3   3  -2   45.71    7.11
  -3   3  -2   59.91    7.80
  -3   3  -2   63.96    8.08
  -3   3  -2   46.16    6.59
  -3   3  -3   59.40    7.97
  -3   3  -3   59.66    7.74
  -3   3  -3   54.10    6.33
   3  -3   3   70.89    5.14
  -3   3  -3   68.21    9.03
   3  -3   3   85.44    5.50
   3  -3   3   70.18    5.06
   3  -3   3   75.79    5.11
   3  -3   3   40.62    7.96
  -3   3  -3   57.68    7.34
  -3   3  -3   69.44    9.13
   3  -3   3   59.72   10.89
  -3   3  -3   54.40    8.16
  -3   3  -3   68.86    8.68
  -3   3  -3   64.91    8.37
  -3   3  -3   53.37    7.52
  -3   3  -4   26.08    5.64
  -3   3  -4   32.26    4.28
  -3   3  -4   30.63    4.05
  -3   3  -4   29.41    5.36
  -3   3  -4   26.45    4.24
   3  -3   4   39.35    3.75
  -3   3  -4   27.78    3.86
  -3   3  -4   33.75    6.88
  -3   3  -4   32.36    4.18
   3  -3   4   46.08    4.00
   3  -3   4   38.41    3.69
   3  -3   4   21.14    5.73
  -3   3  -4   33.50    5.66
  -3   3  -4   35.34    6.57
   3  -3   4   21.13    7.22
  -3   3  -4   23.44    5.54
  -3   3  -4   22.18    4.90
  -3   3  -4   27.46    5.61
  -3   3  -4   26.25    5.54
  -3   3  -5    2.33    2.21
   3  -3   5    2.05    0.68
  -3   3  -5    2.08    0.96
  -3   3  -5    0.22    0.37
  -3   3  -5    2.81    1.12
  -3   3  -5    2.32    0.78
  -3   3  -5    0.50    0.71
  -3   3  -5    0.94    1.24
  -3   3  -5    1.91    0.89
   3  -3   5    1.05    0.66
  -3   3  -5    0.85    1.57
   3  -3   5    2.90    0.98
  -3   3  -5    0.91    0.62
   3  -3   5    1.30    0.70
  -3   3  -5    1.90    1.44
   3  -3   5    0.51    3.70
  -3   3  -5    2.87    2.26
  -3   3  -5   -0.55    1.63
  -3   3  -5    2.22    1.07
  -3   3  -5    0.42    1.56
  -3   3  -6    3.47    2.40
   3  -3   6    4.41    0.94
  -3   3  -6    3.29    1.37
  -3   3  -6    4.02    1.41
  -3   3  -6    1.55    0.80
  -3   3  -6    2.93    1.57
   3  -3   6    5.17    1.55
  -3   3  -6    3.33    1.35
  -3   3  -6    5.06    3.48
   3  -3   6    5.77    1.63
  -3   3  -6    4.75    1.72
   3  -3   6    3.63    1.40
  -3   3  -6    3.84    2.27
  -3   3  -6    2.58    2.13
   3  -3   6   -2.42    5.26
  -3   3  -6    4.72    2.06
  -3   3  -6    2.98    1.74
   3  -3   6    4.63    1.51
  -3   3  -6    6.45    2.86
  -3   3  -6    2.70    1.21
  -3   3  -6    2.05    0.73
   3  -3   6    2.09    2.20
  -3   3  -6    1.95    1.79
   3  -3   7   15.68    1.98
  -3   3  -7   18.74    3.21
   3  -3   7   23.13    2.33
  -3   3  -7   19.29    3.23
   3  -3   7   15.64    2.44
  -3   3  -7   16.08    2.61
  -3   3  -7   18.85    4.04
  -3   3  -7   18.79    3.89
  -3   3  -7   14.98    3.47
   3  -3   7   19.57    2.94
  -3   3  -7   16.05    3.50
  -3   3  -7   18.29    5.77
   3  -3   7   17.71    2.94
  -3   3  -7   16.72    3.23
   3  -3   7   14.35    2.57
  -3   3  -7   14.50    4.11
  -3   3  -7   19.40    3.18
   3  -3   8  235.88   10.47
  -3   3  -8  259.10   13.30
  -3   3  -8  231.07   12.93
   3  -3   8  269.28   10.66
  -3   3  -8  282.11   13.30
   3  -3   8  228.48   11.79
  -3   3  -8  225.46   15.35
  -3   3  -8  225.58   14.92
  -3   3  -8  206.97   14.20
   3  -3   8  250.10   12.95
  -3   3  -8  210.06   13.88
  -3   3  -8  268.81   23.73
   3  -3   8  224.38   12.85
  -3   3  -8  255.01   14.59
  -3   3  -8  262.76   13.61
   3  -3   9   28.20    2.76
   3  -3   9   27.20    2.65
  -3   3  -9   29.62    7.15
  -3   3  -9   29.21    3.62
   3  -3   9   22.73    3.24
   3  -3   9   27.34    3.31
  -3   3  -9   23.75    4.29
  -3   3  -9   27.31    4.44
  -3   3  -9   25.46    4.23
   3  -3   9   26.12    3.64
  -3   3  -9   21.76    3.76
   3  -3   9   25.67    3.77
  -3   3  -9   30.54    4.21
   3  -3   9   28.71    2.60
  -3   3  -9   32.12    4.02
   3  -3  10    9.32    1.56
   3  -3  10    8.10    1.75
  -3   3 -10    9.40    1.91
   3  -3  10    9.82    1.99
  -3   3 -10    9.83    2.52
  -3   3 -10   10.11    2.60
  -3   3 -10   10.86    2.41
  -3   3 -10    7.57    2.30
  -3   3 -10   10.28    2.16
   3  -3  10    9.91    1.38
  -3   3 -10   10.40    2.11
   3  -3  11    6.34    1.14
   3  -3  11    5.08    1.12
  -3   3 -11    6.86    1.36
   3  -3  11    7.06    1.55
  -3   3 -11    5.36    1.63
  -3   3 -11    6.28    1.78
  -3   3 -11    7.52    1.76
  -3   3 -11    5.11    1.44
  -3   3 -11    6.22    1.47
  -3   3 -11    5.93    1.32
   3  -3  12    2.11    0.53
  -3   3 -12    2.13    0.63
   3  -3  12    2.38    0.67
  -3   3 -12    2.64    0.68
   3  -2 -12   15.25    1.67
  -3   2  12   15.62    1.88
  -3   2  12   11.43    1.40
   3  -2 -11    2.65    0.84
  -3   2  11    2.08    0.83
   3  -2 -11    1.73    0.47
  -3   2  11    2.13    0.64
   3  -2 -11    2.80    0.80
  -3   2  11    2.59    0.86
   3  -2 -10   44.34    4.10
   3  -2 -10   41.81    3.25
  -3   2  10   43.48    4.63
  -3   2  10   45.33    3.98
  -3   2  10   38.34    3.39
   3  -2 -10   40.96    4.02
  -3   2  10   37.29    3.78
  -3   2  10   43.00    4.04
  -3   2   9  111.15    6.87
   3  -2  -9  120.51    7.72
  -3   2   9  121.86    7.84
   3  -2  -9  134.24    8.22
   3  -2  -9  125.43   11.69
  -3   2   9  138.82    9.41
  -3   2   9  113.09    7.56
  -3   2   9  121.84    8.06
  -3   2   8   19.45    2.67
   3  -2  -8   20.70    3.88
   3  -2  -8   19.27    2.80
  -3   2   8   23.50    3.74
  -3   2   8   18.73    2.97
   3  -2  -8   22.73    3.88
   3  -2  -8   18.20    2.89
   3  -2  -8   15.87    3.92
  -3   2   8   15.64    2.71
  -3   2   8   20.95    3.12
  -3   2   7   -0.57    0.97
   3  -2  -7    0.14    0.81
  -3   2   7    0.21    0.52
   3  -2  -7    0.09    0.38
  -3   2   7    0.84    0.59
  -3   2   7    0.46    0.29
   3  -2  -7    0.39    0.64
   3  -2  -7   -0.23    0.67
   3  -2  -7   -0.42    0.92
  -3   2   7    0.80    1.15
  -3   2   7    0.23    0.84
   3  -2  -6  164.89   11.13
  -3   2   6  157.88    8.89
   3  -2  -6  159.91    9.08
  -3   2   6  177.16   11.17
  -3   2   6  178.69   10.27
   3  -2  -6  175.43   11.23
   3  -2  -6  175.95    9.56
  -3   2   6  162.72   12.79
   3  -2  -6  156.91   12.48
  -3   2   6  167.37    9.65
  -3   2   6  170.98   10.18
   3  -2  -5   78.46    6.30
   3  -2  -5   77.69    6.95
  -3   2   5   74.17    5.38
  -3   2   5   89.44    7.17
   3  -2  -5   77.36    5.56
  -3   2   5   87.59    6.60
   3  -2  -5   81.03    6.94
   3  -2  -5   67.48    7.44
  -3   2   5   74.20    5.79
   3  -2  -5   85.92    6.78
  -3   2   5   75.07    6.19
   3  -2  -4   19.34    3.56
   3  -2  -4   19.29    2.86
   3  -2  -4   18.92    3.09
  -3   2   4   19.92    3.47
   3  -2  -4   19.95    3.11
   3  -2  -4   20.21    3.56
   3  -2  -4   19.56    4.26
   3  -2  -4   21.56    4.37
   3  -2  -4   20.29    3.83
   3  -2  -4   17.71    2.89
  -3   2   4   19.13    4.23
   3  -2  -3   14.20    2.84
   3  -2  -3    9.88    1.96
   3  -2  -3   10.87    2.17
  -3   2   3   10.25    2.56
   3  -2  -3   11.95    2.36
   3  -2  -3   11.44    3.06
  -3   2   3   10.20    3.42
   3  -2  -3   17.40    3.69
   3  -2  -3   11.94    2.85
  -3   2   3   13.33    3.71
   3  -2  -3    9.08    1.96
  -3   2   3   12.63    3.42
  -3   2   3   13.28    3.17
   3  -2  -2  114.10    8.62
   3  -2  -2  116.53    7.40
   3  -2  -2  117.06    7.12
  -3   2   2  110.19    8.87
  -3   2   2   95.83    8.37
   3  -2  -2  118.70    7.47
   3  -2  -2  119.08    9.96
  -3   2   2  117.27   10.52
   3  -2  -2  133.18   10.78
   3  -2  -2  100.71    8.57
  -3   2   2  126.18   10.54
   3  -2  -2  114.23    7.35
  -3   2   2  130.32   10.83
  -3   2   2  124.60    9.97
   3  -2  -1   24.69    3.82
  -3   2   1   28.94    4.45
  -3   2   1   28.50    4.16
   3  -2  -1   32.26    3.41
   3  -2  -1   28.31    4.75
  -3   2   1   28.69    3.83
  -3   2   1   30.38    4.82
   3  -2  -1   33.02    5.33
  -3   2   1   29.98    4.81
  -3   2   1   29.45    4.73
   3  -2  -1   30.66    3.35
  -3   2   1   34.79    5.08
  -3   2   1   29.74    4.47
   3  -2   0    3.69    1.68
  -3   2   0    1.82    0.94
  -3   2   0    3.33    1.39
   3  -2   0    3.61    1.03
   3  -2   0    2.60    0.96
   3  -2   0    1.10    0.80
  -3   2   0    2.96    1.68
   3  -2   0    3.05    1.95
  -3   2   0    0.88    0.56
  -3   2   0    3.02    1.23
  -3   2   0    3.72    1.84
   3  -2   0    2.51    0.93
  -3   2   0    1.44    0.57
  -3   2   0    5.56    2.09
   3  -2   1    6.04    2.08
   3  -2   1    5.37    1.35
  -3   2  -1    5.00    1.95
  -3   2  -1    6.83    2.08
   3  -2   1    5.04    1.20
   3  -2   1    9.36    1.70
   3  -2   1    6.67    1.42
   3  -2   1    3.02    1.63
  -3   2  -1    3.03    1.25
   3  -2   1    7.46    3.26
  -3   2  -1    5.77    1.85
  -3   2  -1    6.18    2.26
  -3   2  -1    6.86    2.34
  -3   2  -1    7.36    2.67
  -3   2  -1    5.06    1.81
  -3   2  -2   60.02    6.96
   3  -2   2   66.75    5.00
  -3   2  -2   61.04    7.14
  -3   2  -2   58.32    6.08
  -3   2  -2   74.56    8.18
   3  -2   2   71.45    5.01
   3  -2   2   66.51    4.95
   3  -2   2   70.19    4.82
   3  -2   2   46.15    7.15
  -3   2  -2   62.95    6.92
  -3   2  -2   74.16    8.02
   3  -2   2   73.26   10.08
  -3   2  -2   61.26    7.34
  -3   2  -2   68.48    7.53
  -3   2  -2   68.17    7.50
  -3   2  -2   59.69    6.84
  -3   2  -3  392.23   22.62
   3  -2   3  480.60   18.09
  -3   2  -3  486.59   24.01
  -3   2  -3  327.67   19.29
   3  -2   3  478.03   18.18
  -3   2  -3  497.37   26.38
   3  -2   3  547.52   18.39
   3  -2   3  486.67   17.90
   3  -2   3  505.92   18.07
   3  -2   3  338.29   24.06
  -3   2  -3  466.64   23.45
  -3   2  -3  417.89   23.68
   3  -2   3  437.78   29.88
  -3   2  -3  402.68   23.56
  -3   2  -3  440.55   23.62
  -3   2  -3  440.76   23.65
  -3   2  -3  408.71   22.63
  -3   2  -4    3.87    2.20
  -3   2  -4    4.95    1.83
   3  -2   4    4.42    1.19
  -3   2  -4    1.56    1.41
   3  -2   4    6.94    1.48
   3  -2   4    6.43    1.42
   3  -2   4    4.25    1.19
   3  -2   4    1.59    1.25
  -3   2  -4    4.74    2.32
   3  -2   4    4.38    3.24
  -3   2  -4    5.99    2.25
  -3   2  -4    3.37    2.03
  -3   2  -4    2.44    1.55
  -3   2  -4    4.43    2.20
  -3   2  -4    2.21    1.32
  -3   2  -5   49.25    7.51
  -3   2  -5   56.65    5.70
  -3   2  -5   56.85    5.56
   3  -2   5   64.61    4.95
  -3   2  -5   57.30    9.25
  -3   2  -5   60.19    5.94
   3  -2   5   64.67    4.94
   3  -2   5   76.34    5.30
  -3   2  -5   52.10    8.96
  -3   2  -5   54.59    7.24
  -3   2  -5   54.27    8.13
   3  -2   5   50.42    4.87
   3  -2   5   38.26    9.36
  -3   2  -5   43.97    7.41
  -3   2  -5   55.27    8.11
   3  -2   5   51.26    8.42
  -3   2  -5   47.72    7.23
  -3   2  -6   38.83    7.18
   3  -2   6   47.50    3.23
  -3   2  -6   42.93    5.00
  -3   2  -6   41.01    4.75
  -3   2  -6   44.30    5.77
   3  -2   6   47.70    4.09
  -3   2  -6   40.89    5.40
  -3   2  -6   39.43    5.23
   3  -2   6   47.48    4.40
  -3   2  -6   33.59    4.64
  -3   2  -6   44.86    4.43
  -3   2  -6   42.41    8.55
  -3   2  -6   43.99    5.23
   3  -2   6   41.77    4.20
   3  -2   6   54.91    4.75
  -3   2  -6   40.76    6.45
  -3   2  -6   36.34    7.85
   3  -2   6   49.11    4.55
  -3   2  -6   28.78    6.10
   3  -2   6   34.23    9.66
  -3   2  -6   39.74    7.40
  -3   2  -6   48.72    7.95
  -3   2  -6   44.51    4.69
   3  -2   6   37.13    8.10
  -3   2  -6   36.24    6.50
  -3   2  -7    3.04    1.74
   3  -2   7    4.44    0.90
  -3   2  -7    7.23    2.06
   3  -2   7    6.90    1.28
  -3   2  -7    7.31    2.05
   3  -2   7    5.17    1.31
  -3   2  -7    3.49    1.10
  -3   2  -7    1.76    0.80
  -3   2  -7    3.21    1.51
  -3   2  -7    3.88    1.28
  -3   2  -7    4.77    1.79
   3  -2   7    6.27    1.56
  -3   2  -7    5.43    3.38
   3  -2   7    4.63    1.50
  -3   2  -7    4.86    1.70
   3  -2   7    4.40    1.45
  -3   2  -7    9.04    4.64
  -3   2  -7    2.57    2.34
   3  -2   7   -1.65    1.99
  -3   2  -7    4.94    2.40
  -3   2  -7    4.47    0.63
  -3   2  -7    5.97    1.86
   3  -2   7    7.13    4.84
  -3   2  -7    6.32    3.00
  -3   2  -8   51.30    5.26
  -3   2  -8   39.75    4.77
   3  -2   8   51.20    3.65
   3  -2   8   42.54    4.19
  -3   2  -8   50.67    5.11
  -3   2  -8   39.81    5.82
  -3   2  -8   47.19    6.08
  -3   2  -8   53.90    6.44
   3  -2   8   47.00    4.83
  -3   2  -8   38.13    5.23
   3  -2   8   35.85    4.39
  -3   2  -8   53.76   10.10
  -3   2  -8   48.30    5.70
   3  -2   8   41.51    4.81
  -3   2  -8   49.41    5.30
   3  -2   9   38.24    3.23
   3  -2   9   35.91    4.27
  -3   2  -9   44.54    4.67
   3  -2   9   36.38    3.93
  -3   2  -9   28.14    4.82
  -3   2  -9   32.86    5.12
  -3   2  -9   32.41    4.93
   3  -2   9   37.17    4.42
  -3   2  -9   32.01    4.70
   3  -2   9   34.71    4.36
  -3   2  -9   45.75    9.20
  -3   2  -9   43.20    5.12
   3  -2   9   38.87    3.25
  -3   2  -9   44.47    4.87
   3  -2  10    8.43    1.44
  -3   2 -10    5.08    1.87
   3  -2  10    6.38    1.54
  -3   2 -10   10.24    2.06
   3  -2  10    6.28    1.68
  -3   2 -10    4.77    1.92
  -3   2 -10    7.23    2.14
  -3   2 -10    5.88    1.81
  -3   2 -10    6.97    1.83
   3  -2  10    9.48    1.53
  -3   2 -10    7.85    1.86
   3  -2  11   48.76    3.61
  -3   2 -11   56.53    4.66
   3  -2  11   54.68    4.40
   3  -2  11   49.76    4.55
  -3   2 -11   52.73    5.42
  -3   2 -11   48.03    4.91
  -3   2 -11   50.41    4.93
  -3   2 -11   55.37    4.71
   3  -2  11   53.55    3.59
  -3   2 -11   56.90    4.78
   3  -2  12   20.68    1.99
  -3   2 -12   23.22    2.39
   3  -2  12   18.74    2.35
  -3   2 -12   21.81    2.76
  -3   2 -12   18.48    2.38
  -3   2 -12   18.50    2.30
  -3   2 -12   23.21    2.28
   3  -2  12   22.25    1.86
  -3   2 -12   26.15    2.59
   3  -1 -12   22.24    2.19
  -3   1  12   23.08    2.45
   3  -1 -12   23.00    2.20
  -3   1  12   22.84    2.15
  -3   1  11   45.11    3.47
   3  -1 -11   51.40    4.09
   3  -1 -11   51.45    3.17
  -3   1  11   61.68    5.02
  -3   1  11   39.01    3.18
   3  -1 -11   53.61    4.26
  -3   1  11   51.10    4.06
  -3   1  10   27.52    3.00
   3  -1 -10   29.78    3.33
  -3   1  10   33.36    4.13
  -3   1  10   26.27    2.81
   3  -1 -10   32.82    3.68
  -3   1  10   31.69    3.50
  -3   1   9    9.47    2.03
   3  -1  -9   11.35    2.80
  -3   1   9    7.33    1.70
   3  -1  -9    8.71    1.90
  -3   1   9   12.76    2.68
  -3   1   9   11.52    2.14
  -3   1   9    8.74    1.61
   3  -1  -9    9.93    2.15
   3  -1  -9    7.50    2.76
  -3   1   9   10.99    2.11
  -3   1   8   18.97    2.73
   3  -1  -8   19.64    3.69
   3  -1  -8   19.71    2.93
  -3   1   8   20.04    3.46
  -3   1   8   21.97    3.05
   3  -1  -8   20.18    3.08
   3  -1  -8   17.99    3.33
   3  -1  -8   18.58    4.31
  -3   1   8   19.32    2.87
  -3   1   8   24.61    3.36
   3  -1  -7   37.34    5.07
  -3   1   7   33.14    3.65
  -3   1   7   36.86    4.10
   3  -1  -7   41.39    5.09
   3  -1  -7   38.15    4.10
  -3   1   7   33.14    5.35
   3  -1  -7   41.92    5.72
   3  -1  -7   30.62    5.34
  -3   1   7   46.47    6.07
  -3   1   7   34.46    3.88
  -3   1   7   37.68    4.81
  -3   1   7   40.87    4.27
   3  -1  -6   48.44    5.29
   3  -1  -6   41.38    5.17
  -3   1   6   49.66    4.39
  -3   1   6   59.03    5.77
   3  -1  -6   49.58    5.80
  -3   1   6   57.12    5.01
   3  -1  -6   53.91    5.73
   3  -1  -6   50.13    4.58
  -3   1   6   50.05    6.40
   3  -1  -6   45.42    6.30
  -3   1   6   51.46    6.00
  -3   1   6   48.89    4.63
  -3   1   6   50.34    4.74
   3  -1  -5   73.33    6.44
   3  -1  -5   51.15    5.63
  -3   1   5   74.97    6.29
   3  -1  -5   75.72    6.76
   3  -1  -5   69.23    6.37
   3  -1  -5   58.78    6.78
  -3   1   5   64.58    6.22
  -3   1   5   66.70    5.23
   3  -1  -4   20.47    3.19
   3  -1  -4   18.24    2.95
  -3   1   4   14.80    2.76
   3  -1  -4   20.69    3.08
   3  -1  -4   18.40    3.01
   3  -1  -4   15.10    3.08
  -3   1   4   20.07    3.06
   3  -1  -3  207.11   11.02
   3  -1  -3  174.73    9.81
  -3   1   3  178.85   11.13
   3  -1  -3  184.94   10.26
   3  -1  -3  184.60   10.93
   3  -1  -2  125.39    7.86
   3  -1  -2  118.58    7.68
   3  -1  -2  122.62    7.18
  -3   1   2  135.15    8.98
  -3   1   2  113.16    8.42
   3  -1  -2  122.68    7.51
   3  -1  -2  104.64    7.61
   3  -1  -2  125.91    7.91
   3  -1  -1  571.00   24.02
   3  -1  -1  609.50   23.79
   3  -1  -1  590.21   22.42
  -3   1   1  671.76   27.01
  -3   1   1  530.32   25.06
   3  -1  -1  611.65   23.27
   3  -1  -1  608.93   25.88
  -3   1   1  678.33   25.31
  -3   1   1  710.58   27.22
   3  -1  -1  712.84   27.37
  -3   1   1  693.73   26.82
  -3   1   1  685.90   26.49
   3  -1  -1  611.62   23.84
  -3   1   1  728.01   26.86
  -3   1   1  687.68   25.76
   3  -1   0 1101.83   38.75
  -3   1   0 1203.06   43.18
  -3   1   0  954.81   40.50
   3  -1   0 1174.04   37.91
   3  -1   0 1027.70   41.65
  -3   1   0 1224.80   41.87
  -3   1   0 1249.61   42.43
   3  -1   0 1258.55   44.20
  -3   1   0 1198.49   42.14
  -3   1   0 1232.72   41.93
   3  -1   0 1149.14   38.79
  -3   1   0 1310.38   42.31
  -3   1   0 1181.82   41.03
   3  -1   0  950.77   39.33
  -3   1  -1  616.24   24.70
   3  -1   1  499.60   21.48
  -3   1  -1  618.95   26.27
  -3   1  -1  515.88   23.61
   3  -1   1  623.11   20.39
  -3   1  -1  668.96   27.10
   3  -1   1  516.47   21.36
   3  -1   1  464.16   24.39
  -3   1  -1  609.87   25.10
  -3   1  -1  623.04   25.33
   3  -1   1  603.37   28.10
  -3   1  -1  571.83   24.81
  -3   1  -1  616.90   24.87
   3  -1   1  570.97   21.29
  -3   1  -1  655.12   25.22
  -3   1  -1  588.43   24.08
  -3   1  -2  196.58   12.28
   3  -1   2  200.27    9.80
  -3   1  -2  171.65   11.09
  -3   1  -2  222.26   14.72
   3  -1   2  192.69    9.42
   3  -1   2  227.21   10.06
   3  -1   2  144.11   12.06
   3  -1   2  194.06    9.19
  -3   1  -2  206.74   12.90
  -3   1  -2  200.00   12.72
   3  -1   2  199.12   15.75
  -3   1  -2  203.60   12.87
  -3   1  -2  201.00   12.48
  -3   1  -2  215.70   12.75
  -3   1  -2  191.06   11.88
  -3   1  -3   32.67    4.93
   3  -1   3   42.80    3.74
  -3   1  -3   33.13    4.26
   3  -1   3   38.30    3.47
  -3   1  -3   38.74    6.35
   3  -1   3   42.36    3.60
   3  -1   3   41.11    3.57
   3  -1   3   37.35    3.31
   3  -1   3   21.80    4.80
  -3   1  -3   41.99    5.55
  -3   1  -3   37.73    5.39
   3  -1   3   28.79    6.29
  -3   1  -3   36.70    5.46
  -3   1  -3   41.23    5.51
  -3   1  -3   36.45    5.17
  -3   1  -3   30.37    4.64
  -3   1  -4   52.85    6.82
  -3   1  -4   49.53    5.26
   3  -1   4   74.53    5.08
  -3   1  -4   73.39    9.40
   3  -1   4   80.40    5.08
   3  -1   4   69.05    4.72
   3  -1   4   77.38    5.03
  -3   1  -4   52.02    8.00
  -3   1  -4   64.36    7.40
  -3   1  -4   63.61    7.78
   3  -1   4   51.42    9.31
  -3   1  -4   48.84    6.89
  -3   1  -4   67.86    7.73
   3  -1   4   58.94    8.03
  -3   1  -4   57.62    6.99
  -3   1  -5   57.04    7.65
   3  -1   5   78.85    5.35
  -3   1  -5   66.47    9.65
   3  -1   5   70.29    4.99
   3  -1   5   86.23    5.45
   3  -1   5   58.86    5.12
  -3   1  -5   48.76    8.22
  -3   1  -5   69.14    7.80
  -3   1  -5   58.27    7.96
   3  -1   5   59.45    5.25
   3  -1   5   48.01    9.76
  -3   1  -5   61.01    8.21
  -3   1  -5   57.90    7.82
  -3   1  -5   66.79    6.23
   3  -1   5   56.39    8.48
  -3   1  -5   47.61    6.83
  -3   1  -6   12.56    3.72
  -3   1  -6   20.63    3.29
  -3   1  -6   18.17    3.06
   3  -1   6   20.03    2.47
  -3   1  -6   15.47    2.42
   3  -1   6   19.46    2.68
  -3   1  -6   24.38    6.18
   3  -1   6   18.21    2.54
   3  -1   6   25.52    3.04
  -3   1  -6   20.86    3.40
  -3   1  -6   14.48    4.50
   3  -1   6   19.71    2.84
  -3   1  -6   13.88    4.06
   3  -1   6   14.14    6.32
  -3   1  -6   18.67    4.60
  -3   1  -6   12.89    3.55
  -3   1  -6   18.27    2.77
   3  -1   6   15.86    4.95
  -3   1  -6   18.30    3.53
  -3   1  -6   13.52    3.94
  -3   1  -7   32.66    6.66
  -3   1  -7   49.85    5.33
  -3   1  -7   41.32    4.80
   3  -1   7   57.18    3.62
  -3   1  -7   42.27    4.49
   3  -1   7   41.14    3.88
  -3   1  -7   38.50    5.43
  -3   1  -7   44.84    5.90
  -3   1  -7   38.88    5.35
   3  -1   7   42.64    4.34
  -3   1  -7   37.65    4.99
  -3   1  -7   51.41    9.62
  -3   1  -7   46.57    5.43
   3  -1   7   36.28    4.05
   3  -1   7   40.31    4.31
  -3   1  -7   43.60    8.97
   3  -1   7   52.54    4.84
  -3   1  -7   31.52    6.98
   3  -1   7   33.77    9.80
  -3   1  -7   30.75    6.29
  -3   1  -7   53.41    8.52
  -3   1  -7   43.01    5.79
  -3   1  -7   43.85    4.90
   3  -1   7   41.67    8.57
  -3   1  -7   36.99    6.78
  -3   1  -8  252.40   13.04
   3  -1   8  242.47    9.96
  -3   1  -8  263.22   13.16
   3  -1   8  217.89   11.21
  -3   1  -8  202.08   14.36
  -3   1  -8  225.72   14.71
  -3   1  -8  213.45   13.87
   3  -1   8  216.45   12.03
  -3   1  -8  204.15   13.37
  -3   1  -8  265.74   23.24
   3  -1   8  192.61   11.61
  -3   1  -8  251.91   14.07
   3  -1   8  216.40   12.44
   3  -1   8  256.76   12.39
  -3   1  -8  223.98   15.41
  -3   1  -8  233.46   12.98
   3  -1   9  426.66   16.14
  -3   1  -9  472.98   19.76
   3  -1   9  401.49   17.70
   3  -1   9  389.85   18.64
  -3   1  -9  377.36   21.38
  -3   1  -9  418.26   21.74
  -3   1  -9  399.30   20.74
   3  -1   9  410.99   19.10
  -3   1  -9  405.18   20.50
  -3   1  -9  492.33   32.44
   3  -1   9  405.15   19.14
  -3   1  -9  452.97   20.50
   3  -1   9  441.09   16.46
  -3   1  -9  477.44   24.13
  -3   1  -9  466.61   20.10
   3  -1  10  234.71   10.27
  -3   1 -10  273.03   13.11
   3  -1  10  220.90   12.29
  -3   1 -10  200.73   13.93
  -3   1 -10  218.51   14.09
   3  -1  10  225.93   11.56
  -3   1 -10  231.10   13.79
   3  -1  10  226.38   12.89
  -3   1 -10  211.06   13.06
  -3   1 -10  260.99   21.96
  -3   1 -10  245.14   13.06
   3  -1  10  230.65   10.28
  -3   1 -10  263.01   16.77
  -3   1 -10  270.94   13.33
   3  -1  11   61.41    4.20
   3  -1  11   54.40    3.91
  -3   1 -11   68.95    5.39
   3  -1  11   55.84    4.57
   3  -1  11   51.67    4.96
  -3   1 -11   55.33    5.76
  -3   1 -11   58.88    5.57
  -3   1 -11   53.31    5.20
  -3   1 -11   57.44    4.99
   3  -1  11   58.07    4.00
  -3   1 -11   63.76    5.32
   3  -1  12   11.33    1.48
  -3   1 -12   14.71    2.03
   3  -1  12   12.90    2.10
  -3   1 -12   11.76    2.09
  -3   1 -12   12.78    2.07
  -3   1 -12   11.11    1.88
  -3   1 -12   12.15    1.71
   3  -1  12   14.18    1.66
  -3   1 -12   13.01    1.92
  -3   0  12    5.08    0.92
   3   0 -12    5.41    1.11
  -3   0  12    4.49    1.08
   3   0 -12    4.70    1.07
  -3   0  12    5.31    1.02
   3   0 -11   55.43    4.16
  -3   0  11   48.32    3.83
   3   0 -11   50.43    4.09
  -3   0  11   61.80    5.06
  -3   0  11   45.31    3.33
   3   0 -11   53.71    4.37
  -3   0  11   52.93    4.14
   3   0 -10  192.81    9.64
  -3   0  10  154.41    8.79
   3   0 -10  185.00    9.63
  -3   0  10  161.44    8.36
   3   0 -10  185.71   10.00
  -3   0  10  188.08   10.77
  -3   0  10  185.02    9.61
   3   0  -9  269.62   12.36
   3   0  -9  256.85   14.93
  -3   0   9  230.97   11.75
   3   0  -9  245.96   12.24
  -3   0   9  262.67   13.85
  -3   0   9  220.89   10.86
   3   0  -9  260.41   14.25
   3   0  -9  250.22   12.69
   3   0  -9  232.80   16.84
  -3   0   9  238.71   12.06
   3   0  -8   29.29    3.35
   3   0  -8   27.45    4.45
  -3   0   8   24.08    3.11
  -3   0   8   29.61    4.18
   3   0  -8   31.49    4.51
   3   0  -8   27.16    3.57
   3   0  -8   21.17    4.81
  -3   0   8   30.90    3.56
   3   0  -7   66.35    6.77
  -3   0   7   62.81    5.17
  -3   0   7   68.65    6.28
   3   0  -7   64.12    7.15
   3   0  -7   73.04    6.92
   3   0  -7   68.65    5.73
   3   0  -7   56.85    7.58
  -3   0   7   64.46    7.24
  -3   0   7   63.23    5.32
   3   0  -6   22.40    3.69
  -3   0   6   18.02    2.55
  -3   0   6   25.41    3.51
   3   0  -6   19.24    3.42
   3   0  -6   22.02    3.76
   3   0  -6   16.00    3.71
  -3   0   6   14.52    2.31
  -3   0   6   17.45    3.36
   3   0  -5   28.71    3.97
   3   0  -5   23.34    3.63
   3   0  -5   32.68    4.26
   3   0  -5   23.28    4.17
  -3   0   5   28.13    4.02
   3   0  -4  260.73   13.44
  -3   0   4  261.92   13.36
   3   0  -4  275.26   13.61
   3   0  -4  274.03   14.00
   3   0  -4  235.84   14.54
  -3   0   4  271.71   13.61
   3   0  -3   87.73    6.51
  -3   0   3   88.50    6.87
   3   0  -3   84.95    6.02
   3   0  -3   95.05    6.96
   3   0  -3   89.48    7.40
  -3   0   3   88.39    6.07
   3   0  -2 1006.35   34.75
  -3   0   2  970.37   36.06
   3   0  -2  999.04   35.28
   3   0  -2  986.10   35.96
   3   0  -1  629.04   23.21
   3   0  -1  602.39   21.57
  -3   0   1  561.33   23.61
   3   0  -1  585.06   22.15
   3   0  -1  562.75   20.99
   3   0   0 1261.52   42.02
  -3   0   0 1185.44   43.66
   3   0   0 1290.58   41.03
   3   0   0 1233.08   41.95
   3   0   0 1233.29   40.00
   3   0   1   96.76    5.95
  -3   0  -1   92.03    7.05
   3   0   1  105.30    5.28
   3   0   1   89.92    5.90
   3   0   1   96.87    5.92
   3   0   2  195.22    9.66
  -3   0  -2  180.04   10.65
  -3   0  -2  227.11   14.77
   3   0   2  185.26    9.18
   3   0   2  184.13    9.19
   3   0   2  192.62    8.98
  -3   0  -2  226.04   12.81
   3   0   2  211.63    9.25
  -3   0  -3  131.30    9.57
   3   0   3  157.99    7.98
  -3   0  -3  129.13    8.63
   3   0   3  151.85    7.68
  -3   0  -3  141.30   12.40
   3   0   3  142.80    7.34
   3   0   3  150.08    7.61
   3   0   3  148.15    7.20
   3   0   3  135.85   12.91
  -3   0  -3  144.55    8.53
   3   0   3  128.99   10.21
  -3   0  -3  122.56    9.15
  -3   0  -4   92.01    8.60
  -3   0  -4   94.09    7.09
   3   0   4   93.08    7.75
   3   0   4  119.98    6.56
  -3   0  -4  130.60   12.54
   3   0   4  126.97    6.56
   3   0   4  119.14    6.26
   3   0   4  134.84    6.79
  -3   0  -4   94.88   10.05
  -3   0  -4  111.94    9.73
   3   0   4   82.82   11.25
  -3   0  -4   90.93    8.96
  -3   0  -4   98.59    8.95
  -3   0  -4  104.05    7.72
   3   0   4   89.32    9.23
  -3   0  -4  102.03    8.88
  -3   0  -5  143.44   12.23
  -3   0  -5  146.59    9.15
   3   0   5  159.89   11.66
   3   0   5  198.80    9.24
  -3   0  -5  178.10   16.04
   3   0   5  175.19    8.48
   3   0   5  233.95    9.47
   3   0   5  166.99    9.35
  -3   0  -5  146.71   14.12
  -3   0  -5  165.19   13.29
   3   0   5  135.42   16.11
   3   0   5  171.13    9.58
  -3   0  -5  160.00   13.23
  -3   0  -5  159.15   12.83
  -3   0  -5  171.65   11.03
   3   0   5  150.29   13.47
  -3   0  -5  159.73   12.49
  -3   0  -6   12.64    3.68
  -3   0  -6   16.13    3.08
   3   0   6   20.50    2.66
  -3   0  -6   15.11    4.56
   3   0   6   12.63    2.05
   3   0   6   17.04    2.40
  -3   0  -6   17.09    3.08
   3   0   6   18.40    2.57
   3   0   6   13.66    3.22
  -3   0  -6   18.74    5.04
   3   0   6   16.48    2.70
  -3   0  -6   12.18    3.55
   3   0   6    6.84    2.70
  -3   0  -6   11.14    3.25
  -3   0  -6   19.58    4.67
   3   0   6    9.82    3.82
  -3   0  -6    9.03    2.45
  -3   0  -6   15.74    4.10
  -3   0  -7   72.17    6.35
  -3   0  -7   74.25    6.58
   3   0   7   91.39    4.65
  -3   0  -7   72.27    6.05
   3   0   7   69.29    5.09
   3   0   7   66.41    5.46
   3   0   7   69.64    8.75
  -3   0  -7   72.49   11.34
  -3   0  -7   68.71    6.62
   3   0   7   60.56    5.19
   3   0   7   71.08    5.66
   3   0   7   84.24    6.36
  -3   0  -7   63.03    7.24
   3   0   7   72.93   10.28
  -3   0  -7   72.42    6.33
   3   0   7   55.59    9.51
  -3   0  -8  509.86   20.79
   3   0   8  465.78   16.70
  -3   0  -8  481.51   20.40
   3   0   8  440.22   18.21
  -3   0  -8  416.75   22.35
  -3   0  -8  441.28   22.39
  -3   0  -8  424.86   21.56
   3   0   8  423.58   19.14
  -3   0  -8  428.95   21.12
   3   0   8  508.87   27.96
  -3   0  -8  512.09   33.02
   3   0   8  421.43   19.06
  -3   0  -8  475.87   21.52
   3   0   8  399.56   19.24
   3   0   8  512.29   20.21
  -3   0  -8  479.95   24.63
  -3   0  -8  473.64   20.73
   3   0   9   75.99    4.78
  -3   0  -9   83.77    6.87
   3   0   9   78.18    5.85
   3   0   9   67.98    6.23
  -3   0  -9   72.26    7.67
  -3   0  -9   79.80    7.62
   3   0   9   71.99    6.43
  -3   0  -9   77.26    7.29
  -3   0  -9   73.87    7.93
  -3   0  -9   90.39   12.86
   3   0   9   75.92    6.50
  -3   0  -9   79.17    7.09
   3   0   9   66.62    6.58
   3   0   9   85.86    6.68
   3   0   9   75.62    5.09
  -3   0  -9   82.60    9.17
  -3   0  -9   86.33    7.19
   3   0  10  330.20   13.32
  -3   0 -10  380.80   16.61
   3   0  10  344.36   14.93
  -3   0 -10  325.10   17.79
  -3   0 -10  321.96   17.02
   3   0  10  309.29   16.09
  -3   0 -10  333.29   16.97
   3   0  10  308.32   15.70
  -3   0 -10  335.67   16.29
   3   0  10  314.54   13.46
  -3   0 -10  347.45   20.34
  -3   0 -10  378.61   16.86
   3   0  11   44.02    3.68
   3   0  11   39.66    3.26
  -3   0 -11   47.58    4.56
   3   0  11   39.62    4.34
  -3   0 -11   39.98    4.81
  -3   0 -11   35.87    4.34
  -3   0 -11   42.17    4.56
  -3   0 -11   43.77    4.26
   3   0  11   41.36    3.42
  -3   0 -11   42.89    4.41
   3   0  12    6.27    1.15
   3   0  12    5.62    1.00
  -3   0 -12    5.84    1.33
   3   0  12    5.30    1.45
  -3   0 -12    4.60    1.46
  -3   0 -12    6.60    1.50
  -3   0 -12    7.45    1.60
  -3   0 -12    5.09    1.12
   3   0  12    7.31    1.25
  -3   0 -12    5.90    1.41
  -3   0 -13   17.76    1.81
   3   0  13   18.73    2.11
   3   0  13   18.76    1.70
  -3   0 -13   15.87    1.74
   3   1 -12   17.45    1.90
  -3  -1  12   17.45    1.89
   3   1 -12   16.83    1.91
  -3  -1  12   20.81    2.23
   3   1 -12   19.35    2.14
  -3  -1  12   19.95    1.96
   3   1 -11   21.58    2.57
  -3  -1  11   19.88    2.40
   3   1 -11   19.82    2.45
  -3  -1  11   24.62    3.02
   3   1 -11   23.04    2.79
  -3  -1  11   19.64    2.37
   3   1 -10   92.94    6.32
  -3  -1  10   95.25    6.31
   3   1 -10   94.60    6.39
  -3  -1  10  104.06    7.34
  -3  -1  10   85.73    5.37
   3   1 -10   92.91    6.65
  -3  -1  10   97.57    6.31
   3   1  -9  251.14   12.04
   3   1  -9  242.33   14.56
  -3  -1   9  221.85   11.62
  -3  -1   9  258.81   13.43
  -3  -1   9  228.09   10.70
   3   1  -9  267.95   14.41
   3   1  -9  259.58   12.86
   3   1  -9  237.60   16.97
  -3  -1   9  234.57   11.73
   3   1  -8  342.53   15.08
   3   1  -8  370.71   18.80
  -3  -1   8  308.17   14.74
  -3  -1   8  375.28   17.02
  -3  -1   8  307.53   13.82
   3   1  -8  386.11   18.61
   3   1  -8  313.22   20.27
  -3  -1   8  337.47   15.05
  -3  -1   8  348.85   14.31
  -3  -1   7   62.22    5.11
   3   1  -7   72.97    7.09
  -3  -1   7   62.21    5.16
  -3  -1   7   76.99    6.36
  -3  -1   7   72.19    6.22
   3   1  -7   74.76    7.78
  -3  -1   7   63.45    4.67
   3   1  -7   72.85    7.15
   3   1  -7   60.50    7.73
  -3  -1   7   79.92    8.06
  -3  -1   7   65.41    5.24
  -3  -1   7   64.84    4.82
  -3  -1   6   78.03    5.71
   3   1  -6   99.48    8.22
  -3  -1   6   80.22    5.80
  -3  -1   6   93.08    6.99
  -3  -1   6   94.80    6.99
   3   1  -6   93.18    8.25
  -3  -1   6   82.05    5.36
   3   1  -6   91.00    8.01
   3   1  -6   84.33    8.85
  -3  -1   6  110.48    8.94
  -3  -1   6   87.14    6.00
  -3  -1   6   88.19    5.64
   3   1  -5  206.29   12.21
   3   1  -5  191.66   11.93
   3   1  -5  217.05   12.88
   3   1  -5  177.53   13.17
  -3  -1   5  206.50   12.22
   3   1  -4  626.30   25.47
  -3  -1   4  652.34   24.18
   3   1  -4  596.74   24.61
   3   1  -4  671.57   26.08
   3   1  -4  574.00   26.94
  -3  -1   4  617.71   24.63
   3   1  -4  539.18   23.72
   3   1  -3  395.00   17.43
  -3  -1   3  374.25   16.70
   3   1  -3  389.01   16.53
   3   1  -3  413.55   18.14
   3   1  -3  352.97   18.59
  -3  -1   3  383.84   16.20
   3   1  -3  336.35   16.19
   3   1  -2  208.34   10.93
  -3  -1   2  190.78   10.65
   3   1  -2  216.68   10.00
   3   1  -2  221.33   11.47
   3   1  -2  205.67   12.25
  -3  -1   2  200.90    9.44
  -3  -1   2  170.86   11.85
   3   1  -2  189.81   10.26
  -3  -1   1  877.44   32.70
   3   1  -1  950.93   32.57
  -3  -1   1  825.28   34.49
   3   1  -1  917.60   31.82
   3   1   0  598.61   22.99
  -3  -1   0  566.50   23.53
   3   1   0  651.38   22.93
  -3  -1   0  507.08   24.75
   3   1   0  668.01   22.85
   3   1   1   53.81    4.27
  -3  -1  -1   49.56    4.79
   3   1   1   57.11    3.95
  -3  -1  -1   48.25    5.38
   3   1   1   53.56    4.16
   3   1   2  129.64    6.82
   3   1   2  124.74    7.19
  -3  -1  -2  123.07    8.06
   3   1   2  127.11    6.78
   3   1   2  130.04    6.99
   3   1   2  135.27    6.77
  -3  -1  -2  129.72    9.15
   3   1   3   67.94    4.78
  -3  -1  -3   61.90    5.35
   3   1   3   68.69    4.56
   3   1   3   69.55    4.42
   3   1   3   67.77    4.53
   3   1   3   64.34    4.16
  -3  -1  -3   67.15    5.65
  -3  -1  -3   64.90    6.08
  -3  -1  -4  424.29   19.43
   3   1   4  401.13   20.30
   3   1   4  524.16   18.67
  -3  -1  -4  514.16   27.75
   3   1   4  605.91   18.72
   3   1   4  500.59   17.91
   3   1   4  576.94   18.86
   3   1   4  430.15   19.45
   3   1   4  465.20   19.76
  -3  -1  -4  448.02   20.98
  -3  -1  -5  102.97    7.10
   3   1   5   94.34    8.63
   3   1   5  125.89    6.84
  -3  -1  -5  111.34   12.47
   3   1   5  115.99    6.34
   3   1   5  148.52    7.05
   3   1   5  120.70    7.53
   3   1   5  120.02    7.76
  -3  -1  -5  101.25    8.61
   3   1   6  227.97   15.99
   3   1   6  277.93   12.29
  -3  -1  -6  280.32   21.87
   3   1   6  240.16   11.53
   3   1   6  290.45   12.26
   3   1   6  313.24   13.29
   3   1   6  299.79   13.63
  -3  -1  -6  250.84   15.54
  -3  -1  -7  177.32   10.61
   3   1   7  196.75    7.76
  -3  -1  -7  178.34   10.26
   3   1   7  146.73   13.03
   3   1   7  150.79    8.95
  -3  -1  -7  179.18   17.71
  -3  -1  -7  165.15   10.72
   3   1   7  145.04    8.55
   3   1   7  157.80    8.96
   3   1   7  149.20    9.35
  -3  -1  -7  159.30   12.41
  -3  -1  -7  166.86   10.24
   3   1   8  100.85    5.30
  -3  -1  -8  101.31    7.57
   3   1   8   83.85    6.94
   3   1   8   88.63   10.53
   3   1   8   86.46    6.72
  -3  -1  -8   95.95    7.87
   3   1   8   87.32    7.00
   3   1   8  106.76    7.55
  -3  -1  -8   95.43    9.73
  -3  -1  -8   89.94    7.38
   3   1   9  108.82    5.93
  -3  -1  -9  116.91    8.29
   3   1   9  100.38    7.79
  -3  -1  -9  111.60    9.48
  -3  -1  -9  109.30    8.87
   3   1   9  103.59    7.79
  -3  -1  -9  107.04    8.65
  -3  -1  -9  114.86    8.59
   3   1   9  110.10    8.02
  -3  -1  -9  110.46    7.56
   3   1   9  111.83    6.39
  -3  -1  -9  115.15   11.07
  -3  -1  -9  111.50    8.35
   3   1  10    0.63    0.40
  -3  -1 -10    1.28    0.85
   3   1  10    0.04    0.30
  -3  -1 -10    0.26    0.51
  -3  -1 -10    2.73    1.40
  -3  -1 -10    1.33    0.82
   3   1  10    1.09    0.88
  -3  -1 -10   -0.02    0.30
  -3  -1 -10    0.78    0.64
   3   1  10    1.06    0.77
  -3  -1 -10    0.05    0.44
  -3  -1 -10    0.03    0.92
   3   1  11   22.88    2.69
   3   1  11   20.02    2.19
  -3  -1 -11   25.92    3.31
   3   1  11   18.60    2.99
   3   1  11   22.94    2.41
  -3  -1 -11   18.96    3.16
  -3  -1 -11   22.10    3.31
  -3  -1 -11   22.93    3.23
  -3  -1 -11   21.31    2.85
  -3  -1 -11   23.07    2.87
   3   1  11   22.19    2.48
  -3  -1 -11   23.67    3.24
   3   1  12   79.84    4.83
  -3  -1 -12   76.60    5.21
   3   1  12   72.07    5.57
   3   1  12   54.80    5.36
  -3  -1 -12   71.19    5.51
  -3  -1 -12   73.66    5.21
  -3  -1 -12   74.80    5.15
   3   1  12   80.57    4.74
  -3  -1 -12   75.80    5.24
  -3  -1 -13   33.77    2.64
   3   1  13   38.87    3.14
   3   1  13   37.43    2.59
  -3  -1 -13   33.15    2.65
   3   2 -12   27.85    2.47
  -3  -2  12   28.03    2.41
   3   2 -12   24.29    2.25
   3   2 -12   26.77    2.51
   3   2 -11   48.65    4.00
  -3  -2  11   46.53    3.79
   3   2 -11   45.41    3.80
  -3  -2  11   55.16    4.31
   3   2 -11   45.57    4.00
  -3  -2  11   49.82    3.68
   3   2 -10   24.40    2.99
  -3  -2  10   27.80    3.18
  -3  -2  10   29.26    3.51
   3   2 -10   26.18    3.26
   3   2 -10   29.04    3.35
  -3  -2  10   28.05    3.02
  -3  -2  10   24.23    2.63
  -3  -2   9   90.00    6.48
   3   2  -9   99.61    6.88
   3   2  -9  107.52    8.92
  -3  -2   9   93.48    6.62
  -3  -2   9  116.30    7.87
   3   2  -9  117.11    8.94
   3   2  -9  104.66   10.63
   3   2  -9  116.72    7.57
  -3  -2   9  106.12    6.86
  -3  -2   9  102.29    6.49
  -3  -2   8   85.97    6.38
   3   2  -8   98.08    8.76
  -3  -2   8   90.52    6.52
  -3  -2   8  115.95    7.80
  -3  -2   8  114.27    7.82
  -3  -2   8  101.63    6.04
   3   2  -8  106.64    9.02
   3   2  -8   89.37    9.87
  -3  -2   8  101.79    6.62
  -3  -2   8   96.78    6.31
  -3  -2   7  172.29    9.62
   3   2  -7  191.01   12.57
  -3  -2   7  164.47    9.40
  -3  -2   7  204.25   11.07
  -3  -2   7  202.35   10.93
   3   2  -7  188.94   13.23
  -3  -2   7  173.93    8.76
   3   2  -7  213.26   13.28
   3   2  -7  174.15   14.05
  -3  -2   7  212.95   14.05
  -3  -2   7  174.85    9.44
  -3  -2   7  180.94    9.30
  -3  -2   6  487.47   20.80
   3   2  -6  610.62   25.64
  -3  -2   6  502.69   20.63
  -3  -2   6  568.36   22.63
  -3  -2   6  530.66   19.95
   3   2  -6  574.76   25.67
   3   2  -6  642.90   26.35
   3   2  -6  543.96   27.57
  -3  -2   6  650.22   26.67
  -3  -2   6  551.38   20.86
  -3  -2   6  537.93   20.59
   3   2  -5    9.21    2.01
   3   2  -5   10.15    2.58
   3   2  -5   12.68    2.79
   3   2  -5   10.37    2.50
   3   2  -5    6.69    2.65
   3   2  -5    8.48    2.12
  -3  -2   5    8.47    2.18
   3   2  -4  282.24   14.80
   3   2  -4  253.98   13.87
   3   2  -4  252.28   16.07
  -3  -2   4  246.06   13.36
  -3  -2   4  227.49   14.67
   3   2  -4  246.87   13.60
   3   2  -4  250.28   12.42
  -3  -2   3  444.38   17.58
   3   2  -3  414.34   17.71
  -3  -2   3  396.84   16.97
  -3  -2   3  339.10   18.61
   3   2  -3  407.80   17.92
   3   2  -3  416.14   16.54
   3   2  -3  335.95   14.49
   3   2  -2  166.46    8.08
  -3  -2   2  174.10    9.70
   3   2  -2  174.60    9.46
  -3  -2   2  163.98    8.66
  -3  -2   2  137.21   10.38
   3   2  -2  174.91   10.05
  -3  -2   1 2212.01   68.85
   3   2  -1 2193.86   67.28
  -3  -2   1 2066.76   65.93
  -3  -2   0 1273.44   42.86
   3   2   0 1270.61   40.47
  -3  -2   0 1245.40   39.42
   3   2   1   75.72    5.35
  -3  -2  -1   74.28    5.82
  -3  -2  -1   69.73    6.55
   3   2   2  104.38    5.85
   3   2   2   98.36    6.02
  -3  -2  -2  107.50    7.18
  -3  -2  -2  107.37    8.37
   3   2   2   95.85    5.50
   3   2   2  100.90    5.80
  -3  -2  -2   90.96    7.68
   3   2   2  103.86    5.68
   3   2   3  190.48    9.13
  -3  -2  -3  170.27    9.97
  -3  -2  -3  188.97   13.02
   3   2   3  195.49    8.79
   3   2   3  206.58    8.55
   3   2   3  204.54    8.92
   3   2   3  205.00    8.35
   3   2   3  179.55    9.98
  -3  -2  -3  165.98   10.97
  -3  -2  -4  363.19   16.89
  -3  -2  -4  371.62   21.75
   3   2   4  413.33   15.43
   3   2   4  486.70   15.46
   3   2   4  403.96   14.68
   3   2   4  469.77   15.83
   3   2   4  372.08   16.64
   3   2   4  369.59   16.58
  -3  -2  -4  345.14   18.22
  -3  -2  -4  322.17   17.37
  -3  -2  -5  452.46   19.55
   3   2   5  403.22   21.78
  -3  -2  -5  499.18   27.15
   3   2   5  495.76   18.54
   3   2   5  584.57   18.41
   3   2   5  515.86   19.91
   3   2   5  477.85   19.82
  -3  -2  -5  412.34   21.84
  -3  -2  -6   12.21    2.22
   3   2   6   14.32    2.12
   3   2   6   11.41    1.83
   3   2   6    7.15    2.62
  -3  -2  -6   11.58    2.36
   3   2   6   13.22    2.23
   3   2   6   11.55    2.22
  -3  -2  -6    9.64    2.72
  -3  -2  -7   28.62    3.39
  -3  -2  -7   28.95    3.82
   3   2   7   26.11    3.51
   3   2   7   26.00    3.22
  -3  -2  -7   30.25    4.13
   3   2   7   29.39    5.50
  -3  -2  -7   26.91    3.39
   3   2   7   33.71    3.97
  -3  -2  -7   31.82    4.00
  -3  -2  -7   27.57    4.85
  -3  -2  -8  245.34   12.29
  -3  -2  -8  241.19   12.99
   3   2   8  199.66   11.90
   3   2   8  218.85   11.86
  -3  -2  -8  238.25   13.40
  -3  -2  -8  244.00   12.44
   3   2   8  269.37   13.40
  -3  -2  -8  239.35   16.51
  -3  -2  -8  238.80   13.13
  -3  -2  -9   69.44    5.67
  -3  -2  -9   67.47    6.07
   3   2   9   54.27    5.49
   3   2   9   56.11    5.45
  -3  -2  -9   59.06    5.84
   3   2   9   57.54    5.80
  -3  -2  -9   59.87    5.47
   3   2   9   57.48    4.41
  -3  -2  -9   60.83    7.85
  -3  -2  -9   56.27    5.71
  -3  -2 -10   32.30    3.72
  -3  -2 -10   30.77    3.92
   3   2  10   32.22    4.06
  -3  -2 -10   30.70    3.85
  -3  -2 -10   31.55    3.78
   3   2  10   32.19    3.17
  -3  -2 -10   35.78    5.83
  -3  -2 -10   32.40    4.10
   3   2  11   21.86    2.68
  -3  -2 -11   23.26    2.84
  -3  -2 -11   21.90    2.88
  -3  -2 -11   18.09    2.70
   3   2  11   17.73    2.90
   3   2  11   20.66    2.40
  -3  -2 -11   22.29    2.85
  -3  -2 -11   21.86    2.86
   3   2  11   17.09    2.21
  -3  -2 -11   17.68    2.73
   3   2  12  136.80    6.92
  -3  -2 -12  134.36    7.04
  -3  -2 -12  132.67    7.19
   3   2  12  120.05    7.45
   3   2  12  114.93    6.00
  -3  -2 -12  141.51    6.99
   3   2  12  130.61    6.57
  -3  -2 -12  126.62    7.17
  -3  -2 -13   65.49    3.78
   3   2  13   69.66    3.76
  -3  -2 -13   58.03    3.67
   3   2  13   70.80    3.82
   3   3 -12    5.48    1.06
  -3  -3  12    5.92    1.02
   3   3 -12    4.79    0.87
   3   3 -12    5.98    1.09
   3   3 -11    1.91    0.81
  -3  -3  11    2.37    0.73
   3   3 -11    2.06    0.72
   3   3 -11    2.58    0.82
   3   3 -11    1.54    0.58
  -3  -3  11    2.25    0.68
  -3  -3  10   17.87    2.39
   3   3 -10   19.19    2.62
  -3  -3  10   19.66    2.58
   3   3 -10   18.18    2.64
  -3  -3  10   19.17    2.33
  -3  -3   9    5.84    1.46
   3   3  -9    8.13    1.69
  -3  -3   9    5.07    1.40
   3   3  -9    7.49    2.17
   3   3  -9    6.70    2.66
   3   3  -9    7.56    1.84
  -3  -3   9    6.69    1.46
  -3  -3   8   58.24    5.17
   3   3  -8   72.56    7.49
  -3  -3   8   67.85    5.38
  -3  -3   8   85.79    6.40
   3   3  -8   79.09    7.74
   3   3  -8   63.65    8.28
   3   3  -8   66.66    5.74
  -3  -3   8   70.91    5.26
  -3  -3   7  418.24   18.85
   3   3  -7  536.50   24.01
  -3  -3   7  421.32   18.50
  -3  -3   7  511.63   20.63
   3   3  -7  485.24   24.24
   3   3  -7  556.22   24.53
   3   3  -7  450.40   25.62
   3   3  -7  497.78   20.10
  -3  -3   7  575.95   25.99
   3   3  -7  536.20   25.71
  -3  -3   7  442.35   18.53
   3   3  -7  451.19   21.89
  -3  -3   6 1645.91   57.73
   3   3  -6 1821.22   63.56
  -3  -3   6 1663.41   57.36
  -3  -3   6 1856.09   59.86
   3   3  -6 1838.37   64.11
   3   3  -6 1801.09   67.35
   3   3  -6 2015.46   66.16
  -3  -3   6 2102.08   65.57
  -3  -3   6 1761.49   57.53
   3   3  -6 1777.88   62.08
   3   3  -6 1697.33   60.98
   3   3  -5  558.12   24.24
   3   3  -5  498.60   23.40
   3   3  -5  502.21   26.33
   3   3  -5  514.62   24.33
  -3  -3   5  551.97   23.89
  -3  -3   5  464.88   23.56
   3   3  -5  498.65   22.78
   3   3  -5  463.99   21.27
   3   3  -4   63.53    6.40
  -3  -3   4   70.54    6.53
  -3  -3   4   57.76    6.65
   3   3  -4   64.30    6.38
   3   3  -4   62.73    5.74
  -3  -3   3  270.94   12.74
   3   3  -3  213.24   12.29
  -3  -3   3  222.68   11.94
  -3  -3   3  194.72   13.14
   3   3  -3  243.82   13.20
   3   3  -3  247.16   12.17
   3   3  -3  195.79   10.15
   3   3  -2    8.35    1.70
  -3  -3   2    7.53    1.90
   3   3  -2    6.67    1.58
   3   3  -2    6.15    1.73
  -3  -3   2    5.13    1.88
  -3  -3   2    5.30    1.43
   3   3  -1  137.09    8.34
   3   3  -1  148.62    8.61
  -3  -3   1  153.28    8.12
  -3  -3   1  133.51   10.26
  -3  -3   0   63.17    5.38
   3   3   0   53.79    4.16
  -3  -3   0   49.51    5.72
  -3  -3   0   58.55    4.21
   3   3   1  330.99   13.90
  -3  -3  -1  316.66   15.91
   3   3   1  327.14   13.32
   3   3   1  330.55   14.61
  -3  -3  -1  329.15   17.10
   3   3   2  600.17   21.87
  -3  -3  -2  536.82   23.61
  -3  -3  -2  571.75   26.22
   3   3   2  645.60   21.34
   3   3   2  577.22   20.77
   3   3   2  616.03   21.31
   3   3   2  580.18   23.01
   3   3   2  614.41   22.89
  -3  -3  -2  554.37   25.54
   3   3   2  612.28   21.35
   3   3   3  470.00   17.08
  -3  -3  -3  419.70   18.83
  -3  -3  -3  388.17   21.90
   3   3   3  470.14   16.41
   3   3   3  502.38   16.66
   3   3   3  415.02   17.96
   3   3   3  440.17   18.00
  -3  -3  -3  382.64   19.91
  -3  -3  -4  101.76    7.09
  -3  -3  -4   80.46    9.11
   3   3   4  100.91    5.41
   3   3   4   93.97    6.46
   3   3   4   91.11    6.35
  -3  -3  -4   81.93    7.31
   3   3   5   16.18    2.07
   3   3   5   16.52    2.54
  -3  -3  -5   12.07    3.79
   3   3   5   13.44    2.35
  -3  -3  -6   25.50    3.26
  -3  -3  -6   27.85    3.54
   3   3   6   26.27    2.89
  -3  -3  -6   25.56    3.56
  -3  -3  -6   28.34    6.07
   3   3   6   26.27    3.41
  -3  -3  -6   22.78    3.26
  -3  -3  -7   59.69    5.28
  -3  -3  -7   58.92    5.56
   3   3   7   51.34    4.91
  -3  -3  -7   62.02    9.59
  -3  -3  -7   54.07    5.64
  -3  -3  -7   53.27    5.06
   3   3   7   57.85    5.46
  -3  -3  -7   64.33    7.65
  -3  -3  -7   50.37    5.23
  -3  -3  -8   48.94    4.86
  -3  -3  -8   49.39    5.17
   3   3   8   42.26    4.65
  -3  -3  -8   45.33    5.11
   3   3   8   45.84    5.04
  -3  -3  -8   46.65    4.84
   3   3   8   40.64    3.52
  -3  -3  -8   45.02    5.02
  -3  -3  -9   45.93    4.74
  -3  -3  -9   39.36    4.54
   3   3   9   32.94    4.23
  -3  -3  -9   41.25    4.73
   3   3   9   40.92    4.89
  -3  -3  -9   42.62    4.60
   3   3   9   35.22    3.34
  -3  -3  -9   38.82    4.64
   3   3  10   61.04    5.04
  -3  -3 -10   64.77    5.50
  -3  -3 -10   61.44    5.56
   3   3  10   57.78    5.53
  -3  -3 -10   68.10    5.68
   3   3  10   56.43    4.39
  -3  -3 -10   63.94    5.75
   3   3  11   56.89    4.50
  -3  -3 -11   55.32    4.60
  -3  -3 -11   55.50    4.84
  -3  -3 -11   51.16    4.60
   3   3  11   53.08    4.87
   3   3  11   54.50    4.14
  -3  -3 -11   54.42    4.65
   3   3  11   49.72    3.90
  -3  -3 -11   46.88    4.46
   3   3  12    0.61    0.48
  -3  -3 -12    1.18    0.53
  -3  -3 -12    1.80    0.74
  -3  -3 -12    0.40    0.31
   3   3  12    0.80    0.42
   3   3  12    0.85    0.39
   3   3  12    0.08    0.44
  -3  -3 -12    0.71    0.44
   3   3  12    0.79    0.39
  -3  -3 -12    1.72    0.77
   3   4 -12   37.11    2.67
  -3  -4  12   34.69    2.42
   3   4 -12   36.35    2.64
   3   4 -11  109.50    6.05
  -3  -4  11  102.14    5.62
   3   4 -11  110.44    6.19
   3   4 -11  108.87    6.02
  -3  -4  11   97.87    5.33
  -3  -4  10   15.33    2.23
   3   4 -10   20.90    2.60
  -3  -4  10   22.93    2.59
   3   4 -10   18.39    2.57
  -3  -4  10   19.00    2.31
  -3  -4   9   21.35    2.85
  -3  -4   9   22.77    2.77
   3   4  -9   21.73    4.58
   3   4  -9   26.10    3.34
  -3  -4   9   22.54    2.72
  -3  -4   8   19.14    2.75
  -3  -4   8   19.93    2.68
   3   4  -8   23.71    4.05
  -3  -4   8   21.57    2.99
   3   4  -8   21.90    4.02
   3   4  -8   17.15    4.18
   3   4  -8   24.10    3.32
  -3  -4   8   22.85    2.89
   3   4  -8   21.85    3.83
  -3  -4   7  100.98    7.04
   3   4  -7  117.96    9.92
  -3  -4   7  102.84    6.72
  -3  -4   7  117.71    7.97
   3   4  -7  113.81   11.52
  -3  -4   7  115.68    7.08
   3   4  -7  108.31    9.14
  -3  -4   6  150.11    8.74
  -3  -4   6  144.72    8.14
   3   4  -6  173.30   12.18
  -3  -4   6  158.31    9.64
   3   4  -6  148.46   11.70
  -3  -4   6  146.87    8.87
   3   4  -6  157.73   13.70
  -3  -4   6  185.07   12.88
   3   4  -6  179.17   13.04
  -3  -4   6  161.93    8.56
   3   4  -6  149.27   10.98
   3   4  -6  145.49   10.63
  -3  -4   5   32.63    3.49
  -3  -4   5   38.80    3.54
  -3  -4   5   43.76    4.57
  -3  -4   5   39.01    4.27
   3   4  -5   41.24    5.47
  -3  -4   5   35.80    3.72
   3   4  -5   38.50    6.35
  -3  -4   5   45.41    5.69
   3   4  -5   47.81    6.00
  -3  -4   5   35.57    3.48
  -3  -4   5   33.97    5.31
   3   4  -5   43.99    5.46
   3   4  -5   41.42    5.03
   3   4  -4   27.04    4.25
   3   4  -4   31.71    4.95
  -3  -4   4   37.62    4.86
   3   4  -4   35.99    4.93
  -3  -4   4   29.60    4.78
   3   4  -4   32.07    4.33
   3   4  -4   30.37    4.47
  -3  -4   3   -0.17    0.56
   3   4  -3   -0.10    0.51
   3   4  -3    0.51    0.34
   3   4  -3    0.11    0.70
   3   4  -3    1.26    1.16
   3   4  -3    1.16    1.01
  -3  -4   3    1.60    1.13
   3   4  -2   74.83    5.89
   3   4  -2   65.25    6.19
   3   4  -2   85.86    5.24
  -3  -4   2   74.64    6.26
  -3  -4   2   68.18    7.39
   3   4  -2   82.22    6.68
  -3  -4   1   22.68    3.28
   3   4  -1   22.48    2.94
   3   4  -1   14.39    2.55
   3   4  -1   14.67    2.02
   3   4  -1   15.51    2.27
  -3  -4   1   14.22    2.38
  -3  -4   1   13.47    3.18
   3   4  -1   16.42    2.57
   3   4   0  110.95    6.61
   3   4   0  115.52    6.79
   3   4   0  121.97    6.60
  -3  -4   0  105.35    9.10
  -3  -4   0  110.11    7.08
   3   4   1  207.65    9.43
  -3  -4  -1  187.72   12.26
   3   4   1  202.53   10.01
   3   4   1  208.50    9.76
  -3  -4  -1  171.67   12.33
   3   4   2  486.97   17.08
  -3  -4  -2  577.87   21.26
  -3  -4  -2  397.93   21.93
   3   4   2  453.54   18.17
   3   4   2  460.28   17.88
  -3  -4  -2  349.19   20.47
   3   4   3  148.23    8.06
   3   4   3  139.30    7.72
  -3  -4  -3  122.83    9.80
  -3  -4  -4   53.68    7.71
  -3  -4  -4   50.16    5.98
  -3  -4  -5   49.73    4.84
  -3  -4  -5   48.40    4.69
  -3  -4  -5   46.20    7.46
  -3  -4  -5   44.05    4.80
   3   4   5   46.29    4.65
  -3  -4  -5   53.27    4.95
  -3  -4  -6   78.04    6.20
  -3  -4  -6   83.62    6.68
  -3  -4  -6   81.63    6.47
  -3  -4  -6   73.69    8.21
  -3  -4  -6   96.51    6.37
  -3  -4  -6   72.33    6.52
  -3  -4  -6   68.89    5.89
   3   4   6   81.16    6.42
   3   4   6   66.80    6.59
  -3  -4  -6   76.04    6.38
  -3  -4  -6   71.91   10.00
  -3  -4  -7   37.51    4.28
  -3  -4  -7   39.44    4.45
  -3  -4  -7   34.33    4.15
  -3  -4  -7   37.67    4.59
  -3  -4  -7   35.49    4.18
   3   4   7   39.09    4.54
  -3  -4  -7   35.35    7.47
   3   4   7   36.08    3.15
   3   4   7   39.73    4.80
  -3  -4  -7   37.68    4.46
  -3  -4  -8   59.62    5.59
  -3  -4  -8   62.24    5.91
  -3  -4  -8   58.55    5.64
   3   4   8   56.39    5.79
  -3  -4  -8   55.80    5.49
   3   4   8   46.79    3.93
  -3  -4  -8   53.99    5.53
   3   4   9   44.99    4.36
  -3  -4  -9   43.79    4.70
  -3  -4  -9   53.04    5.24
  -3  -4  -9   49.46    5.00
  -3  -4  -9   49.27    4.97
   3   4   9   40.44    3.64
  -3  -4  -9   44.85    4.89
   3   4  10   12.25    2.10
  -3  -4 -10   14.67    2.44
  -3  -4 -10    8.28    1.95
  -3  -4 -10    8.72    1.90
   3   4  10   12.45    2.00
  -3  -4 -10   13.05    2.41
   3   4  10   11.36    1.77
  -3  -4 -10   10.83    2.21
   3   4  11   17.37    2.36
  -3  -4 -11   15.93    2.34
  -3  -4 -11   14.25    2.28
  -3  -4 -11   12.19    1.96
   3   4  11   11.98    1.85
  -3  -4 -11   11.79    2.02
   3   4  11   13.59    1.86
  -3  -4 -11   11.25    2.03
   3   4  12   40.47    3.23
  -3  -4 -12   36.08    3.01
  -3  -4 -12   35.83    3.11
  -3  -4 -12   32.42    2.87
   3   4  12   37.28    2.95
   3   4  12   36.98    3.23
  -3  -4 -12   39.60    3.17
   3   4  12   38.21    2.82
   3   5 -11   50.80    3.59
  -3  -5  11   50.56    3.27
   3   5 -11   50.51    3.62
   3   5 -11   47.72    3.47
  -3  -5  11   47.09    3.18
  -3  -5  10   18.82    2.29
   3   5 -10   17.93    2.33
  -3  -5  10   18.87    2.16
   3   5 -10   18.39    2.44
  -3  -5  10   19.10    2.23
  -3  -5   9   40.32    3.85
  -3  -5   9   44.82    3.80
   3   5  -9   47.77    3.98
   3   5  -9   46.85    4.43
  -3  -5   9   46.25    3.91
  -3  -5   8    9.71    1.88
  -3  -5   8   10.12    1.80
   3   5  -8    9.29    2.55
   3   5  -8   10.53    1.87
   3   5  -8    8.34    2.96
  -3  -5   8    8.81    1.72
   3   5  -8   10.84    2.82
   3   5  -7    1.31    0.82
  -3  -5   7    1.85    1.03
  -3  -5   7    1.36    0.73
   3   5  -7    1.56    0.41
  -3  -5   7    3.83    1.38
   3   5  -7    1.63    1.42
  -3  -5   7    1.65    0.83
  -3  -5   6   32.46    5.19
   3   5  -6   18.65    3.64
  -3  -5   6   21.07    2.77
  -3  -5   6   22.10    2.63
  -3  -5   6   24.91    3.45
  -3  -5   6   24.58    3.18
   3   5  -6   22.73    5.04
  -3  -5   6   22.63    2.82
   3   5  -6   19.46    3.84
  -3  -5   5  211.27   11.02
  -3  -5   5  277.95   13.59
  -3  -5   5  228.65   12.56
   3   5  -5  242.94   15.32
  -3  -5   5  221.76   11.62
   3   5  -5  239.23   16.84
  -3  -5   5  300.49   16.78
  -3  -5   5  234.58   11.12
   3   5  -5  239.77   14.87
   3   5  -5  230.65   14.21
   3   5  -5  291.66   16.47
  -3  -5   4   79.58    5.65
  -3  -5   4  104.88    7.32
  -3  -5   4  102.34    7.31
  -3  -5   4   88.10    6.31
  -3  -5   4   87.91    6.20
   3   5  -4   81.34    7.99
   3   5  -4   82.32    9.35
  -3  -5   4  102.36    8.74
  -3  -5   4   95.27    5.92
  -3  -5   4   78.41    8.49
   3   5  -4   91.33    8.08
   3   5  -4   95.67    8.63
   3   5  -4   99.72    8.65
   3   5  -3  177.27   11.15
   3   5  -3  121.07    9.78
   3   5  -3  128.03   12.06
  -3  -5   3  183.46   11.43
  -3  -5   3  138.48   11.50
   3   5  -3  174.53   11.26
   3   5  -3  137.36    9.00
  -3  -5   2   14.44    2.77
   3   5  -2   16.62    2.75
   3   5  -2   17.15    2.95
   3   5  -2   11.74    2.60
   3   5  -2   13.92    3.90
   3   5  -2   17.49    2.77
  -3  -5   2   15.29    3.51
   3   5  -1  109.94    7.87
   3   5  -1   95.11    7.00
   3   5  -1  122.16    7.63
   3   5  -1  126.50    8.42
   3   5  -1  101.83    6.56
  -3  -5   1   85.00    8.74
  -3  -5   1  104.69    7.71
   3   5   0   50.39    5.04
   3   5   0   48.87    3.76
   3   5   0   38.84    4.07
  -3  -5   0   39.69    5.78
  -3  -5   0   38.83    4.29
   3   5   1   33.33    4.38
   3   5   1   28.01    2.94
   3   5   1   26.34    3.47
  -3  -5  -1   23.57    4.24
  -3  -5  -2    2.10    1.70
   3   5   2    3.86    1.25
   3   5   2    5.08    1.58
  -3  -5  -2    4.30    1.67
  -3  -5  -3  289.03   19.45
   3   5   3  327.83   13.87
   3   5   3  345.91   16.23
  -3  -5  -3  292.17   17.83
  -3  -5  -4  202.16   11.05
  -3  -5  -4  202.40   11.16
  -3  -5  -4  175.57   15.48
  -3  -5  -4  189.15   10.73
  -3  -5  -4  197.84   10.85
   3   5   4  213.40   10.68
   3   5   4  220.16   12.40
  -3  -5  -4  188.79   10.71
  -3  -5  -4  191.40   13.50
  -3  -5  -5   45.37    4.77
  -3  -5  -5   47.64    4.91
  -3  -5  -5   51.33    4.96
  -3  -5  -5   46.67    7.95
   3   5   5   66.12    7.21
  -3  -5  -5   69.80    5.43
  -3  -5  -5   47.16    4.79
   3   5   5   53.47    4.99
   3   5   5   67.00    6.26
  -3  -5  -5   46.62    4.80
  -3  -5  -6  301.32   15.20
  -3  -5  -6  291.96   15.19
  -3  -5  -6  293.13   14.92
   3   5   6  427.28   19.97
  -3  -5  -6  244.87   20.83
  -3  -5  -6  410.87   15.54
   3   5   6  298.41   15.24
  -3  -5  -6  305.93   15.19
   3   5   6  341.56   16.60
  -3  -5  -6  272.67   14.73
   3   5   7   23.80    3.07
  -3  -5  -7   22.28    3.40
  -3  -5  -7   22.28    3.38
   3   5   7   26.96    4.45
  -3  -5  -7   17.63    2.90
   3   5   7   20.08    3.33
  -3  -5  -7   24.10    3.60
   3   5   7   21.13    3.38
  -3  -5  -7   19.09    3.18
   3   5   8    2.15    1.03
  -3  -5  -8    3.08    1.23
  -3  -5  -8    2.40    1.23
  -3  -5  -8    2.98    1.48
   3   5   8    2.11    1.44
  -3  -5  -8    2.37    1.15
   3   5   8    1.71    1.06
  -3  -5  -8    1.75    0.88
   3   5   9   61.86    5.15
  -3  -5  -9   57.72    5.48
  -3  -5  -9   62.10    5.70
  -3  -5  -9   56.57    5.23
   3   5   9   66.61    5.10
  -3  -5  -9   54.01    5.28
   3   5   9   60.53    4.42
  -3  -5  -9   53.78    5.28
   3   5  10   10.70    1.90
  -3  -5 -10   12.33    2.28
  -3  -5 -10   14.00    2.42
  -3  -5 -10   10.94    2.04
   3   5  10   10.86    1.91
  -3  -5 -10    9.80    2.00
   3   5  10   13.99    1.88
  -3  -5 -10   11.77    2.16
   3   5  11   55.64    4.21
  -3  -5 -11   51.57    4.17
  -3  -5 -11   50.94    4.25
  -3  -5 -11   41.38    3.64
   3   5  11   46.35    3.71
   3   5  11   48.43    4.41
  -3  -5 -11   49.30    4.11
   3   5  11   52.26    3.51
  -3  -5 -12   13.02    1.59
  -3  -5 -12   13.94    1.71
   3   5  12   13.82    1.65
   3   5  12   13.11    1.74
  -3  -5 -12   13.74    1.65
   3   5  12   15.80    1.79
   3   6 -11    5.55    0.99
   3   6 -11    5.76    0.96
   3   6 -11    4.96    0.91
  -3  -6  11    5.19    0.83
  -3  -6  10    0.82    0.40
   3   6 -10    0.94    0.60
  -3  -6  10    1.36    0.52
   3   6 -10    0.72    0.46
   3   6 -10    0.34    0.17
  -3  -6  10    1.20    0.56
  -3  -6   9   14.41    2.06
  -3  -6   9   14.97    1.85
   3   6  -9   13.05    1.89
   3   6  -9   15.83    2.43
  -3  -6   9   17.18    2.17
  -3  -6   8   13.88    2.20
   3   6  -8   16.19    2.31
  -3  -6   8   15.89    2.23
   3   6  -7   15.20    3.40
  -3  -6   7   18.56    2.62
   3   6  -7   19.81    3.83
  -3  -6   7   15.26    2.51
  -3  -6   7   15.59    2.54
   3   6  -7   18.19    4.43
  -3  -6   7   16.91    2.37
   3   6  -6    1.73    0.87
  -3  -6   6    3.28    1.07
  -3  -6   6    2.80    0.91
  -3  -6   6    3.65    1.07
   3   6  -6    2.85    2.18
  -3  -6   6    2.40    0.88
  -3  -6   5   18.41    2.54
  -3  -6   5   23.18    3.44
  -3  -6   5   19.01    3.05
  -3  -6   5   17.34    2.66
  -3  -6   5   19.36    2.84
   3   6  -5   14.48    3.99
  -3  -6   5   22.39    2.78
   3   6  -5   23.19    4.20
   3   6  -5   22.01    4.04
  -3  -6   4  139.47    8.02
   3   6  -4  165.84   11.75
  -3  -6   4  190.50   10.54
  -3  -6   4  156.55    9.78
  -3  -6   4  139.15    8.66
   3   6  -4  134.91   11.12
  -3  -6   4  153.98    8.93
   3   6  -4  156.64   14.27
  -3  -6   4  151.12    8.21
  -3  -6   4  187.21   12.75
  -3  -6   4  143.90   12.27
   3   6  -4  159.74   11.66
   3   6  -4  169.95   12.20
   3   6  -3  143.79   10.30
  -3  -6   3  162.92    9.48
  -3  -6   3  155.68    9.52
  -3  -6   3  133.80    8.69
  -3  -6   3  132.04    8.00
  -3  -6   3  130.57    7.88
   3   6  -3  107.16    9.51
   3   6  -3  111.16   12.21
  -3  -6   3  136.92    7.43
  -3  -6   3  120.66   11.25
  -3  -6   3  164.57   11.42
   3   6  -3  152.52   11.24
   3   6  -3  132.32    9.20
   3   6  -2   83.75    7.09
  -3  -6   2   91.86    6.77
  -3  -6   2   79.82    6.55
  -3  -6   2   79.02    6.24
   3   6  -2   89.20    7.40
  -3  -6   2   70.87    5.41
   3   6  -2   72.14    7.08
   3   6  -2   98.32   11.47
   3   6  -2   90.65    7.13
  -3  -6   2   77.17    5.01
  -3  -6   2   69.53    8.35
  -3  -6   2   91.72    7.94
   3   6  -1   58.52    5.95
  -3  -6   1   56.53    5.41
  -3  -6   1   57.98    5.30
  -3  -6   1   57.98    5.40
  -3  -6   1   57.23    5.12
   3   6  -1   71.93    6.14
   3   6  -1   70.86    6.00
   3   6  -1   67.32    9.47
   3   6  -1   53.49    5.68
  -3  -6   1   50.80    6.91
  -3  -6   1   69.28    6.60
   3   6   0   17.02    3.17
  -3  -6   0   16.90    2.84
  -3  -6   0   16.09    2.72
  -3  -6   0   12.83    2.33
   3   6   0   19.92    3.26
  -3  -6   0   20.77    2.74
   3   6   0   20.93    3.60
   3   6   0   17.55    2.72
  -3  -6   0   11.49    3.11
  -3  -6  -1   35.20    4.04
  -3  -6  -1   37.13    4.21
  -3  -6  -1   32.42    3.78
  -3  -6  -1   32.06    3.83
   3   6   1   38.98    4.86
  -3  -6  -1   45.40    4.26
   3   6   1   52.95    6.06
   3   6   1   33.26    4.05
  -3  -6  -1   27.61    5.00
  -3  -6  -2   90.75    6.97
  -3  -6  -2   87.29    9.84
  -3  -6  -2   93.13    7.13
  -3  -6  -2   94.08    6.92
  -3  -6  -2   92.29    6.95
   3   6   2  132.70    9.50
  -3  -6  -2   95.35    6.79
  -3  -6  -2  150.16    8.19
   3   6   2  101.75    7.67
  -3  -6  -2   76.02    8.72
  -3  -6  -3   56.22    5.31
  -3  -6  -3   55.38    5.27
  -3  -6  -3   52.56    7.86
  -3  -6  -3   53.62    4.94
  -3  -6  -3   56.31    5.28
   3   6   3   75.94    7.25
  -3  -6  -3   49.99    4.75
  -3  -6  -3   74.33    5.73
  -3  -6  -3   55.63    5.19
   3   6   3   53.09    5.47
  -3  -6  -3   38.74    6.06
  -3  -6  -4  161.60   10.02
  -3  -6  -4  157.14    9.67
  -3  -6  -4  125.35   13.49
  -3  -6  -4  157.34    9.91
  -3  -6  -4  145.85    9.42
   3   6   4  213.78   13.16
  -3  -6  -4  149.09    9.11
  -3  -6  -4  222.48   10.75
  -3  -6  -4  158.18    9.79
   3   6   4  166.99   10.73
  -3  -6  -4  155.62   12.69
  -3  -6  -5  228.43   12.80
  -3  -6  -5  221.77   12.27
  -3  -6  -5  226.51   12.73
  -3  -6  -5  217.37   12.29
  -3  -6  -5  193.93   17.97
   3   6   5  319.82   16.76
  -3  -6  -5  233.78   12.04
  -3  -6  -5  313.31   13.31
   3   6   5  247.60   12.77
  -3  -6  -5  216.18   12.44
   3   6   5  253.12   13.82
  -3  -6  -6  132.20    9.18
  -3  -6  -6  139.43    8.97
  -3  -6  -6  137.89    9.44
  -3  -6  -6  122.00    8.79
   3   6   6  179.90   12.11
  -3  -6  -6  181.54    9.43
   3   6   6  133.92    9.36
  -3  -6  -6  129.73    9.15
   3   6   6  148.53   10.03
   3   6   7   67.94    5.40
  -3  -6  -7   63.86    5.99
  -3  -6  -7   70.10    5.86
  -3  -6  -7   64.52    6.13
  -3  -6  -7   58.52    5.66
   3   6   7   79.81    7.82
  -3  -6  -7   88.48    5.90
   3   6   7   63.46    6.43
  -3  -6  -7   63.69    6.02
   3   6   7   69.25    6.45
   3   6   8  120.95    7.55
  -3  -6  -8  110.06    8.14
  -3  -6  -8  115.99    8.30
  -3  -6  -8   99.19    7.53
   3   6   8  121.92    7.41
  -3  -6  -8  118.53    8.33
   3   6   9   21.49    2.84
  -3  -6  -9   25.90    3.39
  -3  -6  -9   25.34    3.38
  -3  -6  -9   19.70    2.91
   3   6   9   21.10    2.69
  -3  -6  -9   22.57    3.21
   3   6  10   12.62    1.95
  -3  -6 -10   12.52    2.16
  -3  -6 -10   14.73    2.23
  -3  -6 -10   11.12    1.85
   3   6  10   11.84    1.86
   3   6  10   15.46    2.55
  -3  -6 -10   12.29    2.08
  -3  -6 -11   33.89    3.02
  -3  -6 -11   32.02    3.00
   3   6  11   29.02    2.41
   3   6  11   36.61    3.03
   3   6  11   35.61    3.48
  -3  -6 -11   34.30    3.07
   3   6  11   36.05    3.01
  -3  -7  10   52.93    3.36
   3   7 -10   56.11    3.57
   3   7 -10   55.28    3.70
  -3  -7  10   55.71    3.32
  -3  -7   9   25.43    2.50
   3   7  -9   24.32    2.78
   3   7  -9   24.35    2.48
  -3  -7   9   27.41    2.54
  -3  -7   8    1.50    0.62
   3   7  -8    1.07    0.52
  -3  -7   8    0.69    0.24
  -3  -7   7   10.64    1.88
  -3  -7   7   13.15    2.20
  -3  -7   7   11.40    2.04
  -3  -7   7   11.10    1.79
   3   7  -7   13.05    2.20
  -3  -7   6  201.53   10.43
  -3  -7   6  238.95   12.03
  -3  -7   6  220.26   11.31
   3   7  -6  232.73   17.62
  -3  -7   6  227.91   10.65
   3   7  -6  219.41   11.28
   3   7  -6  218.23   14.49
  -3  -7   5  125.65    7.51
  -3  -7   5  169.72   10.05
  -3  -7   5  136.77    8.99
  -3  -7   5  131.92    8.34
  -3  -7   5  120.43    8.02
   3   7  -5  144.98   14.24
  -3  -7   5  134.68    7.63
   3   7  -5  144.36   11.36
   3   7  -4    8.51    2.69
  -3  -7   4    7.41    1.56
  -3  -7   4    8.97    2.15
  -3  -7   4    8.97    2.00
  -3  -7   4    7.54    1.88
  -3  -7   4    7.14    1.80
  -3  -7   4    6.21    1.52
   3   7  -4    7.99    3.39
  -3  -7   4    8.60    1.60
   3   7  -4    9.92    2.78
  -3  -7   3   97.12    7.35
  -3  -7   3   86.33    7.14
  -3  -7   3   86.80    6.92
   3   7  -3  117.82    9.26
  -3  -7   3   82.59    6.13
  -3  -7   3   81.30    6.09
   3   7  -3   76.14   10.63
  -3  -7   3   86.52    5.59
  -3  -7   3   79.50    9.30
  -3  -7   3  120.67   10.09
   3   7  -3  105.73    9.66
  -3  -7   2   39.61    4.42
  -3  -7   2   35.82    4.42
  -3  -7   2   35.44    4.16
  -3  -7   2   40.08    3.88
   3   7  -2   39.58    4.98
  -3  -7   2   34.63    3.65
   3   7  -2   27.08    4.46
   3   7  -2   32.59    6.84
   3   7  -2   37.75    4.85
  -3  -7   2   31.40    5.67
  -3  -7   2   37.74    5.37
   3   7  -2   38.50    4.94
   3   7  -1   29.95    4.39
  -3  -7   1   31.54    4.19
  -3  -7   1   31.32    3.99
  -3  -7   1   30.18    4.00
  -3  -7   1   28.50    3.60
   3   7  -1   36.67    4.67
  -3  -7   1   25.18    3.02
   3   7  -1   34.30    7.44
   3   7  -1   30.45    4.49
  -3  -7   1   26.80    5.23
   3   7   0   22.59    3.93
  -3  -7   0   19.37    3.23
  -3  -7   0   22.12    3.24
  -3  -7   0   20.46    3.26
  -3  -7   0   19.43    2.90
   3   7   0   21.13    3.70
   3   7   0   21.82    5.88
   3   7   0   22.94    3.95
  -3  -7   0   16.90    4.14
   3   7   1  100.40    8.81
  -3  -7  -1   90.83    7.36
  -3  -7  -1   91.90    7.08
  -3  -7  -1   84.32    6.97
  -3  -7  -1   82.98    6.40
   3   7   1  102.75    8.62
  -3  -7  -1   91.86    7.16
  -3  -7  -1  128.75    7.82
   3   7   1  115.60    9.59
  -3  -7  -1   74.75    9.04
  -3  -7  -2   48.55    5.06
  -3  -7  -2   41.54    4.77
  -3  -7  -2   46.24    4.87
  -3  -7  -2   46.43    4.94
  -3  -7  -2   42.08    4.25
   3   7   2   50.91    6.02
  -3  -7  -2   50.61    5.03
  -3  -7  -2   63.43    5.40
   3   7   2   67.80    7.41
  -3  -7  -2   37.59    6.30
  -3  -7  -3  279.48   14.69
  -3  -7  -3  285.91   14.77
  -3  -7  -3  253.96   20.04
  -3  -7  -3  277.28   14.21
  -3  -7  -3  275.67   14.37
   3   7   3  326.80   17.52
  -3  -7  -3  266.07   13.98
  -3  -7  -3  381.97   15.47
   3   7   3  278.50   15.07
   3   7   3  418.58   20.32
  -3  -7  -3  255.89   18.15
  -3  -7  -4   45.26    5.06
  -3  -7  -4   48.46    5.14
  -3  -7  -4   50.10    4.94
  -3  -7  -4   43.30    4.81
   3   7   4   58.09    6.69
  -3  -7  -4   50.07    5.01
  -3  -7  -4   56.63    5.12
  -3  -7  -4   43.21    4.88
   3   7   4   48.76    5.43
   3   7   4   68.46    7.70
  -3  -7  -5  273.10   14.56
  -3  -7  -5  272.02   14.34
  -3  -7  -5  265.43   14.30
   3   7   5  297.55   12.89
  -3  -7  -5  273.09   13.88
  -3  -7  -5  269.64   14.53
  -3  -7  -6   39.95    4.70
  -3  -7  -6   39.54    4.53
  -3  -7  -6   41.26    4.67
   3   7   6   52.06    6.42
   3   7   6   46.62    4.17
  -3  -7  -6   43.50    4.46
  -3  -7  -6   41.39    4.77
  -3  -7  -7   99.96    7.53
  -3  -7  -7   90.76    6.90
  -3  -7  -7   89.61    7.09
   3   7   7   78.58    5.92
  -3  -7  -7   98.60    6.78
  -3  -7  -7   98.90    7.42
  -3  -7  -8    1.97    0.87
  -3  -7  -8    1.19    0.47
  -3  -7  -8    1.58    0.94
   3   7   8    0.79    0.34
   3   7   8    1.10    0.69
  -3  -7  -8    1.08    0.53
  -3  -7  -9    3.14    0.97
  -3  -7  -9    4.99    1.40
   3   7   9    4.80    1.22
   3   7   9    4.14    1.41
  -3  -7  -9    4.39    1.26
  -3  -7 -10   26.51    2.84
  -3  -7 -10   25.45    2.74
   3   7  10   24.03    2.48
   3   7  10   24.24    2.54
   3   7  10   24.81    3.07
  -3  -7 -10   24.39    2.71
   3   7  10   30.78    2.67
  -3  -7 -11   65.26    3.84
  -3  -7 -11   56.00    3.56
   3   7  11   71.69    3.94
   3   7  11   67.65    4.40
  -3  -8   9   22.13    1.99
   3   8  -9   22.61    2.11
   3   8  -9   21.42    2.04
   3   8  -9   20.10    2.17
  -3  -8   9   20.98    1.83
  -3  -8   8    9.24    1.42
   3   8  -8    8.54    1.48
  -3  -8   8    9.70    1.41
  -3  -8   7   60.91    4.33
   3   8  -7   64.36    4.74
  -3  -8   7   61.94    4.74
  -3  -8   7   69.27    4.47
   3   8  -7   69.03    4.91
  -3  -8   6   53.81    4.15
  -3  -8   6   59.00    4.93
  -3  -8   6   49.11    4.42
  -3  -8   6   58.44    4.22
   3   8  -6   50.11    4.51
  -3  -8   5  185.36    9.07
  -3  -8   5  158.15    9.98
  -3  -8   5  188.50   10.06
  -3  -8   5  179.81    9.86
   3   8  -5  216.60   17.85
   3   8  -5  189.51    9.97
  -3  -8   5  204.15    9.26
   3   8  -5  190.74   13.41
   3   8  -4    9.13    2.99
  -3  -8   4    9.53    2.25
  -3  -8   4   11.67    2.50
  -3  -8   4    9.79    1.98
  -3  -8   4    7.07    1.60
   3   8  -4    7.69    2.88
   3   8  -3    4.88    2.19
  -3  -8   3    8.04    2.06
  -3  -8   3    8.97    2.05
  -3  -8   3    4.60    1.36
  -3  -8   3    7.63    1.65
  -3  -8   3    6.48    1.68
   3   8  -3    7.47    2.64
   3   8  -2    7.92    2.69
  -3  -8   2    7.57    2.01
  -3  -8   2    7.27    1.80
  -3  -8   2    7.73    1.75
  -3  -8   2    6.24    1.49
  -3  -8   2    6.54    1.58
   3   8  -2    4.42    3.20
   3   8  -2    9.21    2.58
  -3  -8   1  112.21    7.91
  -3  -8   1  103.84    8.02
  -3  -8   1  106.36    7.63
  -3  -8   1   91.25    6.30
   3   8  -1   91.21   12.55
   3   8  -1  108.10    9.40
   3   8  -1  116.34    9.33
   3   8   0   83.60    7.99
  -3  -8   0   78.11    6.95
  -3  -8   0   74.60    6.35
  -3  -8   0   68.68    6.33
  -3  -8   0   63.78    5.78
   3   8   0   92.48    8.70
   3   8   0   79.97   11.69
   3   8   0   75.55    7.87
   3   8   1  225.29   14.07
  -3  -8  -1  200.87   12.03
  -3  -8  -1  187.02   11.06
  -3  -8  -1  185.82   11.35
  -3  -8  -1  180.62   10.57
   3   8   1  221.82   14.21
   3   8   1  227.37   20.90
   3   8   1  208.08   14.06
   3   8   2   63.26    7.12
  -3  -8  -2   55.99    5.71
  -3  -8  -2   60.07    5.64
  -3  -8  -2   64.88    5.96
  -3  -8  -2   52.46    4.99
   3   8   2   62.02    7.27
  -3  -8  -2   56.31    5.57
   3   8   2   76.90   12.05
   3   8   2   70.35    7.72
  -3  -8  -3  163.31   10.63
  -3  -8  -3  169.45   10.79
  -3  -8  -3  167.53   10.39
  -3  -8  -3  179.40   10.69
  -3  -8  -3  174.16   10.52
   3   8   3  195.22   13.79
  -3  -8  -4   46.81    5.12
  -3  -8  -4   54.69    5.55
  -3  -8  -4   54.43    5.14
  -3  -8  -4   48.76    5.05
   3   8   4   60.16    7.27
  -3  -8  -4   46.63    4.97
   3   8   4   52.87    5.49
   3   8   4   57.18    7.14
  -3  -8  -5   53.94    5.40
  -3  -8  -5   54.62    5.45
  -3  -8  -5   48.90    4.99
   3   8   5   58.18    7.05
  -3  -8  -5   51.24    5.04
   3   8   5   50.49    5.54
   3   8   5   59.67    7.09
  -3  -8  -6   37.41    4.35
  -3  -8  -6   35.04    4.11
  -3  -8  -6   34.62    4.02
  -3  -8  -6   32.42    3.81
   3   8   6   32.54    4.36
  -3  -8  -7   18.45    2.81
  -3  -8  -7   20.41    2.90
  -3  -8  -7   19.59    2.84
   3   8   7   21.26    2.61
  -3  -8  -7   18.17    2.65
   3   8   7   20.80    3.31
  -3  -8  -7   20.85    3.04
  -3  -8  -8   11.45    2.05
  -3  -8  -8   11.11    1.85
  -3  -8  -8    8.64    1.73
   3   8   8    8.96    1.76
   3   8   8    9.05    1.56
  -3  -8  -8    8.13    1.50
   3   8   8   10.94    2.20
  -3  -8  -9   67.67    4.81
  -3  -8  -9   66.43    4.61
   3   8   9   66.47    4.65
   3   8   9   73.51    4.57
   3   8   9   73.77    5.60
  -3  -8 -10  108.52    5.57
  -3  -8 -10  105.41    5.26
   3   8  10  112.49    5.47
   3   8  10  121.18    6.44
   3   9  -8   25.12    2.22
   3   9  -8   25.21    2.36
  -3  -9   7   30.16    2.33
   3   9  -7   30.27    2.82
   3   9  -7   26.94    2.60
  -3  -9   6   20.69    2.43
  -3  -9   6   21.21    2.48
   3   9  -6   19.09    2.42
  -3  -9   5   16.77    2.45
  -3  -9   5   18.40    2.49
   3   9  -5   17.77    2.47
   3   9  -5   19.39    2.65
  -3  -9   4   55.05    5.08
  -3  -9   4   50.39    4.39
  -3  -9   4   51.18    4.40
   3   9  -4   56.42    4.87
  -3  -9   3   56.05    5.01
  -3  -9   3   46.42    4.86
  -3  -9   3   43.99    4.65
  -3  -9   3   43.24    4.00
  -3  -9   3   41.39    3.93
   3   9  -3   43.39    8.05
   3   9  -3   58.74    7.02
   3   9  -2   20.47    4.17
  -3  -9   2   15.73    2.93
  -3  -9   2   17.08    2.80
  -3  -9   2   14.71    2.55
  -3  -9   2   13.21    2.15
   3   9  -2   17.27    5.17
   3   9  -2   15.22    3.42
  -3  -9   1   74.80    6.08
  -3  -9   1   75.00    6.55
  -3  -9   1   71.55    6.09
   3   9  -1   64.10   10.33
   3   9  -1   78.48    8.09
   3   9  -1   97.70    9.52
  -3  -9   0  264.11   14.30
  -3  -9   0  272.14   13.49
  -3  -9   0  262.08   13.99
  -3  -9   0  246.06   13.07
   3   9   0  230.52   21.12
   3   9   0  277.94   16.84
   3   9   1  131.73    8.19
  -3  -9  -1  120.75    8.77
  -3  -9  -1  112.05    7.83
  -3  -9  -1  114.89    8.36
  -3  -9  -1  106.92    7.54
   3   9   1  139.13   11.91
   3   9   1  144.97   15.94
   3   9   1  126.11   10.73
  -3  -9  -2  377.26   18.26
  -3  -9  -2  392.77   17.51
  -3  -9  -2  384.41   17.90
  -3  -9  -2  363.49   16.76
   3   9   2  461.04   23.08
   3   9   2  463.99   30.19
   3   9   2  435.19   22.04
  -3  -9  -3   33.70    4.24
  -3  -9  -3   36.32    4.06
  -3  -9  -3   27.24    3.69
  -3  -9  -3   32.34    3.55
   3   9   3   27.48    3.38
  -3  -9  -3   34.23    4.09
   3   9   3   35.46    7.71
   3   9   3   33.64    5.25
  -3  -9  -4   51.74    5.15
  -3  -9  -4   48.11    4.61
  -3  -9  -4   45.96    4.53
   3   9   4   44.52    4.38
  -3  -9  -4   49.97    4.88
  -3  -9  -5   36.07    4.10
  -3  -9  -5   37.37    4.16
  -3  -9  -5   31.45    3.57
  -3  -9  -5   30.97    3.38
   3   9   5   30.22    3.61
  -3  -9  -5   36.34    3.94
   3   9   5   36.68    4.21
  -3  -9  -6   35.41    3.84
  -3  -9  -6   39.26    4.06
  -3  -9  -6   30.59    3.34
   3   9   6   35.69    3.68
  -3  -9  -6   33.14    3.54
   3   9   6   40.14    4.31
  -3  -9  -7    0.33    0.29
  -3  -9  -7    1.62    0.88
  -3  -9  -7    0.23    0.26
   3   9   7    0.65    0.31
  -3  -9  -7    0.16    0.19
   3   9   7    0.23    0.67
  -3  -9  -8   22.82    2.54
   3   9   8   29.11    2.91
  -3  -9  -8   23.07    2.37
  -3  -9  -8   24.14    2.36
   3   9   8   28.05    2.81
  -3  -9  -8   23.99    2.30
   3   9   8   25.86    2.97
   3   9   9   69.38    4.12
   3  10  -7    3.83    0.79
   3  10  -7    2.96    0.71
   3  10  -6    0.53    0.41
   3  10  -6    0.99    0.40
  -3 -10   5  105.14    5.79
  -3 -10   5  100.72    5.60
   3  10  -5  102.51    5.92
   3  10  -5  101.90    6.01
  -3 -10   4  155.89    7.54
   3  10  -4  158.43    8.26
  -3 -10   3  174.05    9.43
  -3 -10   3  156.32    8.02
   3  10  -3  181.92    9.42
  -3 -10   2   74.10    5.84
  -3 -10   2   73.49    5.57
  -3 -10   2   64.49    4.50
   3  10  -1    8.10    1.69
  -3 -10   1   10.41    2.16
  -3 -10   1   10.31    1.84
  -3 -10   1    8.43    1.81
   3  10   0   34.73    3.86
  -3 -10   0   44.25    3.99
  -3 -10   0   37.23    4.18
  -3 -10   0   39.83    4.01
   3  10   1   24.31    3.24
  -3 -10  -1   28.88    3.19
  -3 -10  -1   22.66    3.21
  -3 -10  -1   24.59    3.06
   3  10   2   35.11    3.69
  -3 -10  -2   29.85    3.75
  -3 -10  -2   32.48    3.38
  -3 -10  -2   26.21    3.44
  -3 -10  -2   31.63    3.38
   3  10   3   16.88    2.56
  -3 -10  -3   16.41    2.66
  -3 -10  -3   18.25    2.40
  -3 -10  -3   15.73    2.56
  -3 -10  -3   13.62    2.03
   3  10   3   16.97    2.37
   3  10   4   21.55    2.88
  -3 -10  -4   23.30    3.07
  -3 -10  -4   25.17    2.72
  -3 -10  -4   22.65    2.76
   3  10   4   25.57    2.90
   3  10   5   73.30    5.36
  -3 -10  -5   65.26    5.10
  -3 -10  -5   70.60    4.54
  -3 -10  -5   57.62    4.23
   3  10   5   67.37    4.90
   3  10   6   14.86    2.09
   3  10   6   14.03    2.05
  -3 -10  -6   13.08    1.97
   3  10   6   13.79    1.95
   3  10   7    9.90    1.39
   3  10   7   12.13    1.72
  -3 -10  -7   11.12    1.54
   3  10   7   11.93    1.66
   3  11  -4   71.22    4.31
   3  11  -4   73.36    4.41
  -3 -11   3   49.78    3.71
   3  11  -3   54.49    3.99
   3  11  -3   59.30    4.11
  -3 -11   2   63.30    4.52
   3  11  -2   60.24    4.48
   3  11  -1   36.20    3.15
  -3 -11   1   35.47    3.40
  -3 -11   1   37.55    3.33
   3  11   0    0.81    0.25
  -3 -11   0    0.70    0.61
  -3 -11   0    0.77    0.40
   3  11   1   66.18    4.88
  -3 -11  -1   65.82    4.86
  -3 -11  -1   61.22    4.33
   3  11   2    7.35    1.46
   3  11   2    6.78    1.32
  -3 -11  -2    6.32    1.33
  -3 -11  -2    4.42    0.96
   3  11   3   30.59    3.09
   3  11   3   31.84    2.88
  -3 -11  -3   28.86    2.82
   3  11   4   41.43    3.51
   3  11   4   49.66    3.63
  -3 -11  -4   39.78    3.01
   3  11   5    8.32    1.36
   3  11   5    8.36    1.31
  -4   8   3    3.72    1.01
   4  -8  -3    2.96    0.76
   4  -8  -3    3.05    0.61
  -4   8   3    3.87    1.26
  -4   8   2   18.02    2.36
   4  -8  -2   16.87    1.88
   4  -8  -2   17.82    1.75
  -4   8   2   20.55    2.72
  -4   8   1   -0.41    0.63
  -4   8   1    0.62    0.37
   4  -8  -1   -0.17    0.34
  -4   8   1    0.55    0.62
  -4   8   1   -0.38    0.49
  -4   8   0   15.46    2.18
  -4   8   0   14.77    2.14
  -4   8   0   17.48    2.39
   4  -8   0   15.42    1.86
  -4   8   0   13.94    2.30
  -4   8   0   14.89    2.43
  -4   8   0   16.47    2.48
   4  -8   0   13.40    1.63
  -4   8   0   17.01    2.55
  -4   8   0   14.53    1.99
   4  -8   1    9.75    1.08
  -4   8  -1   15.23    2.28
  -4   8  -1   13.53    2.13
   4  -8   1   11.66    1.59
  -4   8  -1   11.14    1.83
  -4   8  -1   10.32    2.09
  -4   8  -1   11.51    2.23
  -4   8  -1    9.31    1.78
   4  -8   1   10.12    1.37
  -4   8  -1   10.65    2.04
  -4   8  -1   11.29    1.78
   4  -8   2   20.57    1.67
  -4   8  -2   32.75    3.37
  -4   8  -2   22.29    2.80
  -4   8  -2   24.59    2.46
   4  -8   2   22.10    2.08
  -4   8  -2   25.57    3.22
  -4   8  -2   22.09    2.89
  -4   8  -2   22.06    2.91
   4  -8   2   21.66    2.07
  -4   8  -2   23.10    2.61
   4  -8   3   26.66    1.98
  -4   8  -3   35.65    3.46
  -4   8  -3   32.29    3.26
   4  -8   3   32.00    2.45
  -4   8  -3   27.14    2.74
   4  -8   4   20.06    1.65
  -4   8  -4   26.16    2.72
  -4   8  -4   25.14    2.63
  -4   8  -4   24.73    2.34
   4  -7  -6   42.73    2.89
   4  -7  -6   42.60    2.69
   4  -7  -5    6.38    1.18
  -4   7   5    4.61    1.16
   4  -7  -5    7.15    1.16
  -4   7   5    5.70    1.18
   4  -7  -5    5.76    0.89
  -4   7   5    6.25    1.39
   4  -7  -4    5.83    1.18
  -4   7   4    7.32    1.57
   4  -7  -4    7.46    1.36
  -4   7   4    7.09    1.32
   4  -7  -4    4.09    0.80
  -4   7   4    7.98    1.80
   4  -7  -3   19.38    2.29
  -4   7   3   22.41    3.14
   4  -7  -3   21.14    2.39
  -4   7   3   26.82    2.82
   4  -7  -3   15.34    2.33
   4  -7  -3   20.46    2.07
  -4   7   3   23.31    3.36
   4  -7  -2   71.17    4.69
  -4   7   2   78.12    6.34
   4  -7  -2   69.48    4.73
  -4   7   2   84.59    7.08
  -4   7   2   74.83    5.01
  -4   7   2   70.60    6.36
   4  -7  -2   67.82    4.25
  -4   7   2   79.93    6.80
   4  -7  -1   30.77    2.20
  -4   7   1   35.90    3.81
  -4   7   1   30.51    3.65
  -4   7   1   34.98    4.11
   4  -7  -1   29.64    3.02
  -4   7   1   33.65    4.47
  -4   7   1   33.88    4.37
  -4   7   1   36.62    4.55
   4  -7  -1   18.58    2.96
   4  -7  -1   32.74    2.85
  -4   7   1   36.49    4.55
   4  -7   0   30.53    2.33
  -4   7   0   33.35    3.97
  -4   7   0   33.34    4.02
  -4   7   0   33.97    4.08
   4  -7   0   34.91    3.29
  -4   7   0   35.95    4.81
  -4   7   0   35.54    4.51
  -4   7   0   33.58    4.52
  -4   7   0   32.30    4.31
   4  -7   0   20.23    3.16
   4  -7   0   33.03    2.93
   4  -7   1   17.54    1.77
  -4   7  -1   20.81    3.26
  -4   7  -1   20.08    3.57
  -4   7  -1   17.56    2.99
  -4   7  -1   15.43    2.64
   4  -7   1   19.17    2.09
   4  -7   1   15.50    2.14
  -4   7  -1   17.30    3.29
  -4   7  -1   15.67    3.04
   4  -7   1   16.56    2.05
  -4   7  -1   18.48    3.14
   4  -7   2   52.36    3.32
  -4   7  -2   55.13    5.43
  -4   7  -2   52.25    5.21
  -4   7  -2   53.61    4.95
   4  -7   2   49.24    3.59
   4  -7   2   48.42    3.89
  -4   7  -2   54.39    5.92
  -4   7  -2   55.03    5.75
  -4   7  -2   46.30    5.26
   4  -7   2   50.47    3.77
  -4   7  -2   46.46    4.95
   4  -7   3    1.90    0.51
  -4   7  -3    3.04    1.15
  -4   7  -3    2.29    1.25
  -4   7  -3    3.40    1.08
   4  -7   3    1.99    0.71
  -4   7  -3    3.02    1.40
  -4   7  -3    3.48    1.71
  -4   7  -3    2.33    1.12
   4  -7   3    2.69    0.66
  -4   7  -3    2.21    0.90
   4  -7   4   20.79    1.98
  -4   7  -4   26.55    3.52
  -4   7  -4   23.84    3.20
   4  -7   4   18.98    2.06
  -4   7  -4   21.35    3.41
  -4   7  -4   20.97    3.32
  -4   7  -4   20.30    3.11
   4  -7   4   19.52    2.07
  -4   7  -4   20.03    2.69
   4  -7   5   33.03    2.50
  -4   7  -5   38.04    3.88
  -4   7  -5   32.23    3.47
   4  -7   5   28.26    2.47
  -4   7  -5   31.58    3.85
  -4   7  -5   33.82    3.83
  -4   7  -5   24.74    3.26
  -4   7  -5   25.47    3.21
  -4   7  -5   32.28    3.14
   4  -7   6    1.98    0.55
  -4   7  -6    4.77    1.16
  -4   7  -6    4.29    1.13
   4  -7   6    2.33    0.64
  -4   7  -6    3.65    0.89
  -4   6   7    0.55    0.50
   4  -6  -7    0.42    0.36
   4  -6  -7   -0.14    0.29
  -4   6   7    0.41    0.50
   4  -6  -6   20.83    2.29
  -4   6   6   20.48    2.49
   4  -6  -6   24.04    2.28
  -4   6   6   20.31    2.56
   4  -6  -6   20.23    1.76
  -4   6   6   21.07    2.76
  -4   6   6   19.64    2.62
   4  -6  -5   17.90    2.26
  -4   6   5   19.04    2.78
   4  -6  -5   18.61    2.18
  -4   6   5   18.98    2.70
   4  -6  -5   16.87    1.82
  -4   6   5   17.11    2.80
  -4   6   5   18.99    2.74
   4  -6  -4   41.57    3.64
  -4   6   4   39.33    4.42
   4  -6  -4   43.05    3.60
  -4   6   4   40.46    4.17
   4  -6  -4   35.98    2.98
  -4   6   4   44.66    5.04
  -4   6   4   36.70    4.18
  -4   6   3    0.78    0.44
   4  -6  -3    4.51    1.20
  -4   6   3    1.86    1.16
   4  -6  -3    2.33    0.87
  -4   6   3    4.25    1.50
   4  -6  -3    2.64    0.86
  -4   6   3    3.45    1.61
   4  -6  -2   26.65    2.93
  -4   6   2   26.05    3.96
   4  -6  -2   23.58    2.75
  -4   6   2   29.04    3.61
   4  -6  -2   14.63    2.59
   4  -6  -2   26.63    2.64
  -4   6   2   31.25    4.56
  -4   6   2   21.14    3.26
  -4   6   1   93.55    7.29
  -4   6   1   88.33    7.17
  -4   6   1   99.48    8.06
   4  -6  -1   96.72    6.19
  -4   6   1  112.02    9.31
  -4   6   1   97.75    6.83
  -4   6   1  110.65    8.97
   4  -6  -1  102.02    5.77
  -4   6   1  102.25    8.75
   4  -6   0   19.75    2.01
  -4   6   0   15.02    2.94
  -4   6   0   14.75    2.86
  -4   6   0   17.63    3.28
   4  -6   0   14.97    2.25
  -4   6   0   14.10    3.10
  -4   6   0   13.16    2.27
  -4   6   0   11.80    2.78
  -4   6   0   15.75    3.16
   4  -6   0    6.92    1.90
   4  -6   0   15.66    2.10
  -4   6   0   15.14    3.25
   4  -6   1   39.72    2.99
  -4   6  -1   35.58    4.76
  -4   6  -1   35.66    4.64
  -4   6  -1   37.91    4.74
   4  -6   1   34.59    3.46
  -4   6  -1   36.59    5.28
  -4   6  -1   39.71    5.25
  -4   6  -1   34.65    4.93
   4  -6   1   20.12    3.45
   4  -6   1   36.84    3.27
  -4   6  -1   37.78    5.05
   4  -6   2   21.90    2.20
  -4   6  -2   17.97    3.32
  -4   6  -2   20.97    3.54
  -4   6  -2   16.26    2.97
   4  -6   2   17.97    2.37
  -4   6  -2   15.93    3.41
  -4   6  -2   16.45    3.30
   4  -6   2   19.67    2.35
  -4   6  -2   19.45    3.52
  -4   6  -2   17.59    3.66
   4  -6   3    7.66    1.33
  -4   6  -3    7.10    2.07
  -4   6  -3    6.44    1.91
  -4   6  -3    7.71    1.80
  -4   6  -3    7.32    2.28
  -4   6  -3    9.28    2.47
  -4   6  -3    3.98    1.53
   4  -6   3    8.33    1.51
  -4   6  -3    4.56    1.35
   4  -6   4   10.74    1.47
  -4   6  -4   11.43    2.50
  -4   6  -4    9.36    2.22
  -4   6  -4    7.82    1.70
   4  -6   4   10.83    1.84
  -4   6  -4    9.90    2.69
  -4   6  -4    7.97    2.18
  -4   6  -4    8.74    2.35
   4  -6   4   11.53    1.71
  -4   6  -4    8.01    1.89
   4  -6   5    7.50    1.21
  -4   6  -5    6.75    2.02
   4  -6   5    7.31    1.03
  -4   6  -5    8.68    2.15
  -4   6  -5    8.57    2.23
  -4   6  -5    6.63    2.06
  -4   6  -5    7.62    1.96
  -4   6  -5    8.02    2.08
   4  -6   5    7.42    1.42
  -4   6  -5    7.25    1.71
  -4   6  -5    7.53    1.66
   4  -6   6   28.46    2.50
  -4   6  -6   32.81    3.86
  -4   6  -6   34.27    3.78
   4  -6   6   27.63    2.09
   4  -6   6   27.94    2.75
  -4   6  -6   25.56    3.71
  -4   6  -6   27.56    3.76
  -4   6  -6   26.78    3.66
  -4   6  -6   27.95    3.62
  -4   6  -6   28.10    3.07
  -4   6  -6   33.78    3.62
   4  -6   7   29.11    2.40
  -4   6  -7   31.56    3.32
  -4   6  -7   29.57    3.15
   4  -6   7   27.49    2.01
   4  -6   7   31.95    2.84
  -4   6  -7   28.13    3.52
  -4   6  -7   27.68    3.38
  -4   6  -7   26.04    3.21
  -4   6  -7   28.68    3.22
  -4   6  -7   31.15    2.67
  -4   6  -7   31.02    3.25
   4  -6   8  100.95    4.87
   4  -6   8  103.25    5.34
  -4   5   8    9.14    1.59
   4  -5  -8   10.63    1.42
   4  -5  -8    9.62    1.24
  -4   5   8    9.41    1.54
  -4   5   8    6.13    0.88
   4  -5  -7   29.79    2.76
   4  -5  -7   30.34    2.63
  -4   5   7   31.54    3.37
  -4   5   7   23.57    2.10
   4  -5  -7   30.64    2.18
  -4   5   7   25.51    3.15
  -4   5   6   13.60    2.45
   4  -5  -6   13.48    1.99
  -4   5   6   16.81    2.48
   4  -5  -6   17.51    2.15
  -4   5   6   12.68    1.56
  -4   5   6   14.08    2.43
   4  -5  -6   14.11    1.66
  -4   5   6   14.38    2.55
  -4   5   5    3.76    1.47
   4  -5  -5    3.06    0.90
  -4   5   5    2.32    1.06
   4  -5  -5    5.16    1.29
  -4   5   5    6.50    1.82
   4  -5  -5    6.45    1.21
  -4   5   5    5.68    1.76
  -4   5   4    2.93    1.36
   4  -5  -4    2.40    0.92
  -4   5   4    1.82    1.00
   4  -5  -4    3.79    1.16
  -4   5   4    4.38    1.56
   4  -5  -4    2.25    0.85
  -4   5   4    2.66    1.07
   4  -5  -3   99.04    6.42
  -4   5   3   99.80    8.14
   4  -5  -3  107.10    6.54
  -4   5   3   99.33    7.68
   4  -5  -3  121.54    6.21
  -4   5   3  102.20    8.82
  -4   5   3   96.49    7.87
   4  -5  -2  839.94   29.51
  -4   5   2  808.19   33.07
   4  -5  -2  831.93   29.53
  -4   5   2  816.31   31.78
   4  -5  -2  920.81   29.02
  -4   5   2  852.27   34.82
  -4   5   2  721.45   31.71
  -4   5   1   75.94    6.76
  -4   5   1   66.16    6.30
  -4   5   1   63.10    8.57
  -4   5   1   73.94    7.13
   4  -5  -1   83.25    5.62
  -4   5   1   75.62    6.36
   4  -5  -1   87.22    5.19
  -4   5   1   79.12    7.86
  -4   5   1   68.71    6.51
  -4   5   0   64.46    6.50
  -4   5   0   69.01    6.62
  -4   5   0   67.74    9.03
  -4   5   0   76.67    7.21
   4  -5   0   69.85    5.18
  -4   5   0   78.01    6.22
   4  -5   0   73.64    4.84
  -4   5   0   78.15    7.81
   4  -5   0   71.74    5.54
  -4   5  -1   94.27    8.28
  -4   5  -1  102.80    8.44
  -4   5  -1  101.37   11.55
  -4   5  -1  102.29    8.45
   4  -5   1  101.75    6.48
  -4   5  -1   99.43    7.17
   4  -5   1  111.79    6.17
  -4   5  -1  112.75    9.51
   4  -5   1  108.93    7.10
   4  -5   2    2.66    0.88
  -4   5  -2    1.93    1.29
  -4   5  -2    1.61    0.41
  -4   5  -2    4.20    2.40
  -4   5  -2    0.92    0.43
   4  -5   2    2.84    1.11
   4  -5   2    3.61    1.47
   4  -5   2    1.88    0.69
  -4   5  -2    1.80    1.31
   4  -5   2    3.22    1.10
  -4   5  -2    2.31    1.71
   4  -5   3   85.28    4.81
  -4   5  -3   72.74    7.25
  -4   5  -3   72.88    7.07
  -4   5  -3   76.24    6.70
  -4   5  -3   67.39    7.44
  -4   5  -3   67.26    7.24
  -4   5  -3   62.67    6.87
   4  -5   3   68.45    4.71
  -4   5  -3   64.07    6.72
   4  -5   3   68.26    5.64
  -4   5  -3   71.56    9.06
   4  -5   4   33.42    2.88
  -4   5  -4   34.71    4.86
  -4   5  -4   30.70    4.41
  -4   5  -4   32.19    4.06
  -4   5  -4   29.95    4.83
  -4   5  -4   30.79    4.69
  -4   5  -4   20.71    3.85
   4  -5   4   30.52    2.92
  -4   5  -4   24.88    4.04
  -4   5  -4   27.81    3.72
   4  -5   4   27.38    3.49
  -4   5  -4   34.30    6.23
   4  -5   5    1.12    0.53
  -4   5  -5    1.41    0.99
   4  -5   5    2.34    0.77
  -4   5  -5    1.51    0.95
  -4   5  -5    0.36    0.48
   4  -5   5    0.87    0.69
  -4   5  -5    1.06    1.31
  -4   5  -5    2.74    1.55
  -4   5  -5    1.69    0.98
  -4   5  -5    1.44    1.11
  -4   5  -5   -0.22    0.30
   4  -5   6  115.47    6.10
  -4   5  -6  125.53    8.89
  -4   5  -6  118.65    8.44
   4  -5   6  121.99    5.75
   4  -5   6  118.62    6.96
  -4   5  -6  117.25    9.43
  -4   5  -6  116.86    9.15
  -4   5  -6  106.72    8.57
  -4   5  -6  104.40    8.29
  -4   5  -6  106.56    7.34
  -4   5  -6  131.13    8.72
   4  -5   7  185.93    8.12
  -4   5  -7  188.65   10.41
  -4   5  -7  184.37   10.24
   4  -5   7  189.56    7.70
   4  -5   7  185.00    9.01
   4  -5   7  158.99    8.65
  -4   5  -7  175.52   11.26
  -4   5  -7  179.29   11.03
  -4   5  -7  161.20   10.34
  -4   5  -7  157.91   10.05
  -4   5  -7  175.66    8.94
  -4   5  -7  211.72   11.06
   4  -5   8   48.51    3.25
  -4   5  -8   49.16    4.10
  -4   5  -8   44.34    3.99
   4  -5   8   47.64    3.00
   4  -5   8   50.08    3.82
   4  -5   8   43.88    3.50
  -4   5  -8   43.77    4.51
  -4   5  -8   45.80    4.51
  -4   5  -8   40.32    4.05
  -4   5  -8   37.37    3.87
   4  -5   9   31.96    2.28
   4  -5   9   35.95    2.37
   4  -5   9   35.52    2.88
  -4   5  -9   40.95    3.49
  -4   4   9   10.90    1.63
   4  -4  -9   11.61    1.43
   4  -4  -9   11.49    1.30
  -4   4   9    8.84    1.13
  -4   4   9   10.40    1.54
  -4   4   9    8.10    1.27
   4  -4  -8  101.03    5.43
   4  -4  -8  102.97    5.27
  -4   4   8  100.68    6.26
  -4   4   8   76.65    4.67
   4  -4  -8   92.37    4.28
  -4   4   8   87.92    5.47
  -4   4   8   88.29    6.12
  -4   4   7    0.94    0.91
   4  -4  -7    3.32    1.26
  -4   4   7    1.29    0.67
  -4   4   7    1.59    0.66
  -4   4   7    2.49    0.91
   4  -4  -6   43.40    3.75
  -4   4   6   40.57    4.42
  -4   4   6   32.78    3.07
  -4   4   6   34.04    3.69
  -4   4   6   38.80    4.48
   4  -4  -5   21.55    2.71
  -4   4   5   24.72    3.53
  -4   4   5   23.05    3.35
  -4   4   5   21.66    2.48
  -4   4   5   27.62    3.99
  -4   4   5   23.99    3.17
  -4   4   5   21.15    3.42
   4  -4  -4   74.20    5.33
  -4   4   4   72.96    6.55
  -4   4   4   73.80    6.53
  -4   4   4   69.99    4.84
   4  -4  -4   74.55    7.27
  -4   4   4   79.21    7.32
  -4   4   4   71.21    5.72
  -4   4   4   71.91    6.63
   4  -4  -3  379.37   15.45
  -4   4   3  358.38   18.09
   4  -4  -3  417.42   15.91
  -4   4   3  387.83   17.96
   4  -4  -3  355.74   18.69
  -4   4   3  370.59   19.21
   4  -4  -3  361.37   16.52
  -4   4   3  341.80   17.78
   4  -4  -2  608.75   21.77
  -4   4   2  557.52   25.05
   4  -4  -2  635.66   22.23
  -4   4   2  581.82   24.36
   4  -4  -2  605.33   25.82
  -4   4   2  581.26   26.40
   4  -4  -2  532.41   23.22
   4  -4  -2  589.84   23.28
  -4   4   2  519.61   24.15
  -4   4   1  324.88   16.32
  -4   4   1  311.53   20.57
  -4   4   1  333.08   17.33
   4  -4  -1  377.38   14.56
  -4   4   1  319.79   15.94
  -4   4   1  357.57   18.75
   4  -4  -1  336.70   15.71
   4  -4  -1  342.64   15.44
  -4   4   1  297.63   16.10
  -4   4   0  122.12    9.22
  -4   4   0  128.11    9.24
  -4   4   0  122.66   12.28
  -4   4   0  127.23    9.68
   4  -4   0  141.94    7.55
  -4   4   0  132.03    8.76
  -4   4   0  139.96   10.74
   4  -4   0  151.87    7.22
   4  -4   0  126.07    8.39
   4  -4   0  135.35    8.48
   4  -4   0  127.69    8.14
  -4   4   0  110.19    8.51
  -4   4  -1   36.98    4.93
  -4   4  -1   38.42    4.90
  -4   4  -1   37.25    4.88
  -4   4  -1   33.74    6.45
   4  -4   1   38.32    3.57
  -4   4  -1   36.81    4.20
   4  -4   1   38.86    3.25
  -4   4  -1   35.57    5.14
   4  -4   1   38.10    4.18
   4  -4   1   42.42    4.29
   4  -4   1   43.02    4.33
  -4   4  -1   33.29    5.69
  -4   4  -2   40.62    5.31
  -4   4  -2   43.23    5.37
  -4   4  -2   44.02    7.44
  -4   4  -2   39.55    5.00
   4  -4   2   48.62    3.68
   4  -4   2   53.66    4.86
  -4   4  -2   45.13    5.74
   4  -4   2   53.14    4.87
   4  -4   2   49.70    4.69
  -4   4  -2   42.89    6.70
  -4   4  -3   71.74    7.31
  -4   4  -3   63.35    6.66
  -4   4  -3   72.01    6.70
   4  -4   3   76.27    5.86
   4  -4   3   71.18    4.59
  -4   4  -3   64.35    6.94
   4  -4   3   84.92    6.20
   4  -4   3   70.24    5.77
  -4   4  -3   64.22    8.60
   4  -4   4   22.25    2.29
  -4   4  -4   19.17    3.78
  -4   4  -4   15.55    3.30
  -4   4  -4   17.28    3.14
   4  -4   4   20.16    2.93
  -4   4  -4   14.60    3.09
  -4   4  -4   12.40    2.69
   4  -4   4   19.19    2.90
   4  -4   4   18.76    2.82
  -4   4  -4   18.98    3.28
  -4   4  -4   14.32    4.16
   4  -4   5  367.03   13.45
  -4   4  -5  358.10   18.27
  -4   4  -5  328.47   17.28
  -4   4  -5  334.97   15.98
   4  -4   5  365.56   15.08
   4  -4   5  339.82   15.29
  -4   4  -5  281.55   15.59
  -4   4  -5  328.74   16.88
   4  -4   5  324.44   15.54
  -4   4  -5  339.35   22.07
   4  -4   6  138.69    6.89
  -4   4  -6  147.36   10.22
  -4   4  -6  134.80    9.68
   4  -4   6  176.16    7.20
   4  -4   6  147.72    8.19
   4  -4   6  125.07    8.14
  -4   4  -6  116.03    8.27
  -4   4  -6  142.74    9.90
   4  -4   6  115.38    8.31
   4  -4   7  170.70    7.94
  -4   4  -7  185.85   10.99
  -4   4  -7  167.23   10.37
   4  -4   7  188.59    7.88
   4  -4   7  171.68    9.10
  -4   4  -7  169.22   11.64
  -4   4  -7  181.39   11.70
  -4   4  -7  157.04   10.72
  -4   4  -7  155.86   10.44
  -4   4  -7  158.13    9.07
  -4   4  -7  194.21   11.38
   4  -4   8   45.55    3.32
  -4   4  -8   48.39    4.54
  -4   4  -8   42.04    4.31
   4  -4   8   47.70    3.22
   4  -4   8   46.37    3.95
   4  -4   8   39.71    3.90
  -4   4  -8   41.44    4.79
  -4   4  -8   37.57    4.31
  -4   4  -8   53.99    5.19
   4  -4   9    1.23    0.40
  -4   4  -9    2.14    0.87
   4  -4   9    1.99    0.58
   4  -4   9    1.46    0.69
   4  -4   9    0.13    0.50
  -4   4  -9    1.77    1.03
   4  -4  10    3.92    0.76
   4  -4  10    3.30    0.72
   4  -4  10    1.98    0.57
  -4   4 -10    3.74    1.00
   4  -3 -10   53.20    3.02
   4  -3 -10   49.46    2.72
  -4   3  10   52.49    3.35
   4  -3  -9  161.18    7.74
   4  -3  -9  169.60    7.35
  -4   3   9  155.33    7.84
  -4   3   9  131.91    6.70
  -4   3   9  153.68    7.68
  -4   3   9  150.46    7.94
   4  -3  -8  245.06   10.98
   4  -3  -8  254.34   10.46
  -4   3   8  270.71   12.88
  -4   3   8  237.25   11.42
  -4   3   8  189.00    9.52
  -4   3   8  223.24   10.85
  -4   3   8  219.12   11.32
   4  -3  -7  340.14   14.08
   4  -3  -7  340.04   13.59
  -4   3   7  362.81   16.48
  -4   3   7  316.24   14.83
  -4   3   7  268.75   12.59
  -4   3   7  301.45   14.07
  -4   3   7  286.71   14.65
   4  -3  -6   47.41    4.12
  -4   3   6   51.64    5.54
  -4   3   6   45.32    4.80
  -4   3   6   35.56    3.42
  -4   3   6   43.35    4.41
  -4   3   6   46.68    4.99
   4  -3  -5  150.01    8.07
  -4   3   5  169.47   10.78
  -4   3   5  143.79    9.45
  -4   3   5  119.94    7.31
   4  -3  -5  145.10   10.57
  -4   3   5  137.57    8.69
  -4   3   5  132.46    9.36
  -4   3   4   16.45    3.01
   4  -3  -4   20.43    2.54
  -4   3   4   19.21    3.17
  -4   3   4   20.44    3.26
  -4   3   4   16.52    2.29
   4  -3  -4   20.95    3.74
  -4   3   4   18.52    3.32
  -4   3   4   18.94    2.88
   4  -3  -3  120.63    6.84
  -4   3   3  122.24    8.83
  -4   3   3  121.74    8.53
  -4   3   3  106.03    6.44
   4  -3  -3  123.62    9.21
  -4   3   3  126.07    9.45
   4  -3  -3  103.98    8.46
  -4   3   3  112.96    7.59
  -4   3   3  115.43    8.62
  -4   3   2   43.37    6.24
   4  -3  -2   51.78    4.04
  -4   3   2   55.65    5.73
  -4   3   2   52.23    5.21
  -4   3   2   43.29    3.55
   4  -3  -2   51.06    5.55
  -4   3   2   49.48    5.79
   4  -3  -2   47.43    5.21
  -4   3   2   46.45    4.49
  -4   3   2   44.29    5.01
   4  -3  -1  292.46   15.58
  -4   3   1  307.19   19.37
  -4   3   1  253.78   17.39
  -4   3   1  314.72   16.17
   4  -3  -1  363.39   13.61
  -4   3   1  321.89   15.32
   4  -3  -1  331.48   15.78
  -4   3   1  328.86   17.25
   4  -3  -1  294.05   15.20
   4  -3  -1  278.22   15.22
   4  -3  -1  326.43   15.11
  -4   3   1  276.11   15.01
  -4   3   0  516.02   22.63
  -4   3   0  524.49   22.42
   4  -3   0  531.58   22.25
  -4   3   0  517.59   27.66
  -4   3   0  435.35   24.91
  -4   3   0  531.84   23.19
   4  -3   0  582.03   19.69
  -4   3   0  513.66   21.61
  -4   3   0  551.19   24.48
   4  -3   0  500.73   21.54
   4  -3   0  484.51   21.67
   4  -3   0  526.80   21.37
  -4   3   0  469.71   21.60
  -4   3  -1  116.14    8.92
   4  -3   1  110.03    7.78
  -4   3  -1  113.62    8.56
  -4   3  -1  118.61   11.75
  -4   3  -1  105.41   10.23
  -4   3  -1  125.10    9.05
  -4   3  -1  110.96    7.66
  -4   3  -1  121.43    9.46
   4  -3   1  116.56    8.03
   4  -3   1  125.11    8.01
   4  -3   1  115.37    7.95
   4  -3   1  110.11    7.47
  -4   3  -1  103.54   10.08
  -4   3  -2   31.56    4.53
   4  -3   2   35.43    4.00
  -4   3  -2   33.44    4.47
  -4   3  -2   34.00    4.49
  -4   3  -2   27.36    5.01
  -4   3  -2   30.18    3.84
  -4   3  -2   30.67    4.64
   4  -3   2   39.25    3.07
   4  -3   2   35.54    3.99
   4  -3   2   36.65    3.93
   4  -3   2   33.76    3.81
   4  -3   2   32.32    3.85
  -4   3  -2   32.10    5.58
  -4   3  -3   74.67    7.28
  -4   3  -3   72.84    7.00
  -4   3  -3   58.13    7.45
  -4   3  -3   70.39    6.57
   4  -3   3   76.38    5.99
  -4   3  -3   71.86    7.18
   4  -3   3   88.78    6.31
   4  -3   3   79.54    6.04
   4  -3   3   79.48    6.04
  -4   3  -3   64.50    8.42
  -4   3  -4  253.47   15.01
  -4   3  -4  249.89   14.62
  -4   3  -4  237.65   13.42
   4  -3   4  281.76   13.05
  -4   3  -4  222.54   14.08
  -4   3  -4  208.79   12.93
  -4   3  -4  243.20   13.76
   4  -3   4  275.41   12.99
  -4   3  -4  238.99   17.87
   4  -3   5   76.51    4.46
  -4   3  -5   70.29    7.05
  -4   3  -5   59.64    6.45
  -4   3  -5   61.36    5.85
   4  -3   5   72.68    5.80
  -4   3  -5   54.87    5.61
  -4   3  -5   63.27    6.44
   4  -3   5   68.46    5.73
   4  -3   5   83.73    6.25
  -4   3  -5   60.48    8.59
   4  -3   6  467.17   17.16
  -4   3  -6  509.79   22.50
  -4   3  -6  455.11   21.44
   4  -3   6  477.65   18.99
   4  -3   6  494.78   20.02
  -4   3  -6  426.66   19.72
  -4   3  -6  522.55   32.26
  -4   3  -6  477.16   21.83
   4  -3   6  446.96   19.79
   4  -3   7    6.31    1.15
  -4   3  -7   10.69    2.39
   4  -3   7   10.24    1.53
  -4   3  -7    8.99    2.28
   4  -3   7    7.67    1.67
   4  -3   7    8.93    1.92
  -4   3  -7    7.36    1.79
  -4   3  -7   11.84    5.04
  -4   3  -7    6.45    2.04
   4  -3   7    6.01    1.78
   4  -3   8    9.15    1.39
  -4   3  -8    7.22    1.86
   4  -3   8    9.43    1.40
  -4   3  -8    8.95    2.11
   4  -3   8    9.05    1.76
  -4   3  -8    9.64    2.30
  -4   3  -9    4.79    1.32
   4  -3   9    4.58    0.92
   4  -3   9    5.47    1.36
   4  -3   9    5.34    1.37
  -4   3  -9    4.68    1.46
   4  -3   9    5.47    0.92
   4  -3  10   34.79    2.60
   4  -3  10   31.81    2.93
   4  -3  10   28.94    3.00
  -4   3 -10   33.57    3.47
   4  -3  11   16.83    1.52
  -4   3 -11   17.59    1.92
   4  -2 -10   16.32    1.97
   4  -2 -10   17.59    1.75
  -4   2  10   18.29    2.38
  -4   2  10   14.07    1.60
  -4   2  10   16.13    1.99
   4  -2  -9   74.58    5.13
   4  -2  -9   83.48    4.83
  -4   2   9   75.65    5.94
  -4   2   9   76.09    5.14
  -4   2   9   62.16    4.30
  -4   2   9   73.70    5.13
  -4   2   9   71.28    5.08
   4  -2  -8   23.61    2.93
  -4   2   8   25.08    3.64
  -4   2   8   25.58    3.19
  -4   2   8   20.44    2.42
  -4   2   8   23.65    2.99
  -4   2   8   23.48    3.06
   4  -2  -7   50.39    4.56
  -4   2   7   56.37    5.75
  -4   2   7   50.74    4.91
  -4   2   7   44.30    3.89
  -4   2   7   52.81    4.90
  -4   2   7   54.78    5.12
   4  -2  -6  133.68   10.13
   4  -2  -6  136.79    7.91
  -4   2   6  139.75    9.68
  -4   2   6  131.07    8.64
  -4   2   6  104.17    6.78
   4  -2  -6  141.43   10.20
  -4   2   6  120.73    8.05
  -4   2   6  122.35    8.56
   4  -2  -5  150.13   10.42
  -4   2   5  165.38   10.59
  -4   2   5  142.53    9.22
  -4   2   5  114.01    7.21
   4  -2  -5  146.06   10.44
  -4   2   5  140.27    8.77
   4  -2  -5  139.89    9.57
  -4   2   5  132.67    9.16
  -4   2   4   10.67    2.34
  -4   2   4    9.31    2.41
  -4   2   4   10.18    2.28
  -4   2   4    7.18    1.55
   4  -2  -4    7.83    2.20
  -4   2   4    9.33    1.97
   4  -2  -4    8.77    2.03
  -4   2   3    2.45    1.03
  -4   2   3    2.38    1.63
  -4   2   3    3.38    1.48
  -4   2   3    1.33    0.73
  -4   2   3    1.06    0.25
   4  -2  -3    0.63    0.76
  -4   2   3    1.32    1.29
  -4   2   3    1.57    0.77
   4  -2  -3    1.09    0.86
  -4   2   2   98.96    9.40
  -4   2   2  118.78    8.33
  -4   2   2  115.90    7.89
  -4   2   2   81.18    5.46
   4  -2  -2  115.30    8.11
  -4   2   2  125.63    9.02
  -4   2   2   99.41    6.86
   4  -2  -2  115.73    8.08
  -4   2   2  100.96    7.65
  -4   2   1  583.91   29.05
  -4   2   1  720.60   27.43
  -4   2   1  669.86   26.01
  -4   2   1  685.78   23.24
   4  -2  -1  771.61   26.97
  -4   2   1  735.69   28.45
  -4   2   1  550.14   24.69
   4  -2  -1  605.18   26.41
   4  -2  -1  709.96   26.57
  -4   2   1  610.60   25.85
  -4   2   0 1000.15   35.97
   4  -2   0  921.02   35.68
  -4   2   0  840.46   38.20
  -4   2   0  984.35   36.11
  -4   2   0  941.19   34.43
  -4   2   0 1010.35   37.31
   4  -2   0  852.95   34.61
   4  -2   0  829.37   34.67
   4  -2   0  942.90   34.48
  -4   2   0  811.37   34.13
  -4   2  -1  473.66   20.99
  -4   2  -1  465.70   20.52
   4  -2   1  465.07   20.19
  -4   2  -1  405.22   22.59
  -4   2  -1  485.43   20.97
  -4   2  -1  453.08   19.17
  -4   2  -1  477.22   21.75
   4  -2   1  453.29   19.56
   4  -2   1  449.10   19.80
   4  -2   1  473.38   19.33
  -4   2  -1  470.19   23.74
  -4   2  -2    1.28    1.28
   4  -2   2    0.78    0.55
  -4   2  -2    0.56    0.41
  -4   2  -2   -0.12    0.97
  -4   2  -2    1.46    0.86
  -4   2  -2   -0.04    0.38
  -4   2  -2    1.88    1.30
   4  -2   2   -0.01    0.90
  -4   2  -2   -0.61    0.49
   4  -2   2   -0.30    0.50
   4  -2   2   -0.01    0.41
   4  -2   2   -0.18    0.32
  -4   2  -2   -0.72    0.70
  -4   2  -3   70.96    6.93
   4  -2   3   82.20    6.27
  -4   2  -3   71.84    6.81
  -4   2  -3   61.25    7.23
  -4   2  -3   73.45    6.58
  -4   2  -3   74.64    7.03
   4  -2   3   78.63    6.16
  -4   2  -3   56.07    5.70
  -4   2  -3   70.88    6.15
   4  -2   3   87.83    6.22
   4  -2   3   77.64    5.86
   4  -2   3   80.21    6.06
  -4   2  -3   69.31    8.41
  -4   2  -4   21.50    3.79
  -4   2  -4   20.45    3.62
  -4   2  -4   14.41    3.24
  -4   2  -4   16.64    3.02
   4  -2   4   20.64    3.01
  -4   2  -4   21.15    3.63
  -4   2  -4   16.94    3.01
  -4   2  -4   14.83    4.40
   4  -2   4   26.59    3.28
   4  -2   4   21.04    3.04
   4  -2   4   24.89    3.21
  -4   2  -4   18.48    3.19
  -4   2  -4   25.63    5.09
   4  -2   5   31.89    2.65
  -4   2  -5   29.73    4.58
  -4   2  -5   24.40    3.95
  -4   2  -5   25.53    3.62
   4  -2   5   31.42    3.72
  -4   2  -5   21.82    3.37
  -4   2  -5   26.91    6.37
  -4   2  -5   24.98    3.92
   4  -2   5   30.87    3.61
   4  -2   5   39.40    4.09
   4  -2   5   29.40    4.05
   4  -2   6   55.89    3.68
  -4   2  -6   52.58    5.94
  -4   2  -6   49.66    5.64
   4  -2   6   53.73    4.60
   4  -2   6   56.07    5.09
  -4   2  -6   44.27    4.77
  -4   2  -6   47.42    8.94
  -4   2  -6   49.96    5.77
   4  -2   6   43.30    4.59
   4  -2   6   58.63    5.26
   4  -2   6   50.94    5.14
   4  -2   7   26.15    2.45
  -4   2  -7   28.97    4.16
  -4   2  -7   26.43    4.04
   4  -2   7   33.86    2.88
   4  -2   7   24.71    3.00
   4  -2   7   25.58    3.45
  -4   2  -7   25.08    3.29
  -4   2  -7   27.13    6.72
  -4   2  -7   24.42    3.94
   4  -2   7   21.92    3.30
  -4   2  -8   50.51    5.27
   4  -2   8   60.27    3.97
   4  -2   8   50.14    4.47
   4  -2   8   54.27    5.17
  -4   2  -8   67.55   10.84
   4  -2   8   48.66    5.06
  -4   2  -8   61.75    6.23
  -4   2  -9   56.78    4.96
   4  -2   9   49.15    3.50
  -4   2  -9   58.58    4.56
   4  -2   9   45.92    4.14
   4  -2   9   44.80    4.49
  -4   2  -9   53.17    5.38
   4  -2   9   49.37    3.51
  -4   2  -9   53.33    4.63
   4  -2  10   24.93    2.27
  -4   2 -10   25.35    2.62
   4  -2  10   22.56    2.58
   4  -2  10   19.82    2.72
  -4   2 -10   25.15    3.21
   4  -2  10   24.63    2.18
  -4   2 -10   28.69    2.94
   4  -2  11    9.22    1.20
   4  -2  11    6.37    1.27
  -4   2 -11    8.19    1.45
   4  -2  11    8.65    1.03
  -4   2 -11    8.24    1.25
   4  -1 -11    8.96    1.25
  -4   1  11    7.72    0.98
  -4   1  11   11.10    1.38
   4  -1 -10    4.68    1.13
   4  -1 -10    3.42    0.82
  -4   1  10    5.55    1.41
  -4   1  10    5.29    0.99
   4  -1 -10    3.95    0.91
  -4   1  10    4.72    1.13
   4  -1  -9    8.66    1.79
  -4   1   9   11.94    2.30
  -4   1   9    8.33    1.44
   4  -1  -9   10.35    1.67
  -4   1   9    9.28    1.80
  -4   1   8    4.67    1.21
   4  -1  -8    5.18    1.42
  -4   1   8    4.42    1.56
  -4   1   8    5.80    1.38
  -4   1   8    4.12    0.98
  -4   1   8    3.38    1.15
   4  -1  -7  121.22    9.67
   4  -1  -7  121.22    7.62
  -4   1   7  132.60    9.16
  -4   1   7  122.91    7.95
  -4   1   7  105.86    6.68
   4  -1  -7  131.57    9.84
  -4   1   7  118.37    7.82
  -4   1   7  119.89    7.89
   4  -1  -6  184.00   12.28
   4  -1  -6  191.55   10.10
  -4   1   6  202.61   12.06
  -4   1   6  196.68   10.80
  -4   1   6  164.44    9.03
   4  -1  -6  208.19   12.87
  -4   1   6  178.52   10.24
   4  -1  -6  198.21   12.35
  -4   1   6  183.49   10.67
   4  -1  -5   82.21    7.41
   4  -1  -5   76.07    7.14
  -4   1   5   83.54    7.11
  -4   1   5   79.31    6.35
  -4   1   5   61.06    4.90
   4  -1  -5   85.76    7.74
  -4   1   5   73.65    6.01
   4  -1  -5   81.66    7.43
  -4   1   5   79.48    6.49
   4  -1  -4   93.95    8.00
   4  -1  -4  104.60    8.14
  -4   1   4  113.01    8.26
  -4   1   4  104.87    7.38
  -4   1   4   84.42    5.78
   4  -1  -4  102.37    8.24
  -4   1   4   98.52    6.93
   4  -1  -4  110.61    8.62
  -4   1   4   95.15    7.22
   4  -1  -3   20.06    3.45
  -4   1   3   18.68    3.62
  -4   1   3   20.91    3.27
  -4   1   3   19.58    2.96
  -4   1   3   15.87    2.19
   4  -1  -3   16.89    3.11
  -4   1   3   16.36    2.63
   4  -1  -3   21.87    3.55
  -4   1   3   20.00    3.09
   4  -1  -2  127.84    8.87
  -4   1   2  114.89    9.79
  -4   1   2  140.96    8.76
  -4   1   2  128.33    8.11
  -4   1   2   99.72    6.17
   4  -1  -2  127.59    8.53
  -4   1   2  116.94    7.38
   4  -1  -2  132.98    9.04
  -4   1   2  109.67    7.72
   4  -1  -1  134.80    8.69
  -4   1   1  112.39    9.66
  -4   1   1  120.08    7.80
   4  -1  -1  133.73    8.22
  -4   1   1  108.93    7.03
   4  -1  -1  127.51    8.56
  -4   1   1  106.72    7.62
  -4   1   0  255.47   15.60
   4  -1   0  248.34   13.30
   4  -1   0  277.25   13.42
   4  -1   1  218.16   12.04
  -4   1  -1  181.92   13.09
   4  -1   1  211.37   11.44
   4  -1   1  209.37   11.53
   4  -1   1  223.71   11.24
  -4   1  -2   65.52    6.25
   4  -1   2   69.42    5.92
  -4   1  -2   58.65    6.81
  -4   1  -2   76.04    6.39
  -4   1  -2   73.69    6.73
  -4   1  -2   58.70    5.53
   4  -1   2   66.76    5.54
   4  -1   2   60.33    5.44
   4  -1   2   64.94    5.31
  -4   1  -2   87.57    5.32
  -4   1  -3   22.44    3.61
   4  -1   3   21.84    3.10
  -4   1  -3   22.23    3.51
  -4   1  -3   20.87    3.25
  -4   1  -3   15.46    3.32
   4  -1   3   19.14    2.85
  -4   1  -3   16.22    3.16
  -4   1  -3   13.69    2.63
   4  -1   3   18.44    2.69
  -4   1  -3   19.69    3.14
   4  -1   3   19.19    2.78
   4  -1   3   18.69    2.61
  -4   1  -4   98.59    8.17
  -4   1  -4   97.00    7.92
  -4   1  -4   77.13    7.75
  -4   1  -4   84.07    7.04
   4  -1   4   98.19    6.85
  -4   1  -4   76.09    6.61
  -4   1  -4  104.16   12.33
  -4   1  -4   94.60    7.53
   4  -1   4  103.58    6.79
   4  -1   4   98.65    6.54
   4  -1   4  109.40    6.99
   4  -1   5   17.27    1.82
  -4   1  -5   17.21    3.34
  -4   1  -5   15.46    3.19
  -4   1  -5   13.98    2.73
   4  -1   5   16.56    2.69
  -4   1  -5   12.71    2.48
  -4   1  -5   18.59    5.37
   4  -1   5   14.27    2.40
   4  -1   5   15.22    2.49
  -4   1  -5    9.62    2.52
   4  -1   5   14.61    2.68
   4  -1   5   14.72    2.90
  -4   1  -6    8.08    2.22
  -4   1  -6    4.93    1.62
   4  -1   6    5.89    1.54
   4  -1   6    5.74    1.66
  -4   1  -6    4.46    1.43
  -4   1  -6    9.20    3.52
   4  -1   6    7.54    1.81
  -4   1  -6    4.37    1.80
   4  -1   6    4.57    1.42
   4  -1   6    6.17    1.70
  -4   1  -7  183.09   11.50
  -4   1  -7  176.88   11.30
   4  -1   7  166.20    9.11
   4  -1   7  152.56    9.70
  -4   1  -7  166.42    9.65
  -4   1  -7  190.50   19.21
  -4   1  -7  179.98   11.80
   4  -1   7  138.85    9.32
   4  -1   7  189.08   10.59
   4  -1   7  213.45   11.17
  -4   1  -8  173.27   10.72
   4  -1   8  171.57    7.80
  -4   1  -8  173.03    9.64
   4  -1   8  151.15    8.68
   4  -1   8  157.06    9.82
   4  -1   8  147.37    9.56
  -4   1  -8  189.02   11.68
  -4   1  -8  174.81    9.95
   4  -1   9   14.45    1.78
  -4   1  -9   18.07    2.69
   4  -1   9   13.23    2.21
   4  -1   9   13.87    2.55
  -4   1  -9   18.12    3.14
  -4   1  -9   14.86    2.47
   4  -1  10   50.16    3.51
  -4   1 -10   62.99    4.75
   4  -1  10   55.39    4.24
   4  -1  10   49.74    4.63
  -4   1 -10   56.95    5.13
   4  -1  10   51.72    3.62
  -4   1 -10   57.47    4.68
   4  -1  11   68.92    3.97
   4  -1  11   59.68    3.68
  -4   1 -11   76.87    4.63
   4  -1  11   60.81    4.72
  -4   1 -11   67.38    4.80
   4  -1  11   65.46    3.81
  -4   1 -11   68.03    4.49
   4   0 -11   54.70    3.54
   4   0 -11   46.68    2.71
  -4   0  11   64.91    3.98
  -4   0  11   38.30    2.51
   4   0 -11   50.15    3.06
  -4   0  11   51.60    3.31
   4   0 -10    9.11    1.57
  -4   0  10   12.29    2.01
  -4   0  10    8.60    1.29
   4   0 -10    9.73    1.53
  -4   0  10   11.90    1.76
  -4   0   9   18.61    2.48
   4   0  -9   22.01    2.78
  -4   0   9   23.29    3.19
  -4   0   9   20.21    2.26
   4   0  -9   22.66    2.72
  -4   0   9   21.12    2.69
  -4   0   8    9.75    1.96
   4   0  -8   10.37    1.99
  -4   0   8   10.03    2.22
  -4   0   8    9.25    1.68
   4   0  -8   11.83    2.09
   4   0  -8   10.50    3.29
  -4   0   8    8.41    1.85
   4   0  -7   43.29    5.68
  -4   0   7   42.83    4.29
  -4   0   7   53.30    5.43
  -4   0   7   40.29    3.68
   4   0  -7   53.18    6.07
   4   0  -7   47.06    6.70
  -4   0   7   42.24    4.30
  -4   0   6    6.02    1.52
   4   0  -6    5.86    2.07
  -4   0   6    6.92    1.79
  -4   0   6    8.05    1.90
  -4   0   6    4.85    1.18
   4   0  -6    7.43    2.41
   4   0  -6    4.51    2.28
  -4   0   6    7.67    1.77
   4   0  -5   70.11    7.17
   4   0  -5   65.39    6.58
  -4   0   5   62.30    5.21
  -4   0   5   75.78    6.50
  -4   0   5   71.47    5.77
  -4   0   5   57.67    4.58
   4   0  -5   64.09    6.65
   4   0  -5   58.28    7.00
  -4   0   5   59.64    5.23
  -4   0   5   64.18    4.73
  -4   0   5   64.31    5.50
   4   0  -4   29.33    4.44
   4   0  -4   27.42    3.99
  -4   0   4   27.32    3.21
  -4   0   4   32.71    4.13
  -4   0   4   27.38    4.25
  -4   0   4   35.62    4.27
  -4   0   4   31.45    3.67
  -4   0   4   22.49    2.67
   4   0  -4   30.28    4.37
  -4   0   4   26.30    3.28
  -4   0   4   27.00    2.94
  -4   0   4   26.62    3.51
   4   0  -3  120.05    9.13
   4   0  -3  125.02    8.61
  -4   0   3  137.45    8.70
  -4   0   3  105.13    8.92
  -4   0   3  128.18    8.36
  -4   0   3  131.39    7.97
  -4   0   3   96.32    6.16
   4   0  -3  113.88    8.69
  -4   0   3  114.22    7.26
  -4   0   3  113.87    6.62
   4   0  -3  125.02    9.29
  -4   0   3  112.29    7.56
   4   0  -2  235.37   13.35
  -4   0   2  215.77   13.82
   4   0  -2  242.94   12.82
   4   0  -2  238.11   13.35
   4   0  -1  621.80   25.94
  -4   0   1  601.92   27.50
   4   0  -1  672.76   25.17
   4   0  -1  657.36   26.16
   4   0   0   53.20    5.11
  -4   0   0   47.21    5.76
   4   0   0   49.43    4.87
   4   0   1  111.77    7.87
  -4   0  -1   87.69    8.10
   4   0   1   96.98    6.96
   4   0   1   97.69    7.21
   4   0   1  102.93    7.04
   4   0   2  296.92   14.24
  -4   0  -2  279.62   15.88
   4   0   2  275.97   13.24
   4   0   2  271.68   13.45
   4   0   2  290.90   13.11
  -4   0  -3   31.47    4.18
   4   0   3   30.01    3.67
  -4   0  -3   31.61    3.93
  -4   0  -3   21.15    3.76
   4   0   3   32.16    3.70
  -4   0  -3   26.71    3.58
   4   0   3   32.63    3.56
   4   0   3   31.12    3.54
   4   0   3   29.41    3.30
  -4   0  -3   36.77    3.28
  -4   0  -4   98.28    8.03
  -4   0  -4   96.10    7.77
  -4   0  -4   83.35    7.67
  -4   0  -4  103.13    7.63
   4   0   4   99.22    6.79
  -4   0  -4   80.22    6.65
  -4   0  -4   92.52    7.42
   4   0   4  111.76    6.90
   4   0   4   96.68    6.43
   4   0   4  107.81    6.90
  -4   0  -5   62.65    6.36
  -4   0  -5   58.58    6.21
   4   0   5   64.57    5.34
  -4   0  -5   63.03    5.63
  -4   0  -5   63.51    6.30
   4   0   5   64.66    5.09
   4   0   5   79.78    5.70
   4   0   5   59.99    5.82
   4   0   5   60.60    5.93
  -4   0  -6    9.96    2.42
  -4   0  -6    7.42    2.30
   4   0   6   10.16    1.74
  -4   0  -6   11.41    2.13
   4   0   6    9.02    1.91
  -4   0  -6    8.69    1.93
   4   0   6   12.77    2.27
  -4   0  -6   10.70    2.58
   4   0   6   12.66    2.51
   4   0   6    6.73    1.58
   4   0   6    9.86    2.33
  -4   0  -7  270.21   14.62
  -4   0  -7  238.56   12.48
   4   0   7  248.99   11.59
   4   0   7  225.81   12.32
  -4   0  -7  254.59   12.51
  -4   0  -7  255.11   14.57
   4   0   7  216.07   11.94
   4   0   7  261.15   12.92
   4   0   7  295.38   14.15
  -4   0  -7  262.37   13.13
  -4   0  -8  161.53   10.61
   4   0   8  176.16    7.88
  -4   0  -8  170.55    9.94
   4   0   8  164.52    8.90
   4   0   8  158.88    9.85
   4   0   8  154.13    9.63
  -4   0  -8  183.87   11.59
   4   0   8  182.53   10.60
  -4   0  -8  177.83   10.30
   4   0   9   55.33    3.79
  -4   0  -9   57.88    5.19
   4   0   9   52.06    5.15
   4   0   9   53.87    5.29
  -4   0  -9   65.48    6.16
  -4   0  -9   59.11    5.35
   4   0  10   21.69    2.15
  -4   0 -10   22.69    2.87
   4   0  10   19.16    2.85
  -4   0 -10   19.47    2.99
   4   0  10   19.63    2.20
  -4   0 -10   23.40    3.01
   4   0  11   38.52    3.04
   4   0  11   33.40    2.55
  -4   0 -11   39.28    3.42
   4   0  11   32.21    3.40
  -4   0 -11   37.26    3.52
   4   0  11   34.50    2.75
  -4   0 -11   39.33    3.46
  -4   0 -12   33.60    2.51
   4   0  12   28.53    2.70
   4   0  12   33.49    2.33
  -4   0 -12   33.38    2.54
   4   1 -11    4.06    0.93
   4   1 -11    2.92    0.64
   4   1 -11    2.92    0.63
  -4  -1  11    2.58    0.68
  -4  -1  10    4.19    1.00
   4   1 -10    5.28    1.21
  -4  -1  10    5.35    1.23
  -4  -1  10    4.18    0.86
   4   1 -10    5.00    1.09
  -4  -1  10    5.58    1.22
  -4  -1   9    5.68    1.36
   4   1  -9    5.84    1.48
  -4  -1   9    7.89    1.92
  -4  -1   9    6.32    1.25
   4   1  -9    5.42    1.28
  -4  -1   9    6.63    1.46
  -4  -1   8   12.58    2.18
   4   1  -8   15.09    3.26
  -4  -1   8   14.11    2.50
  -4  -1   8   13.15    1.91
   4   1  -8   14.50    2.35
   4   1  -8   13.31    3.49
  -4  -1   8   10.59    1.93
   4   1  -7   97.55    8.72
  -4  -1   7   86.03    6.34
  -4  -1   7   97.80    7.35
  -4  -1   7   82.17    5.59
   4   1  -7  103.22    8.78
   4   1  -7  103.69    6.89
   4   1  -7   83.60    9.35
  -4  -1   7   85.28    6.28
  -4  -1   7   96.55    6.04
   4   1  -6  228.19   14.23
   4   1  -6  228.67   14.10
  -4  -1   6  213.53   11.12
  -4  -1   6  248.69   13.19
  -4  -1   6  240.38   12.56
  -4  -1   6  205.78   10.18
   4   1  -6  236.73   14.35
   4   1  -6  213.82   15.54
  -4  -1   6  227.40   11.35
  -4  -1   6  202.96   10.28
   4   1  -5  294.26   15.99
  -4  -1   5  249.06   12.38
  -4  -1   5  305.78   14.96
  -4  -1   5  306.57   14.36
  -4  -1   5  248.17   11.66
   4   1  -5  283.84   15.93
   4   1  -5  266.64   17.13
  -4  -1   5  271.65   12.78
  -4  -1   5  253.84   11.91
  -4  -1   4    6.12    1.55
   4   1  -4    7.99    2.36
  -4  -1   4    9.81    2.12
  -4  -1   4    7.52    2.23
  -4  -1   4   10.04    2.22
  -4  -1   4    7.09    1.46
   4   1  -4    5.69    1.87
   4   1  -4    5.15    1.99
  -4  -1   4    5.92    1.45
  -4  -1   4    7.71    1.60
   4   1  -3   12.44    2.70
  -4  -1   3   12.52    2.02
   4   1  -3   15.31    3.05
  -4  -1   3   16.73    2.80
  -4  -1   3   11.19    2.56
  -4  -1   3   13.08    1.96
   4   1  -3   12.12    2.72
   4   1  -3   18.42    3.68
  -4  -1   3   14.68    2.26
  -4  -1   3   14.53    2.12
   4   1  -2   12.48    2.63
   4   1  -2   16.73    3.17
  -4  -1   2   11.19    2.60
   4   1  -2   20.24    3.46
   4   1  -1  207.60   12.12
  -4  -1   1  188.94   12.33
   4   1  -1  202.31   11.28
   4   1  -1  200.34   11.64
   4   1   0   54.52    5.34
  -4  -1   0   55.97    6.07
   4   1   0   55.40    5.21
   4   1   1    6.42    1.68
   4   1   1    7.47    1.83
  -4  -1  -1    6.76    2.06
   4   1   1    5.18    1.46
   4   1   1   10.62    2.16
   4   1   1    7.86    1.77
   4   1   2   65.32    5.68
  -4  -1  -2   66.95    6.66
   4   1   2   66.62    5.25
   4   1   2   69.52    5.48
   4   1   2   66.61    5.07
   4   1   2   67.08    5.24
   4   1   3  523.49   21.16
  -4  -1  -3  469.72   22.88
   4   1   3  539.50   20.71
   4   1   3  536.26   20.32
   4   1   3  539.79   20.78
   4   1   3  508.63   19.90
  -4  -1  -4  254.19   13.89
  -4  -1  -4  213.06   12.92
  -4  -1  -4  209.80   13.11
  -4  -1  -4  264.39   10.00
   4   1   4  257.08   11.97
  -4  -1  -4  222.04   12.27
  -4  -1  -4  224.93   12.90
   4   1   4  278.41   11.88
   4   1   4  261.71   11.47
   4   1   4  271.92   12.15
   4   1   4  214.72   12.99
   4   1   4  220.13   13.07
  -4  -1  -5  674.57   28.49
  -4  -1  -5  593.60   25.38
   4   1   5  693.27   25.86
  -4  -1  -5  614.47   26.21
  -4  -1  -5  620.32   27.60
   4   1   5  653.13   24.96
   4   1   5  612.40   26.97
   4   1   5  611.24   27.08
  -4  -1  -6  552.02   23.56
  -4  -1  -6  461.97   20.50
   4   1   6  519.30   20.61
  -4  -1  -6  480.70   20.78
  -4  -1  -6  492.24   22.80
   4   1   6  480.23   19.76
   4   1   6  576.75   20.82
   4   1   6  566.68   22.15
   4   1   6  542.56   22.42
  -4  -1  -6  469.46   20.66
  -4  -1  -7  141.42   10.26
   4   1   7  179.77    7.45
  -4  -1  -7  144.25    9.23
   4   1   7  121.66    8.41
  -4  -1  -7  156.16    9.06
  -4  -1  -7  153.58   10.71
   4   1   7  141.31    8.78
   4   1   7  174.46   10.45
  -4  -1  -7  144.80    9.27
   4   1   8   44.13    3.26
  -4  -1  -8   46.70    4.83
   4   1   8   36.41    4.39
   4   1   8   38.43    4.26
  -4  -1  -8   46.55    5.50
   4   1   8   50.68    5.25
  -4  -1  -8   47.30    4.93
   4   1   9   89.52    5.02
  -4  -1  -9   97.02    7.02
   4   1   9   78.88    6.59
   4   1   9   86.41    6.85
  -4  -1  -9   99.91    7.74
  -4  -1  -9  104.65    7.37
   4   1  10   66.33    4.11
  -4  -1 -10   74.65    5.67
   4   1  10   61.59    5.45
  -4  -1 -10   71.86    5.93
   4   1  10   74.77    4.65
  -4  -1 -10   74.58    5.71
   4   1  11   72.47    4.60
  -4  -1 -11   75.84    5.10
   4   1  11   61.16    4.98
   4   1  11   71.28    4.05
  -4  -1 -11   67.73    4.99
   4   1  11   69.53    4.24
  -4  -1 -11   69.94    4.99
   4   1  12   13.77    1.53
  -4  -1 -12   15.50    1.74
   4   1  12   11.56    1.65
   4   1  12   15.04    1.54
  -4  -1 -12   13.38    1.62
   4   2 -11   12.07    1.55
   4   2 -11   12.07    1.50
  -4  -2  10   10.20    1.69
   4   2 -10    9.08    1.58
   4   2 -10    9.37    1.59
  -4  -2  10   11.44    1.56
   4   2  -9    4.16    1.10
  -4  -2   9    4.60    1.30
  -4  -2   9    5.39    1.30
  -4  -2   9    4.15    0.94
   4   2  -9    4.88    1.26
  -4  -2   9    4.18    1.05
  -4  -2   9    3.72    0.87
   4   2  -8  127.49    9.84
  -4  -2   8  108.48    7.05
  -4  -2   8  133.60    8.10
  -4  -2   8  107.23    6.22
   4   2  -8  119.38    7.54
   4   2  -8  110.25   10.81
  -4  -2   8  120.53    7.11
  -4  -2   8  109.25    6.58
   4   2  -7   83.10    8.02
  -4  -2   7   67.94    5.50
  -4  -2   7   88.89    7.09
  -4  -2   7   86.36    6.54
  -4  -2   7   80.32    5.30
   4   2  -7   81.65    8.01
   4   2  -7   75.14    8.94
  -4  -2   7   77.30    5.67
  -4  -2   7   73.04    5.32
   4   2  -6  315.80   17.64
  -4  -2   6  285.88   13.72
  -4  -2   6  356.60   16.38
  -4  -2   6  368.33   15.59
  -4  -2   6  288.96   12.93
   4   2  -6  336.41   18.19
   4   2  -6  287.91   19.25
  -4  -2   6  309.02   13.87
  -4  -2   6  281.33   13.21
   4   2  -5  669.82   28.68
  -4  -2   5  599.08   23.89
  -4  -2   5  719.80   27.05
  -4  -2   5  613.92   23.14
   4   2  -5  709.94   29.41
   4   2  -5  667.08   31.63
  -4  -2   5  662.16   24.26
  -4  -2   5  610.75   23.61
  -4  -2   4  159.47    8.90
   4   2  -4  172.86   11.76
  -4  -2   4  221.61   12.27
  -4  -2   4  219.16   10.89
  -4  -2   4  200.98   11.15
  -4  -2   4  156.82    8.30
   4   2  -4  181.41   12.21
   4   2  -4  168.73   13.35
  -4  -2   4  169.41    9.07
  -4  -2   4  159.69    8.77
  -4  -2   3    6.08    1.42
   4   2  -3    5.79    1.78
  -4  -2   3    6.79    1.81
  -4  -2   3    9.51    2.39
  -4  -2   3    7.17    1.33
   4   2  -3    7.63    2.09
   4   2  -3    6.93    2.55
  -4  -2   3    4.63    1.16
   4   2  -3    7.44    2.04
   4   2  -2   46.55    5.16
  -4  -2   2   46.50    5.44
   4   2  -2   40.73    5.05
   4   2  -2   48.55    6.21
   4   2  -2   46.33    5.09
   4   2  -1    4.19    1.55
   4   2  -1    5.65    1.67
  -4  -2   1    4.16    1.42
   4   2  -1    4.02    1.51
  -4  -2   1    3.87    2.00
   4   2  -1    6.00    1.73
   4   2   0  329.36   16.39
  -4  -2   0  352.16   17.84
   4   2   0  398.17   16.67
  -4  -2   0  330.46   19.69
   4   2   0  331.34   15.98
   4   2   0  350.31   16.21
   4   2   1    5.30    1.47
   4   2   1   10.73    2.14
  -4  -2  -1    5.50    1.77
   4   2   1    4.24    1.27
   4   2   1    6.83    1.61
  -4  -2  -1    4.48    2.01
   4   2   1    6.22    1.45
   4   2   2   18.08    2.63
   4   2   2   15.81    2.63
  -4  -2  -2   15.11    2.98
   4   2   2   13.53    2.15
   4   2   2   14.05    2.34
   4   2   2   12.98    2.04
   4   2   2   17.41    2.48
  -4  -2  -2   11.38    3.09
   4   2   3  150.11    8.72
  -4  -2  -3  139.52    9.81
   4   2   3  148.60    8.16
   4   2   3  140.30    7.70
   4   2   3  137.85    8.03
   4   2   3  148.90    7.63
   4   2   3  123.00    9.06
  -4  -2  -4  661.54   26.89
  -4  -2  -4  599.20   26.28
  -4  -2  -4  650.66   21.89
   4   2   4  626.63   23.73
  -4  -2  -4  612.73   24.82
  -4  -2  -4  580.69   25.54
   4   2   4  732.34   23.80
   4   2   4  651.65   23.06
   4   2   4  688.07   24.18
   4   2   4  564.59   25.40
   4   2   4  587.56   25.56
  -4  -2  -4  662.50   22.85
  -4  -2  -5  315.81   17.36
  -4  -2  -5  313.88   15.55
   4   2   5  363.46   15.46
  -4  -2  -5  333.51   16.02
  -4  -2  -5  330.57   17.31
   4   2   5  429.42   15.58
   4   2   5  354.53   17.02
   4   2   5  343.32   16.91
  -4  -2  -5  302.90   15.40
  -4  -2  -6  145.14    9.15
   4   2   6  145.31    8.52
  -4  -2  -6  156.15    9.27
  -4  -2  -6  157.48   10.59
   4   2   6  182.37   10.28
   4   2   6  165.34   10.14
  -4  -2  -6  130.16    8.79
  -4  -2  -7   53.38    5.17
   4   2   7   47.07    4.59
  -4  -2  -7   53.08    4.83
  -4  -2  -7   57.67    6.09
   4   2   7   46.88    5.17
  -4  -2  -7   53.97    5.31
  -4  -2  -8   97.32    7.28
   4   2   8   81.73    6.69
   4   2   8   84.68    6.60
  -4  -2  -8  101.41    8.16
   4   2   8   99.65    7.64
  -4  -2  -8   93.31    7.25
  -4  -2  -9   22.49    3.26
   4   2   9   17.18    2.86
  -4  -2  -9   22.86    3.46
   4   2   9   19.63    2.34
  -4  -2  -9   20.41    3.14
  -4  -2 -10   10.18    1.93
   4   2  10    5.42    1.48
  -4  -2 -10    7.38    1.87
   4   2  10    7.72    1.39
  -4  -2 -10    7.79    1.69
   4   2  11    9.03    1.49
  -4  -2 -11   11.27    1.86
   4   2  11    9.14    1.74
   4   2  11   11.92    1.55
   4   2  11   11.35    1.55
  -4  -2 -11   12.59    1.92
   4   2  12   15.53    1.69
  -4  -2 -12   15.20    1.75
   4   2  12   16.52    1.62
  -4  -2 -12   14.20    1.69
  -4  -3  11    5.75    0.98
   4   3 -11    3.82    0.85
   4   3 -11    4.29    0.82
   4   3 -10   24.91    2.44
  -4  -3  10   24.13    2.51
   4   3 -10   22.72    2.46
  -4  -3  10   23.92    2.19
   4   3  -9    7.18    1.42
  -4  -3   9    7.91    1.52
   4   3  -9    8.15    1.71
  -4  -3   9    8.38    1.51
   4   3  -8   29.98    3.27
  -4  -3   8   33.36    3.42
  -4  -3   8   39.59    4.22
   4   3  -8   28.06    5.25
  -4  -3   8   27.56    3.02
   4   3  -7   48.77    6.13
  -4  -3   7   44.12    4.20
  -4  -3   7   55.70    5.46
  -4  -3   7   63.85    4.33
   4   3  -7   51.45    6.33
   4   3  -7   50.49    7.46
  -4  -3   7   44.53    4.08
  -4  -3   6   17.47    2.55
   4   3  -6   18.32    3.67
  -4  -3   6   15.76    2.92
  -4  -3   6   19.30    2.30
   4   3  -6   19.96    3.89
   4   3  -6   14.62    4.09
  -4  -3   6   19.04    2.60
  -4  -3   5  380.97   17.06
   4   3  -5  441.87   21.95
  -4  -3   5  444.65   19.77
   4   3  -5  467.26   22.37
   4   3  -5  402.02   24.05
   4   3  -5  407.83   21.21
  -4  -3   5  391.31   17.09
   4   3  -5  408.45   21.03
  -4  -3   4   77.45    5.56
   4   3  -4   87.73    8.15
  -4  -3   4  116.70    8.53
  -4  -3   4  106.08    7.29
  -4  -3   4   93.80    7.31
  -4  -3   4   77.49    5.13
   4   3  -4   84.37    7.99
   4   3  -4   86.08    9.59
   4   3  -4   78.33    7.54
  -4  -3   4   78.34    5.62
   4   3  -4   89.40    8.06
   4   3  -3    1.16    1.09
  -4  -3   3    1.65    0.63
  -4  -3   3    1.93    0.95
  -4  -3   3    1.95    1.06
  -4  -3   3    0.92    0.43
   4   3  -3    0.52    0.55
   4   3  -3    0.53    0.82
  -4  -3   3    1.00    0.55
  -4  -3   3    2.47    1.63
   4   3  -3    1.31    1.24
  -4  -3   2   11.93    2.75
   4   3  -2   10.46    2.23
  -4  -3   2   10.82    1.82
  -4  -3   2   11.46    3.28
   4   3  -2   10.90    2.59
   4   3  -1  311.75   14.31
  -4  -3   1  353.90   17.02
   4   3  -1  301.97   15.74
   4   3   0  621.12   25.87
  -4  -3   0  585.85   29.57
   4   3   1  613.73   23.96
   4   3   1  584.97   23.46
   4   3   1  546.10   22.16
   4   3   1  574.82   22.62
  -4  -3  -1  566.03   28.03
   4   3   1  622.55   23.34
   4   3   2   21.92    2.85
   4   3   2   22.22    3.00
  -4  -3  -2   27.72    4.07
   4   3   2   21.20    2.73
   4   3   2   23.72    2.69
   4   3   2   21.57    2.69
   4   3   2   19.43    3.14
  -4  -3  -2   24.83    4.58
   4   3   3    8.87    1.88
  -4  -3  -3    6.76    2.10
  -4  -3  -3    9.30    1.41
   4   3   3    8.45    1.67
  -4  -3  -3    9.95    1.96
  -4  -3  -3    8.64    2.09
   4   3   3   11.30    1.85
   4   3   3    7.62    1.98
   4   3   3    7.87    1.96
  -4  -3  -3    7.92    2.64
  -4  -3  -4  164.19   10.87
  -4  -3  -4  147.32    9.15
  -4  -3  -4  153.94    9.30
  -4  -3  -4  204.29    8.13
   4   3   4  182.87    9.02
  -4  -3  -4  177.08   10.01
  -4  -3  -4  168.55   10.64
   4   3   4  167.87   10.37
   4   3   4  170.26   10.40
  -4  -3  -4  173.59    8.12
  -4  -3  -5   89.72    6.83
  -4  -3  -5   89.58    6.91
   4   3   5  103.96    6.49
  -4  -3  -5   99.23    7.18
  -4  -3  -5   91.25    7.75
   4   3   5  103.82    7.71
   4   3   5   94.94    7.49
  -4  -3  -5   93.01    6.93
  -4  -3  -6   61.71    5.47
  -4  -3  -6   61.83    5.69
  -4  -3  -6   73.41    5.92
  -4  -3  -6   64.35    6.45
  -4  -3  -6   62.64    5.66
  -4  -3  -7   30.89    3.78
  -4  -3  -7   27.13    3.68
   4   3   7   33.01    3.82
  -4  -3  -7   34.67    3.80
  -4  -3  -7   30.34    4.34
   4   3   7   37.62    4.53
  -4  -3  -7   34.04    4.17
  -4  -3  -8   46.10    4.63
  -4  -3  -8   48.68    5.02
   4   3   8   38.46    4.33
  -4  -3  -8   51.49    5.60
   4   3   8   46.72    5.14
  -4  -3  -8   45.56    4.88
  -4  -3  -9   32.90    3.72
  -4  -3  -9   34.67    4.04
   4   3   9   27.81    3.57
  -4  -3  -9   39.86    4.56
   4   3   9   34.87    3.12
  -4  -3  -9   35.17    4.02
   4   3  10   15.97    2.27
  -4  -3 -10   14.15    2.13
  -4  -3 -10   17.20    2.54
   4   3  10   14.91    2.39
   4   3  10   14.96    1.91
  -4  -3 -10   12.23    2.20
   4   3  11   33.69    3.05
  -4  -3 -11   35.85    2.99
  -4  -3 -11   36.08    3.30
   4   3  11   32.09    3.05
   4   3  11   34.89    2.86
   4   3  11   33.68    2.75
  -4  -3 -11   30.53    3.09
   4   3  12    5.94    1.00
  -4  -3 -12    5.17    0.94
   4   3  12    6.83    0.97
   4   4 -11    1.95    0.52
   4   4 -11    1.80    0.47
   4   4 -10   20.19    2.14
  -4  -4  10   23.57    2.29
   4   4 -10   24.08    2.42
  -4  -4  10   20.09    2.01
   4   4  -9   40.80    3.58
  -4  -4   9   44.73    3.63
  -4  -4   9   43.31    3.52
  -4  -4   8   -0.09    0.28
  -4  -4   8   -0.41    0.78
  -4  -4   8    0.06    0.33
  -4  -4   7   81.99    5.97
   4   4  -7   97.15    8.65
  -4  -4   7   84.56    5.77
  -4  -4   7   90.41    7.03
   4   4  -7   86.70    8.24
   4   4  -7   80.97    9.54
  -4  -4   7   77.85    5.60
  -4  -4   6  316.84   14.95
  -4  -4   6  338.22   14.71
   4   4  -6  374.85   19.62
  -4  -4   6  384.04   17.36
   4   4  -6  389.69   19.80
   4   4  -6  355.65   22.17
  -4  -4   6  333.68   14.77
  -4  -4   5  553.20   22.91
  -4  -4   5  569.80   22.49
   4   4  -5  651.24   28.42
  -4  -4   5  663.42   25.89
  -4  -4   5  626.93   21.86
   4   4  -5  607.83   31.54
  -4  -4   5  576.02   22.78
   4   4  -5  588.44   27.30
  -4  -4   4   63.12    5.08
  -4  -4   4   63.40    4.83
  -4  -4   4   90.61    6.88
  -4  -4   4   76.68    6.56
  -4  -4   4   75.46    4.74
   4   4  -4   66.91    8.78
  -4  -4   4   69.03    5.19
   4   4  -4   73.39    7.24
  -4  -4   4   71.78    8.74
   4   4  -4   82.78    7.86
   4   4  -4   72.66    6.79
   4   4  -3    9.26    2.32
   4   4  -3    9.12    1.92
  -4  -4   3    8.86    1.70
  -4  -4   3    9.37    2.11
  -4  -4   3   11.99    2.36
  -4  -4   3   14.91    3.19
  -4  -4   3    9.35    1.53
  -4  -4   3    8.11    1.62
  -4  -4   3    8.31    2.98
   4   4  -3    6.29    1.98
   4   4  -3    8.07    2.55
   4   4  -2   11.32    2.27
  -4  -4   2   10.14    2.21
  -4  -4   2   13.29    2.45
  -4  -4   2   12.87    2.85
  -4  -4   2   10.32    1.56
  -4  -4   2    9.46    1.71
  -4  -4   2    8.00    2.74
   4   4  -2   10.11    2.46
   4   4  -1  157.96    9.71
  -4  -4   1  199.79   12.03
  -4  -4   1  165.26    9.42
  -4  -4   1  154.12    9.37
  -4  -4   1  149.36    7.27
   4   4  -1  156.56    9.27
  -4  -4   1  130.84    7.49
   4   4  -1  183.93    9.94
  -4  -4   1  136.15   12.18
   4   4   0   73.27    5.89
   4   4   0   73.36    6.06
  -4  -4   0   63.71    8.01
   4   4   1    1.82    0.88
  -4  -4  -1    3.72    1.61
  -4  -4  -1    1.83    0.50
  -4  -4  -1    2.55    0.97
   4   4   1    2.32    1.16
   4   4   1    3.21    1.23
  -4  -4  -1    0.26    0.92
   4   4   2  199.69    9.98
  -4  -4  -2  202.23   12.44
  -4  -4  -2  182.36   10.14
  -4  -4  -2  172.50    9.74
  -4  -4  -2  196.73    8.35
  -4  -4  -2  183.31   10.23
   4   4   2  195.27   10.93
   4   4   2  180.87   10.33
  -4  -4  -3  221.21   12.83
  -4  -4  -3  179.54   10.28
  -4  -4  -3  179.13   10.15
  -4  -4  -3  235.44    8.89
  -4  -4  -3  177.49   10.28
   4   4   3  209.57   11.33
   4   4   3  194.90   10.85
  -4  -4  -3  171.04    8.37
  -4  -4  -3  154.57   12.98
  -4  -4  -4   21.96    3.05
  -4  -4  -4   19.30    2.91
  -4  -4  -4   23.73    3.25
  -4  -4  -4   27.19    3.44
   4   4   4   29.54    3.81
   4   4   4   25.33    3.57
  -4  -4  -4   22.84    3.12
  -4  -4  -5   43.30    4.30
  -4  -4  -5   45.49    4.71
  -4  -4  -5   44.84    4.68
  -4  -4  -5   50.19    4.83
  -4  -4  -5   47.48    5.31
   4   4   5   45.90    4.86
  -4  -4  -5   36.16    4.26
  -4  -4  -6   48.60    4.72
  -4  -4  -6   55.77    5.30
  -4  -4  -6   50.90    5.16
  -4  -4  -6   55.39    4.97
  -4  -4  -6   55.57    5.97
   4   4   6   58.45    5.62
   4   4   6   61.13    6.95
  -4  -4  -6   55.02    5.27
  -4  -4  -7   87.47    6.62
  -4  -4  -7   98.04    7.24
  -4  -4  -7   91.10    7.17
  -4  -4  -7  115.82    7.16
   4   4   7   97.58    7.68
   4   4   7   88.65    8.05
  -4  -4  -7   92.59    7.21
  -4  -4  -8   16.51    2.64
  -4  -4  -8   16.66    2.77
  -4  -4  -8   18.06    2.97
   4   4   8   24.03    4.31
   4   4   8   18.75    2.22
  -4  -4  -8   17.79    2.93
   4   4   9  163.96    8.64
  -4  -4  -9  160.47    8.71
  -4  -4  -9  157.17    9.07
  -4  -4  -9  159.29    9.29
   4   4   9  137.16    7.28
  -4  -4  -9  145.41    9.08
   4   4  10   21.65    2.58
  -4  -4 -10   22.70    2.56
  -4  -4 -10   20.99    2.70
  -4  -4 -10   19.34    2.67
   4   4  10   26.63    2.70
   4   4  10   18.41    2.07
  -4  -4 -10   22.01    2.90
   4   4  11    5.69    1.16
  -4  -4 -11    4.68    1.07
  -4  -4 -11    3.59    0.94
   4   4  11    4.44    0.97
   4   4  11    4.73    0.91
   4   5 -10   69.27    4.14
  -4  -5  10   74.19    3.99
   4   5 -10   75.01    4.37
  -4  -5  10   73.24    4.07
   4   5  -9    0.49    0.59
  -4  -5   9    1.36    0.62
  -4  -5   9    0.31    0.37
  -4  -5   8   35.62    3.46
  -4  -5   8   33.46    3.12
  -4  -5   8   43.96    4.10
  -4  -5   8   32.94    3.21
  -4  -5   7   33.44    3.57
  -4  -5   7   38.99    3.54
  -4  -5   7   45.57    4.67
   4   5  -7   38.82    6.45
  -4  -5   7   41.17    3.71
  -4  -5   6  307.63   14.49
  -4  -5   6  351.81   14.34
   4   5  -6  379.73   19.63
  -4  -5   6  379.24   17.12
   4   5  -6  333.10   21.64
  -4  -5   6  334.86   14.55
  -4  -5   5  158.53    9.13
   4   5  -5  186.28   12.94
  -4  -5   5  183.72   11.11
   4   5  -5  181.55   15.31
  -4  -5   5  165.32    9.10
   4   5  -5  172.49   12.45
   4   5  -5  178.80   11.98
   4   5  -4   21.43    3.86
  -4  -5   4   14.05    2.28
   4   5  -4   26.85    4.42
  -4  -5   4   22.35    3.54
  -4  -5   4   19.16    3.18
  -4  -5   4   17.23    2.40
   4   5  -4   18.31    3.67
  -4  -5   3   91.13    6.06
  -4  -5   3  121.84    8.27
  -4  -5   3  111.41    8.13
  -4  -5   3  105.51    6.50
  -4  -5   3   94.69   10.37
   4   5  -3  102.62    9.00
   4   5  -3  118.64    9.29
   4   5  -3   85.62    7.15
   4   5  -2   31.42    4.15
  -4  -5   2   43.77    4.67
  -4  -5   2   33.00    4.11
  -4  -5   2   36.85    2.96
   4   5  -2   43.60    7.10
  -4  -5   2   33.47    3.32
  -4  -5   2   30.06    5.60
   4   5  -1    7.29    1.71
  -4  -5   1    8.35    2.06
  -4  -5   1    8.06    1.90
  -4  -5   1    7.49    1.28
  -4  -5   1   11.56    2.07
   4   5  -1    6.33    1.68
  -4  -5   1    6.31    1.35
  -4  -5   1    5.39    2.40
  -4  -5   0   21.46    3.14
  -4  -5   0   20.68    3.11
   4   5   0   25.54    3.89
  -4  -5   0   19.69    2.10
  -4  -5   0   26.33    3.22
  -4  -5   0   16.92    2.16
   4   5   0   20.78    3.17
  -4  -5   0   16.80    4.01
  -4  -5  -1  173.99   10.33
  -4  -5  -1  196.47   10.91
  -4  -5  -1  215.96    8.78
  -4  -5  -1  239.60   11.28
   4   5   1  227.22   11.08
  -4  -5  -1  156.67    8.34
   4   5   1  191.69   11.57
  -4  -5  -1  156.97   13.64
  -4  -5  -2  794.99   32.25
  -4  -5  -2  793.68   32.48
  -4  -5  -2 1044.52   30.21
  -4  -5  -2 1028.31   33.48
   4   5   2  932.66   33.09
   4   5   2  764.93   33.87
  -4  -5  -2  706.24   37.13
  -4  -5  -3  387.73   18.53
  -4  -5  -3  390.06   18.80
  -4  -5  -3  384.27   18.61
  -4  -5  -3  490.69   19.64
   4   5   3  474.35   19.25
   4   5   3  381.39   20.36
  -4  -5  -3  347.76   22.50
  -4  -5  -4  192.36   11.52
  -4  -5  -4  199.90   11.88
  -4  -5  -4  195.70   11.77
   4   5   4  204.26   11.80
   4   5   4  204.40   13.42
  -4  -5  -5  110.89    7.79
  -4  -5  -5  104.81    7.86
  -4  -5  -5  110.29    8.00
  -4  -5  -5  140.62    8.45
  -4  -5  -5  110.62    7.61
   4   5   5  115.71    8.15
   4   5   5  121.02    9.57
  -4  -5  -6  106.91    7.69
  -4  -5  -6  104.52    7.84
  -4  -5  -6  106.95    7.92
  -4  -5  -6  135.06    8.09
  -4  -5  -6  107.85    7.54
   4   5   6  109.11    8.18
   4   5   6  117.94    9.35
  -4  -5  -7   69.31    5.98
  -4  -5  -7   73.84    6.31
  -4  -5  -7   72.10    6.27
  -4  -5  -7   89.49    6.05
  -4  -5  -7   67.51    5.73
   4   5   7   75.87    6.78
   4   5   8   19.03    2.59
  -4  -5  -8   19.80    2.91
  -4  -5  -8   21.58    3.15
  -4  -5  -8   19.08    3.00
  -4  -5  -8   18.12    2.71
   4   5   9   17.09    2.32
  -4  -5  -9   16.69    2.44
  -4  -5  -9   16.02    2.54
  -4  -5  -9   19.44    2.73
  -4  -5  -9   21.47    2.73
   4   5  10   17.35    2.16
  -4  -5 -10   16.71    2.14
  -4  -5 -10   16.92    2.34
  -4  -5 -10   16.15    2.28
   4   5  10   16.12    2.08
  -4  -5 -10   18.26    2.23
   4   5  11   30.43    2.54
  -4  -5 -11   32.76    2.70
   4   5  11   28.71    2.48
   4   5  11   31.50    3.05
   4   6 -10   37.22    2.62
   4   6 -10   40.22    2.69
  -4  -6  10   42.54    2.63
   4   6  -9    2.34    0.73
   4   6  -9    1.81    0.57
  -4  -6   9    3.21    0.78
  -4  -6   8   22.55    2.67
   4   6  -8   20.23    2.35
  -4  -6   8   21.82    2.40
  -4  -6   7   10.56    1.81
  -4  -6   7   11.27    2.15
  -4  -6   7   10.11    1.67
  -4  -6   6   46.86    4.08
   4   6  -6   43.22    5.69
  -4  -6   6   51.59    5.14
   4   6  -6   42.17    6.74
  -4  -6   6   45.86    3.99
   4   6  -6   45.43    5.59
  -4  -6   5   93.19    6.35
  -4  -6   5  118.29    8.37
   4   6  -5  108.11   11.49
  -4  -6   5  108.32    6.69
   4   6  -5   87.38    8.39
  -4  -6   4  374.82   16.48
  -4  -6   4  449.88   19.75
  -4  -6   4  404.04   16.89
   4   6  -4  397.68   21.21
   4   6  -4  434.38   21.48
  -4  -6   3  160.83   10.02
  -4  -6   3  137.71    9.41
   4   6  -3  128.92   12.93
  -4  -6   3  132.37    7.67
   4   6  -3  153.04   11.26
   4   6  -3  134.89   10.75
   4   6  -2   58.14    6.00
  -4  -6   2   75.85    6.49
  -4  -6   2   70.26    6.27
  -4  -6   2   60.81    4.89
   4   6  -2   70.30    9.59
  -4  -6   2   60.70    4.65
   4   6  -2   72.51    7.54
   4   6  -1   14.82    3.01
  -4  -6   1   15.43    2.86
  -4  -6   1   14.10    2.57
  -4  -6   1   23.13    2.99
   4   6  -1   17.90    4.97
  -4  -6   1   19.20    2.39
   4   6  -1   15.90    2.98
  -4  -6   1   13.05    3.69
   4   6   0   13.61    2.96
  -4  -6   0   11.20    2.33
  -4  -6   0   11.61    2.47
   4   6   0   18.99    3.33
  -4  -6   0   19.18    2.04
  -4  -6   0   17.38    2.69
   4   6   0   19.07    3.55
   4   6   0   14.47    2.76
  -4  -6   0   12.53    3.75
  -4  -6  -1   32.78    4.17
  -4  -6  -1   37.99    4.45
  -4  -6  -1   33.21    4.01
   4   6   1   44.33    5.40
  -4  -6  -1   51.76    3.56
  -4  -6  -1   51.08    4.80
   4   6   1   36.70    4.50
  -4  -6  -1   36.00    6.19
  -4  -6  -2   39.77    4.52
  -4  -6  -2   40.66    4.49
  -4  -6  -2   38.86    4.58
   4   6   2   56.07    6.42
  -4  -6  -2   73.29    4.21
  -4  -6  -2   60.81    5.32
   4   6   2   47.72    5.41
  -4  -6  -2   40.81    6.58
  -4  -6  -3  364.65   17.48
  -4  -6  -3  354.60   16.89
  -4  -6  -3  358.99   17.50
   4   6   3  482.96   22.20
  -4  -6  -3  482.15   18.43
   4   6   3  409.58   19.47
  -4  -6  -3  304.60   21.00
  -4  -6  -4  123.68    8.70
  -4  -6  -4  126.15    8.95
   4   6   4  165.93   12.16
  -4  -6  -4  167.69    9.46
   4   6   4  129.35    9.87
  -4  -6  -5  232.81   12.93
  -4  -6  -5  226.87   12.99
  -4  -6  -5  230.82   13.01
   4   6   5  332.42   17.86
  -4  -6  -5  324.04   13.74
  -4  -6  -5  235.19   12.69
   4   6   5  252.70   14.64
  -4  -6  -6  124.21    8.45
  -4  -6  -6  116.95    8.41
  -4  -6  -6  114.41    8.30
   4   6   6  155.76   11.57
  -4  -6  -6  159.01    8.64
  -4  -6  -6  117.27    8.10
  -4  -6  -7   74.20    6.18
  -4  -6  -7   77.81    6.45
  -4  -6  -7   79.63    6.47
  -4  -6  -7   73.90    6.03
   4   6   8  140.56    7.55
  -4  -6  -8  140.02    8.38
  -4  -6  -8  141.05    8.59
  -4  -6  -8  125.52    8.19
  -4  -6  -8  133.90    8.12
   4   6   9   -0.30    0.20
  -4  -6  -9   -0.48    0.53
  -4  -6  -9   -0.18    0.25
  -4  -6  -9    0.54    0.32
   4   6  10    6.20    1.14
  -4  -6 -10    6.78    1.21
  -4  -6 -10    6.02    1.27
   4   6  10    3.96    0.93
   4   6  10    5.33    1.36
   4   7  -9    2.26    0.67
  -4  -7   9    2.75    0.61
   4   7  -8   -0.18    0.21
  -4  -7   8   -0.03    0.18
  -4  -7   7    9.37    1.55
  -4  -7   7   11.07    1.89
   4   7  -7    7.96    1.40
  -4  -7   7    8.16    1.44
  -4  -7   6    7.74    1.48
  -4  -7   6    8.98    1.92
  -4  -7   6    8.54    1.54
  -4  -7   5  101.99    6.35
  -4  -7   5  127.87    8.49
   4   7  -5  111.72   11.44
  -4  -7   5  119.51    6.85
   4   7  -5  102.00    9.04
  -4  -7   4  200.67   11.76
  -4  -7   4  189.55    9.63
   4   7  -4  196.64   13.34
  -4  -7   3  124.16    8.48
  -4  -7   3  111.35    8.08
  -4  -7   3   91.96    6.36
   4   7  -3  102.33   11.73
  -4  -7   3   92.04    5.96
   4   7  -3  107.03    9.47
  -4  -7   2  102.61    7.75
  -4  -7   2   89.81    7.27
  -4  -7   2   84.02    5.89
   4   7  -2   77.44   10.61
  -4  -7   2   85.30    5.54
   4   7  -2  104.22    9.36
   4   7  -1   28.30    4.35
  -4  -7   1   36.78    4.43
  -4  -7   1   31.83    4.12
   4   7  -1   39.55    7.68
   4   7  -1   35.49    4.78
   4   7   0   72.71    7.28
  -4  -7   0   75.67    6.55
  -4  -7   0   63.78    5.97
  -4  -7   0   61.47    5.38
   4   7   0   71.90   10.96
   4   7   0   72.52    7.41
   4   7   1  188.50   12.68
  -4  -7  -1  172.05   10.83
  -4  -7  -1  176.56   10.92
  -4  -7  -1  149.89   10.07
   4   7   1  199.52   12.63
  -4  -7  -1  243.03   11.52
   4   7   1  229.55   14.23
   4   7   1  166.99   10.79
   4   7   2   11.91    2.80
  -4  -7  -2    9.88    2.10
  -4  -7  -2    7.61    1.95
  -4  -7  -2    8.79    2.14
   4   7   2   13.68    3.08
  -4  -7  -2   15.10    2.66
   4   7   2   13.89    3.30
   4   7   2    9.59    2.40
  -4  -7  -3   14.71    2.75
  -4  -7  -3   13.09    2.49
  -4  -7  -3   13.54    2.54
  -4  -7  -3   11.47    2.49
   4   7   3   19.13    3.85
  -4  -7  -3   18.51    2.95
   4   7   3   22.29    4.37
   4   7   3   13.47    2.85
  -4  -7  -4  411.79   19.77
  -4  -7  -4  392.08   18.91
  -4  -7  -4  415.15   19.82
   4   7   4  551.17   24.61
  -4  -7  -4  547.98   20.46
   4   7   4  627.52   26.86
  -4  -7  -5   34.38    4.18
  -4  -7  -5   28.30    3.58
  -4  -7  -5   34.49    4.24
   4   7   5   46.72    6.06
  -4  -7  -5   41.57    4.15
  -4  -7  -6   88.26    6.96
  -4  -7  -6   84.68    6.88
   4   7   6   98.88    6.10
  -4  -7  -6  108.28    6.84
  -4  -7  -7   27.90    3.48
  -4  -7  -7   31.47    3.72
   4   7   7   28.88    3.03
  -4  -7  -8   19.72    2.63
  -4  -7  -8   20.62    2.77
   4   7   8   15.66    2.09
   4   7   8   16.72    2.73
  -4  -7  -9   16.51    2.16
  -4  -7  -9   16.34    2.20
   4   7   9   17.28    2.02
   4   7   9   15.74    2.38
  -4  -7 -10    2.66    0.68
  -4  -7 -10    3.25    0.81
   4   7  10    2.41    0.61
   4   7  10    3.50    0.74
   4   7  10    3.18    0.86
   4   8  -8    5.66    0.90
  -4  -8   8    8.13    1.07
  -4  -8   7    5.63    1.22
   4   8  -7    4.99    1.02
  -4  -8   7    6.03    1.02
  -4  -8   6   15.99    2.35
  -4  -8   6   15.20    1.88
  -4  -8   5    6.40    1.58
  -4  -8   5    6.20    1.20
  -4  -8   4    1.76    0.99
  -4  -8   4    2.38    1.11
  -4  -8   4    0.90    0.46
   4   8  -3    2.22    1.51
  -4  -8   3    3.65    1.43
  -4  -8   3    4.17    1.69
  -4  -8   3    3.65    1.03
   4   8  -3    8.08    3.49
  -4  -8   2  138.18    8.88
  -4  -8   2  110.54    8.06
  -4  -8   2   99.53    6.44
   4   8  -2  107.52   12.73
   4   8  -2  136.15   10.81
   4   8  -1    2.01    1.10
  -4  -8   1    0.39    0.53
  -4  -8   1    1.89    1.14
   4   8  -1   -0.03    0.60
  -4  -8   0    0.70    0.31
  -4  -8   0    0.81    0.56
  -4  -8   0    0.55    0.29
   4   8   0    4.24    2.65
   4   8   0    3.02    1.58
  -4  -8  -1    7.42    1.81
  -4  -8  -1   10.87    2.33
  -4  -8  -1    8.27    1.79
   4   8   1   11.59    2.77
   4   8   1    8.78    4.12
   4   8   1    8.61    2.42
  -4  -8  -2   36.13    4.37
  -4  -8  -2   37.25    4.42
  -4  -8  -2   33.94    4.07
   4   8   2   46.72    5.99
   4   8   2   43.31    8.73
   4   8   2   44.56    6.02
  -4  -8  -3   71.40    6.12
  -4  -8  -3   73.76    6.37
  -4  -8  -3   62.93    5.51
   4   8   3   94.19    8.54
   4   8   3   85.08    8.57
  -4  -8  -4   14.22    2.55
  -4  -8  -4   14.95    2.77
   4   8   4   16.43    3.57
  -4  -8  -5   15.16    2.65
  -4  -8  -5   18.41    2.69
  -4  -8  -5   15.35    2.58
  -4  -8  -6   50.02    4.80
  -4  -8  -6   51.96    4.39
  -4  -8  -6   54.39    4.89
   4   8   6   48.74    4.70
  -4  -8  -7   23.24    2.96
  -4  -8  -7   26.20    3.08
   4   8   7   22.24    2.94
  -4  -8  -8   26.97    2.90
  -4  -8  -8   29.13    2.96
   4   8   8   29.31    2.85
   4   8   8   28.98    2.42
   4   8   8   25.46    2.95
  -4  -8  -9  149.02    6.93
   4   8   9  146.18    6.81
   4   8   9  147.21    7.24
   4   9  -7   14.92    1.50
  -4  -9   6   14.27    1.83
   4   9  -6   12.25    1.56
  -4  -9   5    3.45    0.99
  -4  -9   4   29.75    3.40
  -4  -9   3    4.29    1.38
  -4  -9   3    2.96    1.19
  -4  -9   2   37.73    4.07
  -4  -9   2   30.55    3.79
  -4  -9   1  197.87   10.63
  -4  -9   1  168.41   10.11
  -4  -9   0  426.95   17.75
  -4  -9   0  348.82   16.75
  -4  -9  -1   13.40    2.41
  -4  -9  -1   14.14    2.48
  -4  -9  -1   11.75    2.07
  -4  -9  -2   51.86    4.84
  -4  -9  -2   41.97    4.28
  -4  -9  -3    0.72    0.43
  -4  -9  -3    1.35    0.73
  -4  -9  -3    0.69    0.50
   4   9   3    0.90    0.43
  -4  -9  -4   16.40    2.51
  -4  -9  -4   17.01    2.61
   4   9   4   15.13    2.22
  -4  -9  -5   48.82    4.29
  -4  -9  -5   56.48    4.67
   4   9   5   52.25    4.21
  -4  -9  -6   25.09    2.61
  -4  -9  -6   24.26    2.73
   4   9   6   17.68    2.29
  -4  -9  -7   30.03    2.80
   4   9   7   27.30    2.63
   4   9   8  134.05    6.20
   4   9   8  122.40    5.98
  -4 -10   5   14.12    1.62
   4  10  -5    9.26    1.25
  -4 -10   4    9.38    1.55
   4  10  -4    5.80    0.98
  -4 -10   3   11.65    1.86
   4  10  -3    8.39    1.38
  -4 -10   2    1.72    0.72
  -4 -10   2    2.84    0.92
  -4 -10   1   12.32    2.12
  -4 -10   1   14.40    2.12
   4  10   0   17.22    2.18
  -4 -10   0   20.06    2.61
  -4 -10   0   18.16    2.52
  -4 -10  -1  118.96    7.03
  -4 -10  -1  109.20    6.89
  -4 -10  -2   43.07    3.82
  -4 -10  -2   36.99    3.54
   4  10   3    7.56    1.28
  -4 -10  -3    4.34    1.06
  -4 -10  -3    5.06    1.23
   4  10   4   36.10    3.06
  -4 -10  -4   34.86    3.22
   4  10   5   34.67    2.90
  -4 -10  -5   36.72    3.00
   4  10   5   32.96    2.72
   4  10   6   13.14    1.57
  -4 -11   2   61.98    3.82
   4  11  -2   44.99    3.05
  -4 -11   1   12.96    1.72
   4  11  -1   10.81    1.49
  -4 -11   0   38.33    3.14
  -4 -11  -1    9.74    1.49
   4  11   2   18.98    1.95
  -4 -11  -2   20.01    2.02
   4  11   3    9.65    1.35
  -5   7   1    5.17    1.12
  -5   7   0   31.73    2.85
   5  -6  -4   19.10    1.76
   5  -6  -4   16.65    1.50
  -5   6   3   30.88    3.03
   5  -6  -3   27.51    2.34
   5  -6  -3   27.06    2.13
  -5   6   3   26.10    3.04
   5  -6  -2  132.56    5.34
  -5   6   2  147.81    8.04
   5  -6  -2  128.38    6.35
   5  -6  -2  141.53    6.26
  -5   6   2  139.83    8.35
   5  -6  -1   73.07    3.63
  -5   6   1   80.38    5.79
   5  -6  -1   71.66    4.31
   5  -6  -1   75.48    4.25
  -5   6   1   82.98    6.31
   5  -6   0  186.14    7.07
  -5   6   0  188.97    9.82
   5  -6   0  162.33    7.51
   5  -6   0  173.01    7.58
  -5   6   0  190.51   10.53
  -5   6   0  152.06    8.16
   5  -6   1   63.48    3.42
  -5   6  -1   63.56    4.85
  -5   6  -1   52.86    4.44
  -5   6  -1   62.53    5.12
   5  -6   1   57.51    3.65
  -5   6  -1   64.74    5.64
  -5   6  -1   55.53    4.41
   5  -6   2   39.55    2.62
  -5   6  -2   44.89    4.09
  -5   6  -2   37.66    3.71
  -5   6  -2   44.12    4.00
   5  -6   2   40.50    3.09
   5  -6   2   36.05    2.72
  -5   6  -2   36.80    3.54
   5  -6   3   20.74    1.80
  -5   6  -3   24.24    2.97
  -5   6  -3   22.62    2.79
  -5   6  -3   22.63    2.65
   5  -6   3   23.03    2.21
  -5   6  -3   20.88    2.55
   5  -6   4    4.54    0.82
  -5   6  -4    4.36    1.18
  -5   6  -4    5.40    1.25
   5  -6   4    4.08    0.88
  -5   6  -4    5.21    1.17
   5  -6   5    0.61    0.28
  -5   6  -5    0.04    0.32
  -5   6  -5   -0.07    0.38
   5  -6   5    0.32    0.27
  -5   6  -5    0.43    0.41
   5  -5  -6    6.69    0.97
  -5   5   6    5.74    1.08
   5  -5  -6    6.06    0.79
   5  -5  -5   15.44    1.71
   5  -5  -5   15.94    1.74
   5  -5  -5   17.11    1.61
   5  -5  -4    6.84    1.19
  -5   5   4    5.40    1.27
   5  -5  -4    5.04    1.03
  -5   5   4    8.58    1.62
   5  -5  -4    6.46    1.06
  -5   5   4    6.37    1.39
  -5   5   3   16.67    2.54
   5  -5  -3   17.93    2.10
  -5   5   3   20.51    2.73
   5  -5  -3   21.79    2.12
  -5   5   3   20.76    3.02
  -5   5   2   76.34    6.14
   5  -5  -2   67.77    4.63
  -5   5   2   83.65    6.02
   5  -5  -2   82.32    4.65
  -5   5   2   80.37    6.69
  -5   5   1  220.88   11.84
   5  -5  -1  202.56    9.30
   5  -5  -1  225.71    9.21
  -5   5   1  210.30   12.34
  -5   5   1  187.42    9.83
  -5   5   0  103.21    6.94
  -5   5   0  115.42    8.11
   5  -5   0  107.42    5.93
   5  -5   0  112.18    5.78
  -5   5   0  103.68    8.26
  -5   5   0   96.11    6.64
   5  -5   1    9.10    1.38
  -5   5  -1    7.22    1.85
  -5   5  -1    5.55    1.55
  -5   5  -1    8.16    1.91
   5  -5   1    4.61    0.99
  -5   5  -1    9.77    2.44
  -5   5  -1    5.60    1.45
   5  -5   2   40.13    2.90
  -5   5  -2   33.87    4.08
  -5   5  -2   35.65    4.12
  -5   5  -2   32.01    3.97
   5  -5   2   30.75    2.69
  -5   5  -2   35.95    4.60
  -5   5  -2   33.15    3.76
   5  -5   3    8.34    1.26
  -5   5  -3    6.66    1.77
  -5   5  -3    9.49    2.05
  -5   5  -3    6.60    1.70
  -5   5  -3    7.20    1.66
   5  -5   4    0.93    0.38
  -5   5  -4    2.31    1.14
   5  -5   4    1.69    0.52
  -5   5  -4    2.23    1.12
  -5   5  -4    1.10    0.60
   5  -5   4    1.38    0.55
  -5   5  -4    1.31    0.87
   5  -5   5    4.75    0.84
  -5   5  -5    7.15    1.77
   5  -5   5    5.09    0.82
  -5   5  -5    6.76    1.60
   5  -5   5    5.58    1.19
  -5   5  -5    4.77    1.28
   5  -5   6   22.46    1.91
  -5   5  -6   25.92    3.01
  -5   5  -6   24.34    2.95
   5  -5   6   22.79    1.73
   5  -5   6   23.19    2.29
  -5   5  -6   24.46    2.49
  -5   5  -7   25.88    2.54
   5  -5   7   20.99    1.98
   5  -4  -7   15.30    1.60
   5  -4  -7   15.56    1.55
  -5   4   7   16.49    1.92
   5  -4  -7   14.80    1.28
   5  -4  -6   44.39    3.17
   5  -4  -6   44.77    3.11
  -5   4   6   49.41    3.96
  -5   4   6   35.88    2.48
   5  -4  -6   45.03    2.85
  -5   4   6   42.96    3.82
  -5   4   5    9.63    1.93
   5  -4  -5    8.39    1.38
   5  -4  -5    9.10    1.42
  -5   4   5   11.28    2.07
  -5   4   5    8.67    1.15
   5  -4  -5    8.81    1.30
   5  -4  -4   22.39    2.38
  -5   4   4   21.36    2.88
   5  -4  -4   22.65    2.44
  -5   4   4   21.37    3.01
  -5   4   4   23.77    3.21
   5  -4  -4   26.71    2.41
  -5   4   4   20.60    3.09
   5  -4  -3   34.49    3.07
  -5   4   3   36.35    4.11
   5  -4  -3   35.73    3.23
  -5   4   3   39.06    4.21
  -5   4   3   33.89    4.30
   5  -4  -3   41.48    3.17
  -5   4   2   42.00    4.75
   5  -4  -2   43.76    3.66
  -5   4   2   45.84    4.74
  -5   4   2   39.69    4.96
   5  -4  -2   52.46    3.70
  -5   4   1    1.06    0.60
   5  -4  -1    1.88    0.85
  -5   4   1    0.90    0.83
   5  -4  -1    1.16    0.68
  -5   4   1    1.98    1.22
  -5   4   1    0.66    0.60
  -5   4   0   18.27    2.95
  -5   4   0   17.08    3.21
   5  -4   0   16.07    2.02
   5  -4   0   15.45    1.97
  -5   4   0   13.60    2.79
  -5   4   0   12.49    2.36
  -5   4  -1   20.09    3.20
  -5   4  -1   19.08    3.08
  -5   4  -1   22.45    3.58
   5  -4   1   25.32    2.47
  -5   4  -1   23.88    3.91
  -5   4  -1   20.91    3.14
  -5   4  -2   53.05    5.53
  -5   4  -2   52.82    5.38
  -5   4  -2   56.17    5.75
   5  -4   2   55.38    3.75
  -5   4  -2   50.52    5.90
  -5   4  -2   43.92    4.78
   5  -4   3    1.77    0.74
  -5   4  -3    2.02    0.95
  -5   4  -3    1.05    0.65
  -5   4  -3    0.59    0.65
   5  -4   4   20.24    2.10
  -5   4  -4   24.43    3.66
  -5   4  -4   20.89    3.40
  -5   4  -4   21.56    3.17
  -5   4  -4   20.00    3.07
   5  -4   5   21.54    2.08
  -5   4  -5   23.43    3.52
  -5   4  -5   22.19    3.31
   5  -4   5   21.40    2.58
  -5   4  -5   21.07    2.88
   5  -4   6   10.44    1.36
  -5   4  -6   14.10    2.49
   5  -4   6   13.02    1.45
  -5   4  -6   12.72    2.34
   5  -4   6   11.71    1.76
  -5   4  -6   10.17    1.80
  -5   4  -6   11.46    1.89
   5  -4   7   13.67    1.46
  -5   4  -7   16.71    2.42
   5  -4   7   16.31    1.56
   5  -4   7   15.30    1.90
   5  -4   7   14.39    1.96
  -5   4  -7   15.28    1.88
  -5   4  -7   16.00    2.08
  -5   4  -8   22.58    2.38
   5  -4   8   19.26    1.60
   5  -4   8   20.47    2.00
   5  -4   8   18.69    1.99
  -5   4  -8   22.89    2.29
   5  -3  -8    7.22    1.07
   5  -3  -8    8.79    1.13
  -5   3   8    7.93    0.97
  -5   3   8    6.90    1.10
   5  -3  -7   93.75    4.90
   5  -3  -7   90.83    4.79
  -5   3   7   91.92    5.58
  -5   3   7   76.72    4.30
  -5   3   7   82.67    5.39
   5  -3  -6   60.35    4.07
   5  -3  -6   62.63    4.08
  -5   3   6   55.98    4.67
  -5   3   6   47.89    3.46
  -5   3   6   61.94    4.98
   5  -3  -5   22.79    2.43
   5  -3  -5   23.94    2.55
  -5   3   5   24.27    3.21
  -5   3   5   18.74    2.07
  -5   3   5   19.14    2.89
  -5   3   4   16.09    2.74
   5  -3  -4   20.31    2.37
  -5   3   4   18.70    2.77
   5  -3  -4   18.12    2.28
  -5   3   4   16.02    1.96
  -5   3   4   16.63    2.78
   5  -3  -3   32.41    3.05
  -5   3   3   30.75    3.92
   5  -3  -3   32.55    3.16
  -5   3   3   33.31    4.09
  -5   3   3   29.84    2.81
  -5   3   3   28.81    4.01
   5  -3  -3   27.00    3.58
  -5   3   3   32.73    4.20
  -5   3   2   47.92    5.28
   5  -3  -2   53.96    4.10
  -5   3   2   53.60    5.34
  -5   3   2   47.61    5.57
   5  -3  -2   46.68    4.81
  -5   3   1  223.33   13.02
   5  -3  -1  244.76   10.53
  -5   3   1  231.37   12.69
  -5   3   1  234.18   13.92
  -5   3   1  197.97   11.26
   5  -3  -1  237.70   12.36
  -5   3   0   29.61    4.24
  -5   3   0   27.97    3.86
   5  -3   0   33.42    3.11
   5  -3   0   26.05    3.68
  -5   3   0   25.41    4.17
  -5   3   0   21.65    3.27
   5  -3   0   30.99    3.83
  -5   3  -1   26.63    3.87
  -5   3  -1   22.94    3.42
  -5   3  -1   25.03    3.87
   5  -3   1   28.15    2.62
   5  -3   1   22.25    3.30
  -5   3  -1   18.61    3.56
  -5   3  -1   17.25    3.02
   5  -3   1   22.97    3.24
  -5   3  -2  107.86    8.56
  -5   3  -2  111.30    8.47
  -5   3  -2  114.26    8.82
   5  -3   2  128.27    6.16
  -5   3  -2  102.29    8.99
   5  -3   2  112.87    7.77
  -5   3  -2   94.61    7.56
   5  -3   2  109.26    7.57
  -5   3  -3   69.09    6.70
  -5   3  -3   68.40    6.51
  -5   3  -3   74.25    6.75
   5  -3   3   69.03    5.73
  -5   3  -3   60.21    5.83
   5  -3   3   66.55    5.63
   5  -3   4  150.87    6.93
  -5   3  -4  155.82   10.50
  -5   3  -4  130.57    9.56
  -5   3  -4  140.52    9.48
   5  -3   4  149.26    8.83
  -5   3  -4  129.37    8.90
   5  -3   4  135.72    8.60
   5  -3   5   17.51    1.87
  -5   3  -5   18.82    3.28
  -5   3  -5   14.75    2.90
   5  -3   5   16.50    2.38
  -5   3  -5   14.01    2.55
  -5   3  -5   15.59    2.51
   5  -3   6   22.88    2.14
  -5   3  -6   25.48    3.66
  -5   3  -6   23.83    3.49
   5  -3   6   31.20    2.48
   5  -3   6   24.10    2.76
  -5   3  -6   22.92    3.04
  -5   3  -6   22.38    3.09
   5  -3   7   81.81    4.38
  -5   3  -7   89.63    6.65
   5  -3   7   88.37    4.51
   5  -3   7   79.50    5.20
  -5   3  -7   81.11    5.46
  -5   3  -7   88.41    6.30
  -5   3  -8   25.37    2.92
   5  -3   8   20.86    1.84
   5  -3   8   20.27    2.21
   5  -3   8   19.21    2.43
  -5   3  -8   22.56    2.14
  -5   3  -8   22.99    2.76
   5  -3   8   19.50    1.62
   5  -3   9    7.48    0.98
   5  -3   9    6.42    1.01
   5  -3   9    6.47    1.17
  -5   3  -9    8.29    1.40
   5  -2  -9    1.25    0.40
   5  -2  -9    1.09    0.36
  -5   2   9    1.36    0.37
   5  -2  -8   78.63    4.22
  -5   2   8   78.79    4.51
   5  -2  -7   70.99    4.36
  -5   2   7   64.68    4.75
  -5   2   7   54.91    3.83
  -5   2   7   65.94    4.77
  -5   2   7   67.14    4.84
   5  -2  -6  121.11    6.56
  -5   2   6  129.69    7.69
  -5   2   6  112.14    6.19
  -5   2   6  113.86    7.13
  -5   2   6  103.90    7.12
  -5   2   5    3.59    1.21
   5  -2  -5    5.61    1.12
  -5   2   5    7.37    1.87
  -5   2   5    4.91    1.09
  -5   2   5    5.96    1.63
   5  -2  -4   31.87    3.18
  -5   2   4   33.28    4.02
  -5   2   4   25.80    2.77
  -5   2   4   25.50    3.67
  -5   2   3   11.88    2.58
   5  -2  -3   15.24    2.04
  -5   2   3   13.18    2.58
  -5   2   3   16.48    2.91
  -5   2   3   12.90    1.88
  -5   2   2   30.70    4.10
  -5   2   2   24.18    3.62
  -5   2   2   22.49    2.54
  -5   2   2   29.80    4.27
   5  -2  -2   26.67    3.78
  -5   2   2   26.60    3.91
  -5   2   1   16.24    3.12
   5  -2  -1   19.25    2.33
  -5   2   1   20.03    3.24
  -5   2   1   15.10    1.98
  -5   2   1   14.40    3.11
  -5   2   1   18.84    2.80
   5  -2  -1   17.13    3.12
   5  -2  -1   18.26    3.00
  -5   2   0  131.88    9.45
  -5   2   0  131.27    8.96
  -5   2   0  121.03    9.67
  -5   2   0  109.10    7.94
   5  -2   0  124.10    8.83
   5  -2   0  128.31    8.62
  -5   2  -1  206.70   12.20
  -5   2  -1  195.75   11.60
  -5   2  -1  203.13   12.48
  -5   2  -1  186.48   12.66
   5  -2   1  201.25   11.68
  -5   2  -1  177.73   11.00
   5  -2   1  207.33   11.61
   5  -2   1  214.19   11.45
  -5   2  -2   91.89    7.86
  -5   2  -2   92.55    7.66
  -5   2  -2   95.83    8.05
  -5   2  -2   84.38    8.12
   5  -2   2  104.48    7.58
  -5   2  -2   83.99    7.17
   5  -2   2  107.80    7.52
   5  -2   2   96.99    7.07
  -5   2  -3   82.07    7.41
  -5   2  -3   61.34    6.33
  -5   2  -3   72.93    6.83
   5  -2   3   75.59    6.22
  -5   2  -3   66.93    6.22
   5  -2   3   70.63    5.89
   5  -2   4   15.47    1.82
  -5   2  -4   13.68    3.03
  -5   2  -4   15.63    3.11
  -5   2  -4   13.37    2.80
   5  -2   4   15.27    2.64
  -5   2  -4   12.34    2.58
   5  -2   4   13.69    2.49
   5  -2   5  223.03    8.90
  -5   2  -5  212.83   12.85
  -5   2  -5  203.98   12.45
   5  -2   5  216.14   11.36
  -5   2  -5  186.81   11.27
  -5   2  -5  197.55   11.37
   5  -2   5  188.99   10.76
   5  -2   6  208.53    8.63
  -5   2  -6  227.70   12.89
  -5   2  -6  205.94   12.24
   5  -2   6  201.64   10.02
  -5   2  -6  205.83   11.12
  -5   2  -6  207.12   11.65
  -5   2  -7   61.72    5.83
   5  -2   7   51.25    4.28
  -5   2  -7   61.88    4.98
  -5   2  -7   62.43    5.61
  -5   2  -8   13.66    2.38
   5  -2   8   15.29    1.63
   5  -2   8   13.36    1.86
   5  -2   8   13.54    2.22
  -5   2  -8   16.04    1.98
  -5   2  -8   15.17    2.46
   5  -2   9    3.36    0.66
   5  -2   9    2.92    0.76
   5  -2   9    3.57    1.05
  -5   2  -9    4.14    1.11
   5  -2   9    4.68    0.80
   5  -2  10   15.99    1.82
  -5   2 -10   19.57    2.02
   5  -1  -9    1.58    0.52
  -5   1   9    2.37    0.59
   5  -1  -8  117.63    5.65
  -5   1   8  108.24    6.07
  -5   1   7   26.56    2.90
  -5   1   7   21.12    2.31
  -5   1   7   27.98    3.08
  -5   1   6    7.81    1.68
  -5   1   6   10.21    1.86
  -5   1   6    6.09    1.14
  -5   1   6    5.14    1.40
  -5   1   5   64.08    5.42
  -5   1   5   47.59    3.98
  -5   1   5   59.96    5.17
  -5   1   5   50.51    4.93
  -5   1   4    3.18    1.32
  -5   1   4    4.38    1.37
  -5   1   4    2.44    0.91
   5  -1  -4    4.64    1.75
  -5   1   4    3.65    1.37
  -5   1   3    7.96    1.99
  -5   1   3    6.91    1.82
  -5   1   3    7.87    1.50
   5  -1  -3   10.34    2.57
   5  -1  -3    6.92    2.01
  -5   1   2   27.71    3.79
  -5   1   2   21.18    3.40
  -5   1   2   16.27    2.26
   5  -1  -2   19.28    3.42
  -5   1   2   28.21    3.02
   5  -1  -2   19.79    3.39
  -5   1   1    1.32    0.65
  -5   1   1    1.97    1.09
  -5   1   1    0.88    0.82
  -5   1   1   -1.31    0.85
  -5   1   1    0.92    1.10
   5  -1  -1    0.46    0.30
   5  -1  -1    1.09    0.88
  -5   1   1    1.30    0.54
  -5   1   0 1093.00   38.67
  -5   1   0 1066.92   37.51
  -5   1   0  854.14   32.97
  -5   1   0 1068.58   39.31
  -5   1   0  983.58   36.45
   5  -1   0  947.95   37.37
   5  -1   0  912.29   37.31
   5  -1   0  999.72   36.89
  -5   1   0 1279.83   35.87
  -5   1  -1  799.77   30.24
  -5   1  -1  806.43   30.73
  -5   1  -1  649.00   24.95
  -5   1  -1  754.09   31.18
  -5   1  -1  694.99   28.50
   5  -1   1  700.18   28.79
   5  -1   1  668.94   28.89
   5  -1   1  741.53   28.51
  -5   1  -2  121.72    9.10
  -5   1  -2  111.26    8.45
  -5   1  -2  112.77    8.84
   5  -1   2  111.71    8.16
  -5   1  -2  104.76    8.03
   5  -1   2  111.58    7.93
   5  -1   2  109.12    8.06
   5  -1   2  119.26    7.93
  -5   1  -3   25.84    4.20
  -5   1  -3   24.17    3.79
  -5   1  -3   22.91    3.80
   5  -1   3   24.84    3.52
  -5   1  -3   22.07    3.45
   5  -1   3   27.63    3.56
   5  -1   3   25.16    3.37
   5  -1   3   25.55    3.61
  -5   1  -4   -0.03    1.11
  -5   1  -4    0.83    0.97
   5  -1   4    0.58    0.80
  -5   1  -4    0.27    0.34
   5  -1   4   -0.20    0.48
  -5   1  -4    0.54    0.39
   5  -1   4   -0.31    0.39
   5  -1   4   -0.20    0.35
   5  -1   5    4.02    0.92
  -5   1  -5    2.58    1.13
  -5   1  -5    3.65    1.58
   5  -1   5    4.01    1.40
  -5   1  -5    2.44    1.16
  -5   1  -5    3.39    1.30
   5  -1   5    1.50    0.92
   5  -1   5    4.45    1.82
  -5   1  -6   29.22    4.19
   5  -1   6   24.96    2.86
   5  -1   6   28.99    3.59
  -5   1  -6   27.79    3.59
  -5   1  -6   27.43    3.89
   5  -1   6   22.66    3.17
  -5   1  -7   52.66    5.50
   5  -1   7   63.52    3.87
   5  -1   7   48.07    4.05
  -5   1  -7   53.30    4.72
  -5   1  -7   55.20    5.47
   5  -1   8  190.75    7.98
   5  -1   8  171.56    8.60
   5  -1   8  169.57    9.70
  -5   1  -8  203.55    9.23
  -5   1  -8  204.21   10.94
   5  -1   9   75.96    4.15
   5  -1   9   73.07    5.31
  -5   1  -9   92.66    6.22
   5  -1   9   87.64    4.46
   5  -1  10    7.02    0.93
   5  -1  10    8.17    1.44
  -5   1 -10    8.28    1.47
   5  -1  10    7.63    1.00
   5   0  -9    1.28    0.43
   5   0  -9    1.60    0.51
  -5   0   9    0.92    0.38
  -5   0   9    0.52    0.44
   5   0  -8   65.01    4.22
  -5   0   8   55.97    3.79
  -5   0   8   69.91    4.70
   5   0  -7   30.90    3.00
  -5   0   7   31.30    2.87
  -5   0   7   30.76    3.32
  -5   0   6   50.04    4.37
  -5   0   6   40.65    3.56
  -5   0   6   44.79    4.34
  -5   0   5  233.29   11.62
  -5   0   5  190.75    9.83
  -5   0   5  202.41   11.00
  -5   0   5  239.92   10.38
  -5   0   4   26.27    3.49
  -5   0   4   19.90    2.48
   5   0  -4   25.06    4.08
  -5   0   4   23.96    3.27
  -5   0   4   28.53    3.02
  -5   0   4   26.33    3.47
  -5   0   3   77.68    6.29
  -5   0   3   55.83    4.51
   5   0  -3   74.93    6.87
  -5   0   3   69.45    5.07
   5   0  -3   64.35    6.58
  -5   0   3   66.37    5.86
  -5   0   2   14.01    2.64
  -5   0   2   10.98    2.31
  -5   0   2   11.74    1.84
  -5   0   2   10.16    1.86
   5   0  -2   10.32    2.51
   5   0  -1  126.43    9.15
   5   0  -1  100.22    8.62
  -5   0   1  138.25    9.15
  -5   0   1  131.45    8.69
  -5   0   1  100.74    6.26
  -5   0   1  129.45    8.09
   5   0  -1   96.71    8.09
  -5   0   1  123.95    7.25
   5   0  -1  117.10    8.77
   5   0   0  113.03    8.94
  -5   0   0  143.24    9.49
  -5   0   0  101.24    6.16
  -5   0   0  123.54    8.22
   5   0   0  110.08    8.39
   5   0   0  103.40    8.27
  -5   0   0  137.58    7.57
   5   0   0  130.83    8.98
  -5   0  -1  209.03   11.84
   5   0   1  174.55   11.35
  -5   0  -1  200.29   11.85
  -5   0  -1  160.28    8.10
  -5   0  -1  186.60   10.76
   5   0   1  165.13   10.50
   5   0   1  155.15   10.43
   5   0   1  182.46   10.49
  -5   0  -1  218.83   10.01
  -5   0  -2   29.73    4.19
  -5   0  -2   30.57    4.10
   5   0   2   23.26    3.65
  -5   0  -2   25.75    3.92
  -5   0  -2   33.90    3.07
   5   0   2   23.21    3.49
  -5   0  -2   31.07    3.99
   5   0   2   26.03    3.63
   5   0   2   27.87    3.78
   5   0   2   26.76    3.53
  -5   0  -2   35.61    3.61
  -5   0  -3  126.65    9.55
  -5   0  -3  116.81    8.99
  -5   0  -3  132.56    9.59
  -5   0  -3  119.51    6.06
   5   0   3  122.34    8.35
  -5   0  -3  116.12    8.52
   5   0   3  123.66    8.13
   5   0   3  118.64    7.83
   5   0   3  121.82    8.29
  -5   0  -4   35.24    4.79
  -5   0  -4   34.43    4.70
  -5   0  -4   39.71    2.99
   5   0   4   34.21    4.05
  -5   0  -4   30.34    4.05
  -5   0  -4   26.07    3.79
   5   0   4   40.69    4.25
   5   0   4   32.22    3.70
   5   0   4   38.78    4.24
   5   0   4   30.57    4.52
  -5   0  -5   16.76    3.44
   5   0   5   18.14    2.87
  -5   0  -5   15.97    2.78
  -5   0  -5   18.25    3.18
   5   0   5   14.65    2.47
   5   0   5   13.15    2.88
  -5   0  -6   26.14    4.11
   5   0   6   26.35    2.86
   5   0   6   26.91    3.51
  -5   0  -6   24.46    3.42
   5   0   6   21.19    3.05
  -5   0  -6   20.85    3.42
  -5   0  -7   41.49    4.94
   5   0   7   44.21    3.16
  -5   0  -7   42.10    4.20
  -5   0  -7   41.03    4.80
   5   0   8  293.92   11.26
  -5   0  -8  326.02   13.01
  -5   0  -8  317.76   15.00
   5   0   9  107.69    5.21
   5   0   9   97.72    6.58
   5   0   9  115.41    5.68
   5   0  10  121.55    5.41
   5   0  10  121.82    6.84
   5   0  10  137.95    5.96
   5   1 -10   25.56    1.77
   5   1  -9   10.40    1.41
  -5  -1   9   11.26    1.29
  -5  -1   9   13.30    1.63
   5   1  -8   17.95    2.19
  -5  -1   8   16.60    1.87
  -5  -1   8   18.45    2.22
   5   1  -7    5.94    1.32
  -5  -1   7    5.36    1.16
  -5  -1   7    6.82    1.51
  -5  -1   6   85.21    5.48
  -5  -1   6  100.86    6.65
  -5  -1   6   99.22    5.96
  -5  -1   5  154.81    8.34
   5   1  -5  185.38   11.84
  -5  -1   5  176.73    9.66
  -5  -1   5  176.23    9.00
  -5  -1   4    4.21    1.46
  -5  -1   4    1.81    0.74
   5   1  -4    1.01    1.02
  -5  -1   4    2.30    1.10
  -5  -1   4    1.99    0.80
  -5  -1   3   42.17    4.80
  -5  -1   3   41.28    4.41
  -5  -1   3   30.23    3.14
   5   1  -3   35.92    4.65
  -5  -1   3   35.17    3.60
   5   1  -3   32.73    4.60
   5   1  -2  110.89    9.03
  -5  -1   2  141.73    9.18
  -5  -1   2  149.76    9.00
  -5  -1   2  109.58    6.66
  -5  -1   2  124.20    7.45
   5   1  -2  122.17    9.17
   5   1  -1   19.37    3.42
  -5  -1   1   14.99    2.69
  -5  -1   1   12.72    3.28
  -5  -1   1   17.45    3.01
  -5  -1   1   11.81    1.81
  -5  -1   1   19.49    2.87
   5   1  -1   11.30    2.42
  -5  -1   1   19.51    2.64
   5   1  -1   12.49    2.72
   5   1   0   30.81    4.18
   5   1   0   25.73    3.95
  -5  -1   0   25.69    4.70
  -5  -1   0   34.37    4.33
  -5  -1   0   25.53    2.74
  -5  -1   0   32.52    3.84
   5   1   0   24.31    3.60
   5   1   0   21.67    3.36
  -5  -1   0   30.39    3.30
   5   1   0   27.70    3.96
  -5  -1  -1   16.88    2.98
   5   1   1   12.53    2.63
  -5  -1  -1   13.19    3.28
  -5  -1  -1   17.96    3.21
  -5  -1  -1   13.14    1.81
  -5  -1  -1   15.55    2.61
   5   1   1   10.47    2.23
   5   1   1   12.81    2.45
   5   1   1   13.65    2.46
  -5  -1  -1   14.26    2.23
   5   1   1   13.13    2.56
  -5  -1  -2  373.85   17.39
   5   1   2  313.85   15.91
  -5  -1  -2  305.97   18.31
  -5  -1  -2  284.57   12.32
   5   1   2  304.54   15.07
  -5  -1  -2  343.40   15.98
   5   1   2  304.79   14.99
   5   1   2  318.30   15.35
   5   1   2  311.58   14.57
  -5  -1  -2  362.63   14.17
  -5  -1  -3  797.44   30.30
   5   1   3  718.22   28.16
  -5  -1  -3  669.58   23.94
   5   1   3  681.22   27.00
  -5  -1  -3  716.33   28.11
  -5  -1  -3  694.73   27.61
   5   1   3  716.67   26.86
   5   1   3  743.09   27.51
   5   1   3  679.60   26.30
   5   1   3  532.71   27.72
  -5  -1  -3  844.00   26.35
  -5  -1  -4  106.19    8.83
  -5  -1  -4  116.05    5.86
   5   1   4  106.58    7.43
  -5  -1  -4   95.62    7.64
  -5  -1  -4   92.69    7.66
   5   1   4  122.03    7.61
   5   1   4  107.95    7.03
   5   1   4  115.15    7.72
   5   1   4   98.53    8.45
  -5  -1  -5   36.69    4.98
  -5  -1  -5   49.21    3.35
   5   1   5   32.69    3.86
  -5  -1  -5   33.79    4.17
  -5  -1  -5   30.66    4.18
   5   1   5   32.81    3.61
   5   1   5   36.80    3.91
   5   1   5   35.84    4.80
  -5  -1  -6   97.95    8.36
   5   1   6  100.04    7.13
  -5  -1  -6  104.01    7.48
  -5  -1  -6   97.89    7.95
   5   1   6  111.19    8.34
   5   1   7   34.67    2.69
   5   1   7   27.98    3.49
  -5  -1  -7   28.69    3.47
  -5  -1  -7   30.28    4.15
   5   1   8   15.91    1.70
  -5  -1  -8   15.87    2.21
   5   1   8   14.88    2.47
  -5  -1  -8   16.15    2.22
  -5  -1  -8   17.05    2.90
   5   1   9   53.60    3.21
  -5  -1  -9   58.87    4.23
   5   1   9   46.13    4.25
  -5  -1  -9   59.22    5.12
   5   1   9   54.83    3.68
  -5  -1 -10   34.04    2.76
   5   1  10   27.53    2.88
   5   1  10   32.41    2.48
   5   2  -9   13.24    1.66
  -5  -2   9   15.99    1.48
  -5  -2   8   62.41    3.92
  -5  -2   8   68.52    4.46
  -5  -2   8   66.19    4.10
  -5  -2   7  165.57    7.84
  -5  -2   7  167.37    8.53
  -5  -2   7  163.13    8.12
  -5  -2   6  148.26    7.75
  -5  -2   6  163.66    8.70
  -5  -2   6  158.07    8.28
   5   2  -5  171.72   11.36
  -5  -2   5  158.93    8.35
   5   2  -5  167.14   11.43
  -5  -2   5  178.50    9.47
  -5  -2   5  160.57    8.81
  -5  -2   4  104.87    7.91
  -5  -2   4   83.46    5.59
   5   2  -4   92.19    8.01
  -5  -2   4   93.00    6.48
  -5  -2   4   88.33    6.13
  -5  -2   3    7.70    2.07
  -5  -2   3    5.91    1.39
   5   2  -3   10.22    2.56
  -5  -2   3    9.34    1.87
   5   2  -3    7.19    2.06
   5   2  -2    7.24    2.13
  -5  -2   2    8.37    2.06
  -5  -2   2    8.66    1.59
   5   2  -2    9.21    2.32
  -5  -2   2    6.96    1.53
   5   2  -2    5.18    1.65
   5   2  -1    3.70    1.25
  -5  -2   1   11.08    2.34
  -5  -2   1    6.03    2.31
  -5  -2   1    8.31    1.56
  -5  -2   1    7.61    1.80
  -5  -2   1    6.63    1.54
   5   2  -1    6.91    1.99
   5   2   0   74.76    6.74
   5   2   0   62.03    6.22
  -5  -2   0   85.10    8.58
  -5  -2   0   79.42    5.04
  -5  -2   0  101.10    6.98
   5   2   0   60.68    5.85
   5   2   0   65.78    6.02
  -5  -2   0   81.33    5.59
   5   2   0   75.90    6.59
   5   2   1    5.89    1.95
   5   2   1    6.15    1.74
  -5  -2  -1    3.39    1.43
  -5  -2  -1    5.25    1.08
  -5  -2  -1    7.43    1.83
   5   2   1    6.63    1.74
   5   2   1    5.27    1.41
   5   2   1    6.13    1.44
  -5  -2  -1    7.43    1.56
   5   2   1    5.95    1.67
   5   2   2   25.56    3.62
  -5  -2  -2   21.78    4.07
  -5  -2  -2   29.92    2.77
   5   2   2   25.45    3.36
  -5  -2  -2   32.67    4.11
   5   2   2   32.28    3.74
   5   2   2   29.49    3.69
   5   2   2   29.39    3.41
   5   2   2   24.34    3.92
  -5  -2  -2   31.43    3.26
   5   2   3  672.43   26.32
  -5  -2  -3  647.24   22.64
   5   2   3  646.15   25.10
  -5  -2  -3  702.83   26.67
  -5  -2  -3  646.10   26.26
   5   2   3  707.35   25.10
   5   2   3  665.03   24.41
   5   2   3  651.49   25.23
   5   2   3  523.79   26.19
   5   2   3  579.56   26.52
  -5  -2  -3  695.00   24.03
  -5  -2  -4 1298.63   39.42
   5   2   4 1190.05   41.79
  -5  -2  -4 1239.41   43.51
  -5  -2  -4 1120.86   43.32
   5   2   4 1108.27   43.71
   5   2   5  104.27    7.16
  -5  -2  -5   99.16    7.64
  -5  -2  -5   96.42    8.06
   5   2   5   98.67    8.16
  -5  -2  -6   13.24    2.25
   5   2   6   10.55    2.04
  -5  -2  -6   13.63    2.55
  -5  -2  -6   11.66    2.57
   5   2   6   15.43    2.89
  -5  -2  -7  130.76    7.92
  -5  -2  -7  153.44    8.61
  -5  -2  -7  144.04    9.63
  -5  -2  -8   26.79    3.10
   5   2   8   17.46    2.62
  -5  -2  -8   22.11    2.59
  -5  -2  -8   24.62    3.63
  -5  -2  -8   20.38    2.59
  -5  -2  -9   90.17    5.76
  -5  -2  -9  104.48    6.98
   5   2   9   95.53    5.15
  -5  -2  -9   94.23    5.71
   5   2  10   23.58    2.30
  -5  -2 -10   23.59    2.50
   5   2  10   16.88    2.01
   5   2  10   18.75    1.84
   5   2  11   38.72    2.56
   5   3  -9    9.31    1.36
  -5  -3   9    9.51    1.20
  -5  -3   8   69.11    3.82
  -5  -3   8   58.86    4.00
  -5  -3   7  157.31    7.23
  -5  -3   7  141.54    7.58
  -5  -3   6  132.44    6.91
  -5  -3   6  122.74    7.29
   5   3  -5   94.32    8.13
  -5  -3   5  114.28    8.23
  -5  -3   5  103.32    5.99
   5   3  -5   85.94    7.88
  -5  -3   5   91.94    6.23
   5   3  -4   17.72    3.37
  -5  -3   4   22.83    3.44
  -5  -3   4   19.87    2.38
   5   3  -4   16.78    3.17
  -5  -3   4   18.73    2.68
  -5  -3   3   33.87    4.40
  -5  -3   3   34.32    3.27
   5   3  -3   34.22    4.52
  -5  -3   3   35.58    3.69
   5   3  -2    2.54    1.47
  -5  -3   2    2.89    1.28
  -5  -3   2    3.55    0.95
   5   3  -2    2.00    1.10
  -5  -3   2    2.25    0.91
   5   3  -2    1.02    0.63
   5   3  -1   79.60    7.19
   5   3  -1   58.03    5.99
  -5  -3   1  102.68    7.46
  -5  -3   1   86.67    5.49
  -5  -3   1  107.70    6.93
  -5  -3   1   95.09    6.19
   5   3  -1   74.94    6.70
   5   3   0   52.79    5.45
   5   3   0   40.95    4.84
  -5  -3   0   52.70    6.69
  -5  -3   0   62.75    5.56
  -5  -3   0   57.53    4.13
  -5  -3   0   74.83    5.88
   5   3   0   47.32    4.80
   5   3   0   47.82    4.83
  -5  -3   0   52.23    4.41
   5   3   0   54.67    5.40
   5   3   1   53.32    5.43
  -5  -3  -1   54.02    6.76
  -5  -3  -1   59.89    4.17
   5   3   1   54.85    4.96
   5   3   1   53.38    5.07
   5   3   1   42.96    5.16
   5   3   1   54.99    4.72
  -5  -3  -1   59.49    4.57
   5   3   2   11.76    2.37
  -5  -3  -2   11.69    1.72
   5   3   2   11.79    2.14
  -5  -3  -2   11.54    2.35
   5   3   2   10.67    2.03
   5   3   2    8.49    2.20
   5   3   2   11.79    2.60
  -5  -3  -2   10.69    1.82
  -5  -3  -3    8.67    1.56
   5   3   3    7.21    1.69
  -5  -3  -3    4.50    1.31
   5   3   3    7.94    1.78
   5   3   3    2.73    1.13
   5   3   3    6.67    1.93
  -5  -3  -3    7.05    1.44
  -5  -3  -4   23.79    2.42
  -5  -3  -4   20.16    3.12
  -5  -3  -4   18.23    3.20
   5   3   4   21.67    3.51
  -5  -3  -5  186.94   11.01
  -5  -3  -5  223.46   12.30
  -5  -3  -5  194.00   12.59
   5   3   5  213.60   12.63
  -5  -3  -6    9.25    1.83
  -5  -3  -6   11.28    2.21
  -5  -3  -6    9.54    2.27
  -5  -3  -7   23.71    3.07
  -5  -3  -7   26.99    3.19
  -5  -3  -7   26.51    3.85
  -5  -3  -7   16.67    2.49
  -5  -3  -8   50.23    4.49
  -5  -3  -8   63.58    4.49
  -5  -3  -8   53.53    4.51
  -5  -3  -9   25.90    2.88
   5   3   9   26.96    2.40
   5   3  10   80.43    4.65
  -5  -3 -10   90.38    5.08
   5   3  10   78.00    4.20
  -5  -4   9   53.76    3.20
  -5  -4   8   46.85    3.41
  -5  -4   7   25.85    3.32
  -5  -4   7   19.69    2.40
  -5  -4   6   31.90    3.92
  -5  -4   6   30.97    2.69
  -5  -4   6   24.46    2.81
   5   4  -5   15.84    3.07
  -5  -4   5   24.84    3.61
  -5  -4   5   20.76    2.29
   5   4  -5   15.93    3.79
  -5  -4   5   19.13    2.55
   5   4  -4   11.80    2.73
  -5  -4   4   14.88    2.76
  -5  -4   4   14.42    2.70
  -5  -4   4   13.06    1.92
   5   4  -4    8.84    2.49
   5   4  -4    8.09    2.80
  -5  -4   4   10.99    2.03
   5   4  -3   19.28    3.37
  -5  -4   3   20.91    3.20
  -5  -4   3   15.53    2.95
  -5  -4   3   17.71    2.31
   5   4  -3   17.56    3.21
   5   4  -3   12.07    3.19
  -5  -4   3   13.13    2.23
  -5  -4   2    7.17    1.96
  -5  -4   2    8.69    2.01
  -5  -4   2    8.05    1.49
   5   4  -2    4.86    1.55
  -5  -4   2    5.70    1.37
   5   4  -2    6.57    2.00
   5   4  -1   34.22    4.50
  -5  -4   1   49.98    4.90
  -5  -4   1   42.77    4.75
  -5  -4   1   46.87    3.74
  -5  -4   1   42.51    4.00
   5   4  -1   37.83    4.45
   5   4   0  121.06    8.55
  -5  -4   0  153.34    9.14
  -5  -4   0  136.19    8.86
  -5  -4   0  133.63    7.03
  -5  -4   0  163.51    9.16
   5   4   0  118.62    8.62
  -5  -4   0  121.26    7.35
  -5  -4  -1   96.77    7.08
  -5  -4  -1   96.99    5.67
  -5  -4  -1  110.67    7.56
   5   4   1   90.15    7.41
   5   4   1   93.28    7.21
  -5  -4  -1   92.13    5.98
  -5  -4  -2   27.69    3.55
  -5  -4  -2   29.36    2.75
  -5  -4  -2   27.46    3.64
   5   4   2   24.61    3.67
   5   4   2   24.86    3.62
  -5  -4  -2   27.23    2.93
  -5  -4  -3   14.84    2.51
  -5  -4  -3   19.41    2.28
  -5  -4  -3   12.47    2.38
  -5  -4  -3   13.90    2.03
  -5  -4  -4   67.47    5.78
  -5  -4  -4   65.67    6.03
   5   4   4   71.48    6.47
  -5  -4  -5   10.83    2.13
  -5  -4  -5   10.05    2.04
  -5  -4  -5   12.09    2.39
   5   4   5   10.08    2.36
  -5  -4  -6   39.60    4.09
  -5  -4  -6   39.09    4.17
  -5  -4  -6   47.75    4.60
  -5  -4  -7   41.35    3.97
  -5  -4  -7   35.14    3.89
  -5  -4  -7   49.46    4.21
  -5  -4  -8   16.61    2.29
  -5  -4  -8   13.90    2.23
   5   4   8   14.59    1.77
   5   4   9   15.85    1.99
  -5  -4  -9   16.89    2.26
   5   4   9   14.15    1.59
   5   4  10   15.61    1.69
   5   4  10   17.70    1.78
   5   4  10   12.90    1.33
  -5  -5   9   15.84    1.50
   5   5  -8    6.26    0.93
   5   5  -8    7.56    1.09
  -5  -5   8    8.29    1.28
  -5  -5   7    7.80    1.68
  -5  -5   7    9.57    1.52
  -5  -5   6   46.78    4.60
  -5  -5   6   36.81    3.39
  -5  -5   5   74.67    6.27
   5   5  -5   57.71    7.24
  -5  -5   5   60.79    4.68
   5   5  -4   87.08    7.84
  -5  -5   4  145.04    8.96
  -5  -5   4  126.66    8.63
  -5  -5   4  124.96    6.23
   5   5  -4   85.21    9.30
  -5  -5   4  105.87    6.74
   5   5  -3   15.41    2.78
  -5  -5   3   28.55    3.85
  -5  -5   3   25.41    3.68
  -5  -5   3   24.32    2.48
   5   5  -3   14.10    2.80
   5   5  -3   13.88    3.37
  -5  -5   3   19.62    2.62
   5   5  -2   16.01    2.95
  -5  -5   2   24.48    3.49
  -5  -5   2   20.63    3.28
  -5  -5   2   24.25    2.49
  -5  -5   2   19.37    2.65
  -5  -5   1   21.10    3.26
  -5  -5   1   12.93    2.52
  -5  -5   1   19.14    2.25
  -5  -5   1   25.73    3.14
  -5  -5   1   13.31    2.16
   5   5   0   47.90    5.08
  -5  -5   0   54.74    5.35
  -5  -5   0   48.91    4.99
  -5  -5   0   50.68    3.81
  -5  -5   0   63.70    5.33
  -5  -5   0   46.21    4.05
   5   5   1   15.91    2.91
  -5  -5  -1   20.77    3.09
  -5  -5  -1   29.86    3.83
   5   5   1   32.03    4.50
  -5  -5  -1   26.71    2.63
  -5  -5  -1   37.01    4.02
  -5  -5  -1   22.55    2.62
   5   5   1   15.63    2.85
  -5  -5  -2   44.93    4.83
  -5  -5  -2   54.81    3.88
  -5  -5  -2   58.82    5.33
  -5  -5  -2   44.58    3.71
   5   5   2   41.04    5.09
  -5  -5  -3   54.95    5.37
  -5  -5  -3   84.07    4.94
  -5  -5  -3   71.05    5.97
  -5  -5  -3   66.21    4.46
   5   5   3   48.05    5.73
  -5  -5  -4   33.52    4.02
  -5  -5  -4   42.00    4.53
  -5  -5  -5    2.95    1.23
  -5  -5  -5    2.59    0.93
  -5  -5  -6   43.32    4.37
  -5  -5  -6   61.46    5.02
   5   5   7   70.35    4.74
  -5  -5  -7   70.39    5.45
  -5  -5  -7   83.84    5.49
   5   5   8   52.49    3.82
  -5  -5  -8   52.95    4.31
  -5  -5  -8   64.36    4.09
   5   5   9   25.04    2.26
  -5  -5  -9   28.13    2.64
   5   5  10   47.45    2.99
   5   6  -8   24.03    1.89
  -5  -6   8   33.92    2.43
  -5  -6   7   16.57    2.31
  -5  -6   7   13.87    1.73
  -5  -6   6    4.75    1.36
  -5  -6   6    3.80    0.97
  -5  -6   5  294.11   14.33
  -5  -6   5  292.86   12.45
  -5  -6   4    2.17    0.90
  -5  -6   4    3.40    1.32
   5   6  -4    1.08    0.96
  -5  -6   4    4.06    1.10
   5   6  -3    3.66    1.38
  -5  -6   3    3.03    1.08
  -5  -6   3    5.00    1.62
   5   6  -3    5.35    2.34
  -5  -6   3    2.95    1.03
  -5  -6   2   59.57    5.69
  -5  -6   2   45.63    5.02
  -5  -6   2   61.25    3.89
  -5  -6   2   45.19    4.08
   5   6  -1    1.80    1.13
  -5  -6   1    1.46    0.41
  -5  -6   1    2.89    1.29
  -5  -6   1    2.93    0.87
  -5  -6   1    1.53    0.58
  -5  -6   0   29.42    3.94
  -5  -6   0   28.99    3.79
  -5  -6   0   40.59    3.17
  -5  -6   0   47.17    4.44
   5   6   0   25.54    5.63
  -5  -6   0   25.01    2.84
  -5  -6  -1   55.83    5.45
  -5  -6  -1   48.16    4.88
  -5  -6  -1   72.94    4.40
  -5  -6  -1   69.81    5.64
   5   6   1   67.99    6.74
  -5  -6  -1   50.18    3.99
  -5  -6  -2   93.43    7.68
   5   6   2  109.61    9.06
  -5  -6  -3  797.49   33.92
   5   6   3  950.63   37.70
  -5  -6  -4    2.30    0.98
   5   6   4    2.69    1.19
  -5  -6  -4    3.33    1.25
  -5  -6  -5  323.79   16.01
  -5  -6  -5  431.68   16.80
  -5  -6  -6    8.18    1.84
  -5  -6  -6   11.52    2.02
  -5  -6  -7   49.10    4.33
  -5  -6  -7   55.33    4.12
  -5  -6  -8   72.48    4.89
   5   6   8   68.53    4.30
  -5  -6  -9   17.18    1.91
   5   6   9   13.09    1.56
  -5  -7   8   16.39    1.44
  -5  -7   7   22.64    2.35
  -5  -7   7   21.95    2.00
  -5  -7   6   79.49    5.42
  -5  -7   6   69.55    4.27
  -5  -7   5   62.74    5.15
  -5  -7   5   55.89    3.95
  -5  -7   4    1.65    0.60
  -5  -7   4    1.31    0.97
  -5  -7   4    1.36    0.63
  -5  -7   3  115.04    7.91
  -5  -7   3  105.84    6.30
  -5  -7   2  276.78   13.97
  -5  -7   2  263.67   11.80
  -5  -7   1   39.26    4.38
  -5  -7   1   43.22    3.56
   5   7  -1   41.74    5.08
  -5  -7   0   26.69    3.70
  -5  -7   0   26.74    3.53
  -5  -7   0   40.25    3.94
   5   7   0   29.62    6.08
  -5  -7  -1   22.77    3.40
  -5  -7  -1   18.01    2.86
  -5  -7  -1   34.26    3.70
   5   7   1   21.54    5.27
   5   7   1   21.72    3.65
  -5  -7  -2  141.42    9.10
  -5  -7  -2  122.02    7.97
   5   7   2  148.45   10.67
  -5  -7  -3   63.99    5.82
   5   7   3   74.71    7.40
  -5  -7  -4  333.02   16.42
  -5  -7  -4  447.25   17.09
  -5  -7  -5   88.42    6.61
  -5  -7  -5  114.81    6.81
  -5  -7  -6   18.09    2.59
   5   7   6   17.82    1.98
  -5  -7  -6   23.39    2.62
  -5  -7  -7   15.52    2.18
   5   7   7   13.04    1.59
   5   7   8   47.30    3.03
   5   7   8   49.22    3.68
  -5  -8   6   18.80    2.10
  -5  -8   6   17.63    1.62
  -5  -8   5    1.79    0.77
  -5  -8   5    2.49    0.64
  -5  -8   4    4.90    1.23
  -5  -8   4    4.74    0.92
  -5  -8   3  209.92   11.21
  -5  -8   3  224.60    9.47
  -5  -8   2   85.98    6.44
  -5  -8   2   71.77    5.80
  -5  -8   1   81.88    6.34
  -5  -8   1   70.46    5.71
  -5  -8   0  205.03   10.90
  -5  -8   0  166.53    9.67
  -5  -8  -1   91.16    6.69
  -5  -8  -1   72.68    5.64
  -5  -8  -2   14.31    2.20
  -5  -8  -2   18.40    2.80
  -5  -8  -3   21.49    2.92
  -5  -8  -4   69.00    5.48
  -5  -8  -5   79.30    5.65
  -5  -8  -6   44.99    3.82
  -5  -8  -7   40.25    3.25
  -5  -9   5    9.47    1.38
  -5  -9   4   -0.08    0.35
  -5  -9   3    7.45    1.51
  -5  -9   3   10.65    1.85
  -5  -9   2   49.85    4.30
  -5  -9   2   44.84    3.96
  -5  -9   1  179.70    9.10
  -5  -9   1  137.12    8.03
  -5  -9   0  152.38    8.37
  -5  -9   0  123.99    7.39
  -5  -9  -1  166.77    8.77
  -5  -9  -1  134.79    7.62
  -5  -9  -2    6.55    1.27
  -5  -9  -2    8.57    1.62
  -5  -9  -3    6.24    1.40
  -5  -9  -4   19.00    2.39
  -5  -9  -5   14.32    1.92
   5   9   5   11.00    1.39
  -5  -9  -6   61.45    3.93
  -5 -10   3   13.94    1.63
  -5 -10   2    7.91    1.33
  -5 -10   1   37.63    3.10
  -5 -10   1   28.48    2.71
  -5 -10   0   16.84    2.07
  -5 -10   0   13.94    1.78
  -5 -10  -1    3.79    0.86
  -5 -10  -1    5.61    1.18
   5  10   2   11.97    1.36
  -5 -10  -2   21.74    2.31
  -5 -10  -3   18.06    2.02
  -5 -10  -4   23.88    2.14
   6  -5   1  111.65    4.64
   6  -5   1  124.41    5.20
   6  -4  -3   19.35    1.54
  -6   4   2   64.18    4.27
   6  -4  -2   54.10    3.06
  -6   4   1   51.65    4.07
   6  -4  -1   42.39    2.65
   6  -4   0   36.53    2.27
  -6   4   0   33.77    3.38
   6  -4   0   26.14    2.02
  -6   4   0   27.75    2.43
   6  -4   1   49.24    2.80
  -6   4  -1   53.02    4.40
   6  -4   2   36.64    2.35
  -6   4  -2   32.75    2.96
  -6   4  -2   35.52    3.12
   6  -4   3   46.91    2.73
  -6   4  -3   51.81    3.91
   6  -4   3   49.03    3.26
  -6   4  -3   50.72    3.77
   6  -4   4   75.71    3.65
  -6   4  -4   94.86    5.39
   6  -4   4   75.69    3.51
   6  -4   4   82.82    4.30
  -6   4  -4   97.01    5.13
  -6   4  -5    3.09    0.77
   6  -3  -5   42.09    2.36
   6  -3  -4    3.92    0.68
   6  -3  -4    5.11    0.82
  -6   3   3   32.60    2.88
   6  -3  -3   28.89    2.14
  -6   3   2   50.18    4.21
   6  -3  -2   50.37    3.10
  -6   3   1   10.17    1.98
   6  -3  -1    8.99    1.19
  -6   3   0   10.83    2.14
   6  -3   0   10.19    1.26
  -6   3   0    9.77    1.69
  -6   3  -1   22.00    3.07
  -6   3  -1   17.39    2.31
   6  -3   2   24.82    2.02
  -6   3  -2   21.20    2.70
  -6   3  -2   22.43    2.70
   6  -3   3   97.21    4.60
  -6   3  -3   94.34    6.38
  -6   3  -3   88.73    5.95
   6  -3   4   18.02    1.60
  -6   3  -4   22.59    2.88
   6  -3   4   21.18    2.14
  -6   3  -4   22.86    2.61
   6  -3   5   38.60    2.44
  -6   3  -5   58.00    4.47
   6  -3   5   56.30    2.86
   6  -3   5   42.03    3.02
  -6   3  -5   53.72    3.91
   6  -3   6    4.05    0.64
   6  -3   6    2.80    0.64
  -6   3  -6    3.19    0.73
  -6   2   6   76.69    3.51
   6  -2  -6   82.22    3.49
   6  -2  -5   14.32    1.36
   6  -2  -5   12.90    1.32
  -6   2   5   17.03    1.54
   6  -2  -4    3.65    0.73
  -6   2   4    4.61    0.85
   6  -2  -3   28.36    2.23
  -6   2   3   32.40    2.52
  -6   2   2   52.07    4.53
  -6   2   2   48.14    3.21
  -6   2   1   49.14    4.81
   6  -2  -1   57.28    3.48
  -6   2   0   13.52    2.46
   6  -2   0   13.13    1.52
  -6   2   0   12.53    2.04
  -6   2  -1    0.73    0.61
  -6   2  -1    1.01    0.43
  -6   2  -2   59.04    5.14
  -6   2  -2   56.09    4.83
   6  -2   3   46.00    2.93
  -6   2  -3   39.96    4.28
  -6   2  -3   40.24    4.04
   6  -2   4    0.85    0.39
  -6   2  -4   -0.64    0.54
   6  -2   4    0.97    0.46
  -6   2  -4   -0.34    0.58
   6  -2   5    5.55    0.81
  -6   2  -5    8.21    1.87
   6  -2   5    4.50    0.92
  -6   2  -5    7.35    1.51
   6  -2   6    7.09    0.98
   6  -2   6    5.87    1.01
  -6   2  -6    7.24    1.32
   6  -2   7    0.29    0.20
   6  -2   7   -0.19    0.38
  -6   2  -7   -0.06    0.25
  -6   1   7   29.29    1.93
   6  -1  -6    4.10    0.74
   6  -1  -6    4.48    0.78
  -6   1   6    5.43    0.87
   6  -1  -5    0.72    0.35
   6  -1  -5    0.96    0.34
  -6   1   5    0.29    0.22
   6  -1  -4    0.71    0.36
  -6   1   4    0.74    0.44
  -6   1   3    5.75    1.16
  -6   1   2   63.26    5.21
  -6   1   2   53.32    3.80
  -6   1   1   15.53    2.71
  -6   1   1   11.29    1.55
  -6   1   0    1.67    1.13
  -6   1   0    0.07    0.48
  -6   1   0    1.73    0.76
  -6   1  -1    4.23    0.91
  -6   1  -1    3.05    1.09
  -6   1  -2   68.60    5.86
  -6   1  -2   66.46    5.48
  -6   1  -3    4.36    1.49
  -6   1  -3    5.30    1.55
   6  -1   4   12.35    1.39
  -6   1  -4   15.85    2.78
  -6   1  -4   16.29    2.52
  -6   1  -5   49.81    4.96
   6  -1   5   43.47    3.28
  -6   1  -5   48.83    4.31
   6  -1   6    4.24    0.84
   6  -1   6    2.09    0.59
  -6   1  -6    4.00    1.16
   6  -1   7   34.73    2.22
   6  -1   7   27.42    2.73
  -6   1  -7   33.67    2.93
   6  -1   8    3.33    0.78
   6  -1   8    3.85    0.63
   6   0  -7    8.37    0.98
  -6   0   7   10.08    1.17
   6   0  -6    2.39    0.64
  -6   0   6    2.45    0.61
  -6   0   5   19.46    2.06
  -6   0   4   43.91    3.47
  -6   0   4   64.61    3.96
  -6   0   3    6.26    1.22
  -6   0   3   10.37    1.69
  -6   0   2   23.32    2.54
  -6   0   2   33.50    3.15
  -6   0   1   11.24    1.70
   6   0  -1    8.70    2.03
  -6   0   0   15.13    1.88
   6   0   0   18.29    2.84
  -6   0   0   18.51    2.68
   6   0   0   16.81    2.62
  -6   0  -1   77.44    4.63
   6   0   1   66.76    5.76
  -6   0  -1   82.07    6.18
   6   0   1   72.14    5.71
  -6   0  -2  259.80   13.70
  -6   0  -2  288.67   10.96
   6   0   2  240.80   12.84
  -6   0  -2  290.89   13.75
  -6   0  -3   22.18    3.52
  -6   0  -3   23.68    3.33
  -6   0  -4   18.65    2.79
  -6   0  -5   36.91    3.88
   6   0   6    5.64    0.93
  -6   0  -6    3.82    1.08
  -6   0  -6    5.08    1.29
   6   0   7    6.59    0.90
   6   0   7    5.94    1.31
  -6   0  -7    9.04    1.50
  -6   0  -7    7.43    1.44
   6   0   8   12.36    1.11
   6   0   8   11.55    1.54
  -6   0  -8   14.13    1.45
  -6  -1   7   21.35    1.78
  -6  -1   6   36.81    2.68
  -6  -1   5   56.39    3.88
  -6  -1   5   73.88    4.31
  -6  -1   4   97.06    5.62
  -6  -1   4  114.31    6.17
  -6  -1   3   59.19    4.24
  -6  -1   3   70.70    4.89
  -6  -1   2    1.50    0.60
  -6  -1   2    2.38    0.96
  -6  -1   1    3.62    0.65
   6   1  -1    5.44    1.37
  -6  -1   1    6.65    1.48
  -6  -1   0   34.79    3.09
   6   1   0   28.65    3.61
  -6  -1   0   47.05    4.40
   6   1   0   31.53    3.67
  -6  -1   0   43.70    3.87
  -6  -1  -1  133.59    6.81
   6   1   1  113.27    7.88
  -6  -1  -1  155.08    8.95
   6   1   1  115.31    7.67
  -6  -1  -1  170.46    8.36
  -6  -1  -2  118.80    5.95
   6   1   2   99.32    7.12
  -6  -1  -2  123.05    8.01
   6   1   2  100.39    6.84
  -6  -1  -3   98.45    5.12
  -6  -1  -3   84.68    6.70
  -6  -1  -4  204.96    8.12
  -6  -1  -4  154.52    9.78
  -6  -1  -5  127.78    7.99
   6   1   6    4.25    0.81
  -6  -1  -6    3.30    1.00
   6   1   7   53.41    2.86
  -6  -1  -7   61.06    4.26
   6   1   8   45.46    3.37
  -6  -1  -8   71.78    3.77
  -6  -2   7   68.41    3.56
  -6  -2   6  115.04    5.62
  -6  -2   6  124.82    5.92
  -6  -2   5   14.57    1.77
  -6  -2   5   13.34    1.79
  -6  -2   4   40.42    3.25
  -6  -2   4   38.05    3.42
  -6  -2   3   20.38    2.35
  -6  -2   3   19.91    2.48
  -6  -2   2   13.92    1.84
  -6  -2   2   16.48    2.38
  -6  -2   1    6.18    1.26
   6   2  -1    2.88    0.97
  -6  -2   1    6.17    1.41
  -6  -2   0    2.04    0.69
   6   2   0    0.71    0.54
  -6  -2   0    3.81    1.16
   6   2   0    2.70    0.88
  -6  -2   0    3.49    1.11
  -6  -2  -1   21.22    2.34
   6   2   1   15.50    2.50
  -6  -2  -1   25.44    3.30
   6   2   1   17.36    2.57
  -6  -2  -1   25.63    2.88
  -6  -2  -2  189.46    8.47
  -6  -2  -2  200.64   10.80
  -6  -2  -3  507.76   17.68
  -6  -2  -3  456.93   20.25
  -6  -2  -4  479.83   16.22
  -6  -2  -4  380.42   18.36
  -6  -2  -5   82.79    6.18
  -6  -2  -6   18.65    2.58
   6   2   7    1.90    0.66
  -6  -2  -7    1.43    0.54
  -6  -2  -8   12.42    1.46
   6   2   8   11.81    1.31
   6   2   9   66.60    3.41
  -6  -3   7   37.88    2.29
  -6  -3   7   37.29    2.52
  -6  -3   6   59.61    3.44
  -6  -3   6   53.89    3.63
  -6  -3   5   74.19    4.30
  -6  -3   5   72.09    4.69
  -6  -3   4    8.34    1.35
  -6  -3   4    6.54    1.35
  -6  -3   3    2.73    0.69
  -6  -3   3    2.14    0.68
  -6  -3   2   28.60    3.65
  -6  -3   2   27.15    2.72
  -6  -3   2   28.00    3.14
  -6  -3   1   69.68    5.71
  -6  -3   1   66.58    4.54
  -6  -3   1   72.73    5.24
  -6  -3   0    8.08    1.42
  -6  -3   0    5.36    1.47
  -6  -3   0    6.84    1.44
  -6  -3  -1   21.52    2.38
  -6  -3  -1   20.03    2.98
  -6  -3  -1   22.92    2.73
  -6  -3  -2   92.65    5.24
  -6  -3  -2   75.83    6.28
  -6  -3  -2   88.05    5.69
  -6  -3  -3   57.06    3.84
  -6  -3  -3   39.25    4.40
  -6  -3  -4  510.54   16.12
  -6  -3  -4  319.67   17.22
  -6  -3  -5    0.94    0.43
  -6  -3  -6   42.63    3.88
  -6  -3  -7   75.18    4.87
  -6  -3  -8   38.87    2.59
   6   3   8   26.61    2.01
  -6  -4   7   60.04    3.35
  -6  -4   6   61.77    3.22
  -6  -4   6   54.14    3.62
  -6  -4   5    8.54    1.17
  -6  -4   5    6.86    1.23
  -6  -4   4   19.04    2.81
  -6  -4   4   16.73    1.88
  -6  -4   4   14.90    2.07
  -6  -4   3   22.84    3.15
  -6  -4   3   23.71    2.35
  -6  -4   3   20.50    2.51
  -6  -4   2  114.22    7.74
  -6  -4   2  121.44    6.32
  -6  -4   2  117.48    6.88
  -6  -4   1  140.20    8.68
  -6  -4   1  156.91    7.47
  -6  -4   1  137.86    7.82
  -6  -4   0  125.99    6.61
  -6  -4   0  111.43    6.92
  -6  -4  -1   63.79    4.26
  -6  -4  -1   70.50    5.51
  -6  -4  -1   58.19    4.52
  -6  -4  -2    7.55    1.39
  -6  -4  -2    7.64    1.77
  -6  -4  -2    6.54    1.37
  -6  -4  -3   40.67    3.22
  -6  -4  -3   30.39    3.68
  -6  -4  -4   18.28    2.06
  -6  -4  -4   11.21    2.10
  -6  -4  -5  108.89    6.98
  -6  -4  -6   30.47    3.09
  -6  -4  -7   61.41    3.96
   6   4   7   41.51    2.62
   6   4   8   64.76    3.50
  -6  -4  -8  100.95    4.31
  -6  -5   7  180.06    7.07
  -6  -5   6   52.89    3.35
  -6  -5   5   22.19    2.72
  -6  -5   5   15.54    1.85
  -6  -5   4   -0.27    0.43
  -6  -5   4    0.47    0.43
  -6  -5   4    0.49    0.31
  -6  -5   3   46.67    4.49
  -6  -5   3   54.32    3.51
  -6  -5   3   45.28    3.78
  -6  -5   2    9.92    2.00
  -6  -5   2   13.41    2.25
  -6  -5   2   14.47    1.68
  -6  -5   2   11.07    1.79
  -6  -5   1   57.12    4.81
  -6  -5   1   47.11    4.59
  -6  -5   1   48.32    4.01
  -6  -5   0   12.38    2.15
  -6  -5   0   14.54    2.34
  -6  -5   0   16.03    1.91
  -6  -5   0   17.23    2.45
  -6  -5   0   13.06    1.98
  -6  -5  -1   31.48    3.53
  -6  -5  -1   40.60    3.20
  -6  -5  -1   43.86    4.10
  -6  -5  -1   32.39    3.12
  -6  -5  -2   43.28    4.22
  -6  -5  -2   48.06    3.82
  -6  -5  -3   96.17    4.89
  -6  -5  -3   76.10    5.73
  -6  -5  -4   32.12    3.47
  -6  -5  -5   26.69    2.98
  -6  -5  -6   10.95    1.74
  -6  -5  -7   17.40    1.91
  -6  -6   6   24.47    1.96
  -6  -6   5   44.09    3.68
  -6  -6   5   39.66    2.88
  -6  -6   4    1.08    0.65
  -6  -6   4    1.09    0.46
  -6  -6   3   11.66    2.12
  -6  -6   3   11.66    1.67
  -6  -6   2   25.61    3.12
  -6  -6   2   23.52    2.98
  -6  -6   2   32.03    2.42
  -6  -6   2   22.41    2.45
  -6  -6   1   10.92    2.03
  -6  -6   1   10.83    2.02
  -6  -6   1   15.37    1.72
  -6  -6   1   10.07    1.60
  -6  -6   0    3.07    1.05
  -6  -6   0    2.92    0.94
  -6  -6   0    5.62    1.01
  -6  -6   0    4.10    1.15
  -6  -6   0    5.61    1.20
  -6  -6  -1   23.71    3.04
  -6  -6  -1   33.12    3.35
  -6  -6  -1   26.15    2.52
  -6  -6  -2   29.32    3.36
  -6  -6  -2   34.18    3.55
  -6  -6  -2   33.91    2.78
  -6  -6  -3   74.81    5.55
  -6  -6  -3  113.70    6.60
  -6  -6  -4   29.00    3.09
  -6  -6  -4   42.73    3.75
  -6  -6  -5   39.55    3.39
  -6  -6  -5   54.88    4.06
  -6  -6  -6    7.55    1.20
  -6  -6  -6   10.15    1.50
   6   6   7   36.01    2.21
  -6  -7   5   79.13    4.60
  -6  -7   5   72.63    3.72
  -6  -7   4   13.75    1.89
  -6  -7   4   13.65    1.51
  -6  -7   3   35.57    3.36
  -6  -7   3   38.35    2.79
  -6  -7   2    7.23    1.53
  -6  -7   2    8.27    1.65
  -6  -7   2    8.81    1.28
  -6  -7   1   55.72    4.49
  -6  -7   1   47.83    3.26
  -6  -7   0   -0.77    0.58
  -6  -7   0   -0.07    0.36
  -6  -7   0    0.05    0.17
  -6  -7  -1   23.12    2.90
  -6  -7  -1   35.22    3.19
  -6  -7  -2   94.05    6.30
  -6  -7  -2  125.06    6.69
  -6  -7  -3    7.59    1.51
  -6  -7  -3    9.41    1.66
  -6  -7  -4  114.39    6.67
  -6  -7  -4  153.05    7.28
  -6  -7  -5   58.07    4.11
  -6  -7  -5   81.75    4.64
  -6  -7  -6    3.89    0.81
  -6  -8   4   10.11    1.38
  -6  -8   3  127.51    6.42
  -6  -8   2  182.97    8.25
  -6  -8   2  145.08    7.44
  -6  -8   1   54.67    4.05
  -6  -8   1   42.02    3.38
  -6  -8   0  251.91   10.46
  -6  -8   0  195.11    9.08
  -6  -8  -1   54.15    4.16
  -6  -8  -2   22.70    2.49
  -6  -8  -3   97.21    5.60
  -6  -8  -4    5.46    1.07
  -6  -9   1  333.06   12.57
  -6  -9   0   94.79    5.10
  -6  -9  -1    4.60    0.97
  -6  -9  -2   11.07    1.47
   7  -1   1    6.48    0.70
  -7   1  -2   10.18    1.31
  -7   1  -3    0.67    0.24
  -7   0   3    0.37    0.24
  -7   0   2   65.52    3.25
  -7   0   1  200.01    7.52
  -7   0   0   79.21    3.69
  -7   0  -1   25.39    1.66
  -7   0  -1   13.91    1.69
  -7   0  -2    3.52    0.91
  -7   0  -3   42.90    3.19
  -7   0  -4    8.34    1.23
  -7   0  -5   13.73    1.49
  -7  -1   4   11.75    1.15
  -7  -1   3   36.29    2.33
  -7  -1   2    1.89    0.55
  -7  -1   1   13.96    1.45
  -7  -1   0   49.39    2.95
  -7  -1  -1   74.72    3.66
  -7  -1  -1   60.46    4.05
  -7  -1  -2  164.66    5.90
  -7  -1  -2  102.52    6.25
  -7  -1  -3   58.04    3.97
  -7  -1  -4  198.36    8.69
  -7  -1  -5   19.95    1.92
  -7  -2   4    0.81    0.35
  -7  -2   3   23.96    1.88
  -7  -2   2   19.45    1.73
  -7  -2   1   10.07    1.28
  -7  -2   0   11.22    1.35
  -7  -2  -1   65.76    3.58
  -7  -2  -1   56.48    3.89
  -7  -2  -2   17.33    1.60
  -7  -2  -2   11.00    1.67
  -7  -2  -3  209.39    9.30
  -7  -2  -4   96.02    5.34
  -7  -2  -5   22.22    2.13
  -7  -3   4    4.31    0.67
  -7  -3   4    4.87    0.80
  -7  -3   3    9.36    1.07
  -7  -3   3   10.46    1.31
  -7  -3   2    4.78    0.85
  -7  -3   2    6.13    1.08
  -7  -3   1    7.78    1.12
  -7  -3   1    9.57    1.44
  -7  -3   0   33.32    2.43
  -7  -3  -1   61.54    3.46
  -7  -3  -1   52.60    3.71
  -7  -3  -2   49.53    2.93
  -7  -3  -2   38.10    3.25
  -7  -3  -3   17.96    2.07
  -7  -3  -4   46.19    3.40
  -7  -3  -5  142.09    6.57
  -7  -4   4   16.22    1.45
  -7  -4   3   92.15    3.98
  -7  -4   3   78.16    4.19
  -7  -4   2   54.74    2.98
  -7  -4   2   48.64    3.23
  -7  -4   1  161.83    6.52
  -7  -4   1  144.25    6.78
  -7  -4   0   28.57    2.15
  -7  -4   0   26.45    2.37
  -7  -4  -1    7.92    1.10
  -7  -4  -1    3.30    0.83
  -7  -4  -2   18.02    1.76
  -7  -4  -2   14.99    1.85
  -7  -4  -3   91.93    5.20
  -7  -4  -4   92.56    5.07
  -7  -4  -5   22.76    2.05
  -7  -5   3    4.97    0.81
  -7  -5   2   68.53    3.10
  -7  -5   2   48.22    3.12
  -7  -5   1   27.84    1.95
  -7  -5   1   24.56    2.09
  -7  -5   0    4.97    0.85
  -7  -5  -1   29.57    2.02
  -7  -5  -1   16.77    1.79
  -7  -5  -2   13.31    1.62
  -7  -5  -3    0.22    0.33
  -7  -5  -4   30.18    2.42
  -7  -6  -3    3.00    0.68
   0   0   0    0.00    0.00


_computing_structure_solution     'SHELXT 2014/5 (Sheldrick, 2014)'
_computing_structure_solution     'SHELXT 2014/5 (Sheldrick, 2014)'
;
_shelx_hkl_checksum              92422
_shelx_shelxl_version_number     2014/7
_olex2_submission_special_instructions 'No special instructions were received'
loop_
_space_group_symop_operation_xyz
'x, y, z'
loop_
_atom_site_label
_atom_site_type_symbol
_atom_site_fract_x
_atom_site_fract_y
_atom_site_fract_z
_atom_site_U_iso_or_equiv
_atom_site_adp_type
_atom_site_occupancy
_atom_site_site_symmetry_order
_atom_site_calc_flag
_atom_site_refinement_flags_posn
O001 O 0.1829(3) 0.28459(19) 0.99326(16) 0.0310(4) Uani 1 1 d .
N002 N 0.6404(3) 0.53125(19) 0.35762(16) 0.0174(4) Uani 1 1 d .
O003 O 0.0565(4) 0.7815(2) 0.00695(17) 0.0367(5) Uani 1 1 d .
N004 N 0.8050(3) 0.14598(19) 0.61939(17) 0.0175(4) Uani 1 1 d .
N005 N 0.4089(3) 0.3243(2) 0.83872(16) 0.0203(4) Uani 1 1 d .
N006 N 0.2889(4) 0.7687(2) 0.15784(17) 0.0233(5) Uani 1 1 d .
C007 C 0.5916(4) 0.5559(2) 0.14223(19) 0.0202(5) Uani 1 1 d .
H007 H 0.6503 0.5970 0.0716 0.024 Uiso 1 1 calc R
C008 C 0.3374(4) 0.6145(2) 0.1541(2) 0.0230(5) Uani 1 1 d .
H00A H 0.2652 0.5837 0.0878 0.028 Uiso 1 1 calc R
H00B H 0.2763 0.5788 0.2256 0.028 Uiso 1 1 calc R
C009 C 0.8308(4) 0.2187(2) 0.51419(19) 0.0174(5) Uani 1 1 d .
H009 H 0.9768 0.2094 0.4816 0.021 Uiso 1 1 calc R
C00A C 0.2105(4) 0.3524(2) 0.9042(2) 0.0219(5) Uani 1 1 d .
C00B C 0.7046(4) 0.6003(2) 0.24845(19) 0.0192(5) Uani 1 1 d .
H00C H 0.8687 0.5703 0.2346 0.023 Uiso 1 1 calc R
C00C C 0.7120(4) 0.3753(2) 0.34471(19) 0.0179(5) Uani 1 1 d .
H00D H 0.8756 0.3514 0.3270 0.022 Uiso 1 1 calc R
C00D C 0.4034(4) 0.2707(2) 0.62965(19) 0.0174(5) Uani 1 1 d .
H00E H 0.2510 0.2543 0.6454 0.021 Uiso 1 1 calc R
C00E C 0.4400(4) 0.3814(2) 0.71983(19) 0.0183(5) Uani 1 1 d .
H00F H 0.5973 0.3912 0.7096 0.022 Uiso 1 1 calc R
C00F C 0.1394(4) 0.8406(3) 0.0830(2) 0.0243(5) Uani 1 1 d .
C00G C 0.6632(4) 0.3002(2) 0.45679(19) 0.0179(4) Uani 1 1 d .
C00H C 0.5952(4) 0.3248(2) 0.24193(19) 0.0196(5) Uani 1 1 d .
H00G H 0.6456 0.2236 0.2335 0.023 Uiso 1 1 calc R
H00H H 0.4329 0.3458 0.2585 0.023 Uiso 1 1 calc R
C00I C 0.6481(4) 0.3960(2) 0.12761(19) 0.0221(5) Uani 1 1 d .
H00I H 0.5608 0.3697 0.0655 0.027 Uiso 1 1 calc R
H00J H 0.8073 0.3643 0.1050 0.027 Uiso 1 1 calc R
C00J C 0.2867(5) 0.5279(2) 0.7086(2) 0.0243(5) Uani 1 1 d .
H00K H 0.3366 0.5933 0.7597 0.029 Uiso 1 1 calc R
H00L H 0.2975 0.5609 0.6281 0.029 Uiso 1 1 calc R
C00K C 0.7508(4) 0.5755(2) 0.4581(2) 0.0218(5) Uani 1 1 d .
H00M H 0.9135 0.5461 0.4453 0.026 Uiso 1 1 calc R
H00N H 0.7075 0.5292 0.5287 0.026 Uiso 1 1 calc R
C00L C 0.5553(4) 0.0790(2) 0.77695(19) 0.0188(5) Uani 1 1 d .
H00O H 0.4050 0.0585 0.7906 0.023 Uiso 1 1 calc R
C00M C 0.0259(4) 0.4764(3) 0.8694(2) 0.0237(5) Uani 1 1 d .
H00P H 0.0293 0.5553 0.9203 0.028 Uiso 1 1 calc R
H00Q H -0.1194 0.4513 0.8838 0.028 Uiso 1 1 calc R
C00N C 0.5731(4) 0.1304(2) 0.64925(19) 0.0176(5) Uani 1 1 d .
H00R H 0.5381 0.0593 0.5968 0.021 Uiso 1 1 calc R
C00O C 0.9750(4) 0.0139(2) 0.6318(2) 0.0202(5) Uani 1 1 d .
H00S H 1.1243 0.0303 0.6116 0.024 Uiso 1 1 calc R
H00T H 0.9457 -0.0559 0.5777 0.024 Uiso 1 1 calc R
C00P C 0.9691(4) -0.0419(2) 0.7569(2) 0.0236(5) Uani 1 1 d .
H00U H 1.0179 0.0223 0.8098 0.028 Uiso 1 1 calc R
H00V H 1.0733 -0.1326 0.7613 0.028 Uiso 1 1 calc R
C00Q C 0.5762(4) 0.1953(2) 0.86290(19) 0.0201(5) Uani 1 1 d .
H00W H 0.5522 0.1650 0.9431 0.024 Uiso 1 1 calc R
H00X H 0.7272 0.2137 0.8548 0.024 Uiso 1 1 calc R
C00R C 0.0423(4) 0.5240(3) 0.7419(2) 0.0255(5) Uani 1 1 d .
H00Y H -0.0089 0.4593 0.6906 0.031 Uiso 1 1 calc R
H H -0.0536 0.6169 0.7326 0.031 Uiso 1 1 calc R
C00S C 0.7312(4) -0.0575(2) 0.7960(2) 0.0225(5) Uani 1 1 d .
H00Z H 0.7282 -0.0826 0.8787 0.027 Uiso 1 1 calc R
HA H 0.6926 -0.1331 0.7516 0.027 Uiso 1 1 calc R
C00T C 0.4209(4) 0.3157(2) 0.50040(19) 0.0201(5) Uani 1 1 d .
H00 H 0.3478 0.2585 0.4522 0.024 Uiso 1 1 calc R
HB H 0.3420 0.4131 0.4925 0.024 Uiso 1 1 calc R
C00U C 0.6453(4) 0.7624(2) 0.2582(2) 0.0228(5) Uani 1 1 d .
H0AA H 0.7171 0.7984 0.1889 0.027 Uiso 1 1 calc R
C00V C 0.6879(5) 0.7340(3) 0.4764(2) 0.0264(5) Uani 1 1 d .
H1AA H 0.7662 0.7592 0.5427 0.032 Uiso 1 1 calc R
HC H 0.5265 0.7634 0.4941 0.032 Uiso 1 1 calc R
C00W C 0.3909(5) 0.8278(3) 0.2557(2) 0.0251(5) Uani 1 1 d .
H2AA H 0.3177 0.8059 0.3302 0.030 Uiso 1 1 calc R
C00X C 0.7522(5) 0.8089(3) 0.3660(2) 0.0264(5) Uani 1 1 d .
H3AA H 0.9155 0.7878 0.3537 0.032 Uiso 1 1 calc R
HD H 0.7015 0.9099 0.3764 0.032 Uiso 1 1 calc R
C00Y C 0.1199(6) 1.0562(3) 0.2117(3) 0.0375(7) Uani 1 1 d .
H4AA H 0.1034 1.1575 0.2074 0.045 Uiso 1 1 calc R
HE H 0.0116 1.0357 0.2711 0.045 Uiso 1 1 calc R
C00Z C 0.0752(5) 1.0000(3) 0.0938(2) 0.0319(6) Uani 1 1 d .
H5AA H 0.1588 1.0404 0.0328 0.038 Uiso 1 1 calc R
HF H -0.0844 1.0311 0.0797 0.038 Uiso 1 1 calc R
C010 C 0.3548(5) 0.9885(3) 0.2443(3) 0.0345(6) Uani 1 1 d .
H01A H 0.3854 1.0273 0.3186 0.041 Uiso 1 1 calc R
H01B H 0.4616 1.0107 0.1848 0.041 Uiso 1 1 calc R
loop_
_atom_site_aniso_label
_atom_site_aniso_U_11
_atom_site_aniso_U_22
_atom_site_aniso_U_33
_atom_site_aniso_U_23
_atom_site_aniso_U_13
_atom_site_aniso_U_12
O001 0.0271(10) 0.0326(10) 0.0297(9) 0.0044(7) 0.0071(7) -0.0005(8)
N002 0.0186(10) 0.0176(9) 0.0169(8) -0.0038(7) -0.0027(7) -0.0050(7)
O003 0.0463(13) 0.0253(9) 0.0374(10) -0.0013(8) -0.0218(9) -0.0008(9)
N004 0.0139(10) 0.0161(9) 0.0214(9) -0.0019(7) -0.0019(7) -0.0002(7)
N005 0.0205(11) 0.0184(9) 0.0206(9) -0.0033(7) -0.0022(7) -0.0007(8)
N006 0.0245(12) 0.0180(9) 0.0264(10) -0.0044(7) -0.0082(8) -0.0006(8)
C007 0.0217(12) 0.0203(11) 0.0172(10) -0.0020(8) -0.0010(9) -0.0016(9)
C008 0.0238(13) 0.0174(11) 0.0268(11) -0.0050(8) -0.0071(9) -0.0008(9)
C009 0.0136(11) 0.0184(10) 0.0204(10) -0.0050(8) 0.0007(8) -0.0038(8)
C00A 0.0223(13) 0.0211(11) 0.0222(11) -0.0056(8) -0.0010(9) -0.0046(9)
C00B 0.0156(11) 0.0219(11) 0.0205(10) -0.0012(8) -0.0006(8) -0.0049(9)
C00C 0.0128(11) 0.0205(11) 0.0196(10) -0.0037(8) -0.0012(8) -0.0014(9)
C00D 0.0116(11) 0.0186(10) 0.0217(10) -0.0023(8) -0.0009(8) -0.0022(9)
C00E 0.0164(11) 0.0177(10) 0.0205(10) -0.0026(8) 0.0000(8) -0.0029(9)
C00F 0.0234(13) 0.0220(11) 0.0268(12) 0.0016(9) -0.0050(10) -0.0028(10)
C00G 0.0160(11) 0.0185(10) 0.0188(10) -0.0048(8) -0.0009(8) -0.0030(8)
C00H 0.0214(12) 0.0165(10) 0.0202(10) -0.0062(8) -0.0033(9) -0.0020(9)
C00I 0.0239(13) 0.0225(11) 0.0175(10) -0.0056(8) -0.0008(8) 0.0007(9)
C00J 0.0282(14) 0.0161(10) 0.0263(11) -0.0016(8) 0.0007(9) -0.0003(10)
C00K 0.0229(13) 0.0238(11) 0.0206(10) -0.0018(8) -0.0072(9) -0.0076(10)
C00L 0.0172(12) 0.0165(10) 0.0224(11) -0.0025(8) -0.0015(9) -0.0028(9)
C00M 0.0188(13) 0.0234(12) 0.0277(12) -0.0061(9) 0.0003(9) -0.0016(10)
C00N 0.0166(12) 0.0161(10) 0.0197(10) -0.0029(7) -0.0027(8) -0.0022(8)
C00O 0.0169(12) 0.0175(10) 0.0251(11) -0.0047(8) -0.0017(9) -0.0009(9)
C00P 0.0209(13) 0.0194(11) 0.0285(12) 0.0006(9) -0.0039(10) 0.0007(9)
C00Q 0.0209(12) 0.0192(11) 0.0193(10) -0.0025(8) -0.0032(8) -0.0020(9)
C00R 0.0225(13) 0.0224(11) 0.0277(12) -0.0021(9) -0.0015(10) 0.0036(10)
C00S 0.0254(13) 0.0167(11) 0.0246(11) 0.0003(8) -0.0030(9) -0.0022(9)
C00T 0.0174(12) 0.0227(11) 0.0195(10) -0.0024(8) -0.0027(8) -0.0025(9)
C00U 0.0267(13) 0.0217(11) 0.0219(11) 0.0006(8) -0.0034(9) -0.0094(10)
C00V 0.0347(15) 0.0232(12) 0.0240(11) -0.0048(9) -0.0082(10) -0.0105(10)
C00W 0.0283(14) 0.0213(12) 0.0254(11) -0.0060(9) -0.0056(10) -0.0035(10)
C00X 0.0279(14) 0.0247(12) 0.0306(12) -0.0004(10) -0.0087(10) -0.0129(11)
C00Y 0.0504(19) 0.0201(12) 0.0384(15) -0.0029(10) -0.0046(13) 0.0006(12)
C00Z 0.0375(16) 0.0201(12) 0.0357(13) 0.0012(10) -0.0085(11) 0.0003(11)
C010 0.0432(17) 0.0234(13) 0.0368(14) -0.0070(10) -0.0083(12) -0.0053(12)
loop_
_atom_type_symbol
_atom_type_description
_atom_type_scat_dispersion_real
_atom_type_scat_dispersion_imag
_atom_type_scat_source
C C 0.0181 0.0091 'International Tables Vol C Tables 4.2.6.8 and 6.1.1.4'
H H 0.0000 0.0000 'International Tables Vol C Tables 4.2.6.8 and 6.1.1.4'
N N 0.0311 0.0180 'International Tables Vol C Tables 4.2.6.8 and 6.1.1.4'
O O 0.0492 0.0322 'International Tables Vol C Tables 4.2.6.8 and 6.1.1.4'
loop_
_geom_angle_atom_site_label_1
_geom_angle_atom_site_label_2
_geom_angle_atom_site_label_3
_geom_angle
C00B N002 C00C 109.71(16)
C00K N002 C00B 110.18(17)
C00K N002 C00C 108.91(17)
C009 N004 C00N 114.88(17)
C009 N004 C00O 114.10(17)
C00N N004 C00O 112.97(18)
C00A N005 C00E 124.30(19)
C00A N005 C00Q 118.72(19)
C00Q N005 C00E 113.18(17)
C008 N006 C00W 114.39(18)
C00F N006 C008 118.4(2)
C00F N006 C00W 126.76(19)
C008 C007 H007 108.0
C008 C007 C00B 109.67(18)
C008 C007 C00I 111.8(2)
C00B C007 H007 108.0
C00B C007 C00I 111.16(18)
C00I C007 H007 108.0
N006 C008 C007 110.3(2)
N006 C008 H00A 109.6
N006 C008 H00B 109.6
C007 C008 H00A 109.6
C007 C008 H00B 109.6
H00A C008 H00B 108.1
N004 C009 H009 117.2
C00G C009 N004 125.6(2)
C00G C009 H009 117.2
O001 C00A N005 121.5(2)
O001 C00A C00M 119.8(2)
N005 C00A C00M 118.6(2)
N002 C00B C007 111.22(18)
N002 C00B H00C 108.0
N002 C00B C00U 112.35(17)
C007 C00B H00C 108.0
C007 C00B C00U 109.10(18)
C00U C00B H00C 108.0
N002 C00C H00D 108.2
N002 C00C C00G 111.69(17)
N002 C00C C00H 110.32(17)
C00G C00C H00D 108.2
C00G C00C C00H 110.20(19)
C00H C00C H00D 108.2
C00E C00D H00E 107.6
C00N C00D H00E 107.6
C00N C00D C00E 109.47(17)
C00T C00D H00E 107.6
C00T C00D C00E 114.48(18)
C00T C00D C00N 109.75(17)
N005 C00E C00D 107.48(17)
N005 C00E H00F 107.9
N005 C00E C00J 110.06(17)
C00D C00E H00F 107.9
C00J C00E C00D 115.29(19)
C00J C00E H00F 107.9
O003 C00F N006 122.1(2)
O003 C00F C00Z 119.7(2)
N006 C00F C00Z 118.2(2)
C009 C00G C00C 120.9(2)
C009 C00G C00T 120.7(2)
C00T C00G C00C 118.43(19)
C00C C00H H00G 109.4
C00C C00H H00H 109.4
H00G C00H H00H 108.0
C00I C00H C00C 110.97(19)
C00I C00H H00G 109.4
C00I C00H H00H 109.4
C007 C00I H00I 109.5
C007 C00I H00J 109.5
C00H C00I C007 110.52(17)
C00H C00I H00I 109.5
C00H C00I H00J 109.5
H00I C00I H00J 108.1
C00E C00J H00K 109.5
C00E C00J H00L 109.5
H00K C00J H00L 108.1
C00R C00J C00E 110.7(2)
C00R C00J H00K 109.5
C00R C00J H00L 109.5
N002 C00K H00M 109.2
N002 C00K H00N 109.2
N002 C00K C00V 112.13(19)
H00M C00K H00N 107.9
C00V C00K H00M 109.2
C00V C00K H00N 109.2
C00N C00L H00O 107.8
C00Q C00L H00O 107.8
C00Q C00L C00N 110.18(18)
C00Q C00L C00S 112.32(19)
C00S C00L H00O 107.8
C00S C00L C00N 110.65(17)
C00A C00M H00P 108.4
C00A C00M H00Q 108.4
C00A C00M C00R 115.35(19)
H00P C00M H00Q 107.5
C00R C00M H00P 108.4
C00R C00M H00Q 108.4
N004 C00N C00D 110.23(18)
N004 C00N C00L 110.06(18)
N004 C00N H00R 108.4
C00D C00N H00R 108.4
C00L C00N C00D 111.39(17)
C00L C00N H00R 108.4
N004 C00O H00S 109.4
N004 C00O H00T 109.4
N004 C00O C00P 110.96(17)
H00S C00O H00T 108.0
C00P C00O H00S 109.4
C00P C00O H00T 109.4
C00O C00P H00U 109.4
C00O C00P H00V 109.4
C00O C00P C00S 111.1(2)
H00U C00P H00V 108.0
C00S C00P H00U 109.4
C00S C00P H00V 109.4
N005 C00Q C00L 110.04(18)
N005 C00Q H00W 109.7
N005 C00Q H00X 109.7
C00L C00Q H00W 109.7
C00L C00Q H00X 109.7
H00W C00Q H00X 108.2
C00J C00R C00M 109.1(2)
C00J C00R H00Y 109.9
C00J C00R H 109.9
C00M C00R H00Y 109.9
C00M C00R H 109.9
H00Y C00R H 108.3
C00L C00S H00Z 109.3
C00L C00S HA 109.3
C00P C00S C00L 111.47(19)
C00P C00S H00Z 109.3
C00P C00S HA 109.3
H00Z C00S HA 108.0
C00D C00T H00 109.3
C00D C00T HB 109.3
C00G C00T C00D 111.61(19)
C00G C00T H00 109.3
C00G C00T HB 109.3
H00 C00T HB 108.0
C00B C00U H0AA 106.7
C00W C00U C00B 114.1(2)
C00W C00U H0AA 106.7
C00X C00U C00B 109.86(19)
C00X C00U H0AA 106.7
C00X C00U C00W 112.3(2)
C00K C00V H1AA 109.6
C00K C00V HC 109.6
C00K C00V C00X 110.1(2)
H1AA C00V HC 108.2
C00X C00V H1AA 109.6
C00X C00V HC 109.6
N006 C00W C00U 110.67(18)
N006 C00W H2AA 108.6
N006 C00W C010 110.7(2)
C00U C00W H2AA 108.6
C010 C00W C00U 109.6(2)
C010 C00W H2AA 108.6
C00U C00X H3AA 109.5
C00U C00X HD 109.5
C00V C00X C00U 110.8(2)
C00V C00X H3AA 109.5
C00V C00X HD 109.5
H3AA C00X HD 108.1
H4AA C00Y HE 108.3
C00Z C00Y H4AA 109.8
C00Z C00Y HE 109.8
C010 C00Y H4AA 109.8
C010 C00Y HE 109.8
C010 C00Y C00Z 109.2(2)
C00F C00Z H5AA 108.7
C00F C00Z HF 108.7
C00Y C00Z C00F 114.4(2)
C00Y C00Z H5AA 108.7
C00Y C00Z HF 108.7
H5AA C00Z HF 107.6
C00W C010 H01A 109.1
C00W C010 H01B 109.1
C00Y C010 C00W 112.6(3)
C00Y C010 H01A 109.1
C00Y C010 H01B 109.1
H01A C010 H01B 107.8
loop_
_geom_bond_atom_site_label_1
_geom_bond_atom_site_label_2
_geom_bond_distance
O001 C00A 1.227(3)
N002 C00B 1.482(3)
N002 C00C 1.492(3)
N002 C00K 1.463(3)
O003 C00F 1.227(3)
N004 C009 1.403(3)
N004 C00N 1.470(3)
N004 C00O 1.473(3)
N005 C00A 1.361(3)
N005 C00E 1.475(3)
N005 C00Q 1.465(3)
N006 C008 1.465(3)
N006 C00F 1.349(3)
N006 C00W 1.477(3)
C007 H007 0.9800
C007 C008 1.523(3)
C007 C00B 1.526(3)
C007 C00I 1.527(3)
C008 H00A 0.9700
C008 H00B 0.9700
C009 H009 0.9300
C009 C00G 1.337(3)
C00A C00M 1.520(3)
C00B H00C 0.9800
C00B C00U 1.543(3)
C00C H00D 0.9800
C00C C00G 1.512(3)
C00C C00H 1.532(3)
C00D H00E 0.9800
C00D C00E 1.550(3)
C00D C00N 1.542(3)
C00D C00T 1.534(3)
C00E H00F 0.9800
C00E C00J 1.531(3)
C00F C00Z 1.518(3)
C00G C00T 1.505(3)
C00H H00G 0.9700
C00H H00H 0.9700
C00H C00I 1.520(3)
C00I H00I 0.9700
C00I H00J 0.9700
C00J H00K 0.9700
C00J H00L 0.9700
C00J C00R 1.521(4)
C00K H00M 0.9700
C00K H00N 0.9700
C00K C00V 1.520(3)
C00L H00O 0.9800
C00L C00N 1.537(3)
C00L C00Q 1.531(3)
C00L C00S 1.533(3)
C00M H00P 0.9700
C00M H00Q 0.9700
C00M C00R 1.523(3)
C00N H00R 0.9800
C00O H00S 0.9700
C00O H00T 0.9700
C00O C00P 1.519(3)
C00P H00U 0.9700
C00P H00V 0.9700
C00P C00S 1.528(4)
C00Q H00W 0.9700
C00Q H00X 0.9700
C00R H00Y 0.9700
C00R H 0.9700
C00S H00Z 0.9700
C00S HA 0.9700
C00T H00 0.9700
C00T HB 0.9700
C00U H0AA 0.9800
C00U C00W 1.537(4)
C00U C00X 1.529(3)
C00V H1AA 0.9700
C00V HC 0.9700
C00V C00X 1.522(3)
C00W H2AA 0.9800
C00W C010 1.535(3)
C00X H3AA 0.9700
C00X HD 0.9700
C00Y H4AA 0.9700
C00Y HE 0.9700
C00Y C00Z 1.509(4)
C00Y C010 1.496(4)
C00Z H5AA 0.9700
C00Z HF 0.9700
C010 H01A 0.9700
C010 H01B 0.9700
