#------------------------------------------------------------------------------
#$Date: 2019-11-04 02:51:06 +0200 (Mon, 04 Nov 2019) $
#$Revision: 222207 $
#$URL: file:///home/coder/svn-repositories/cod/cif/1/55/26/1552682.cif $
#------------------------------------------------------------------------------
#
# This file is available in the Crystallography Open Database (COD),
# http://www.crystallography.net/
#
# All data on this site have been placed in the public domain by the
# contributors.
#
data_1552682
loop_
_publ_author_name
'Wong, Soon-Kit'
'Wong, Suet-Pick'
'Sim, Kae-Shin'
'Lim, Siew-Huah'
'Low, Yun-Yee'
'Kam, Toh-Seok'
_publ_section_title
;
 A Cytotoxic Indole Characterized by Incorporation of a Unique
 Carbon-Nitrogen Skeleton and Two Pentacyclic Corynanthean Alkaloids
 Incorporating a Substituted Tetrahydrofuranone Ring from <i>Kopsia
 arborea</i>.
;
_journal_issue                   7
_journal_name_full               'Journal of natural products'
_journal_page_first              1902
_journal_page_last               1907
_journal_paper_doi               10.1021/acs.jnatprod.9b00255
_journal_volume                  82
_journal_year                    2019
_chemical_absolute_configuration unk
_chemical_formula_moiety         'C19 H20 N2'
_chemical_formula_sum            'C19 H20 N2'
_chemical_formula_weight         276.37
_chemical_name_common            Arbophyllidine
_chemical_temperature_decomposition_gt 503
_space_group_crystal_system      triclinic
_space_group_IT_number           1
_space_group_name_Hall           'P 1'
_space_group_name_H-M_alt        'P 1'
_atom_sites_solution_hydrogens   mixed
_audit_creation_method           SHELXL-2018/1
_cell_angle_alpha                109.428(6)
_cell_angle_beta                 94.781(4)
_cell_angle_gamma                113.321(5)
_cell_formula_units_Z            1
_cell_length_a                   6.5325(3)
_cell_length_b                   7.8576(5)
_cell_length_c                   8.6225(5)
_cell_measurement_reflns_used    1825
_cell_measurement_temperature    100.2(9)
_cell_measurement_theta_max      29.5820
_cell_measurement_theta_min      3.4800
_cell_volume                     371.29(5)
_computing_cell_refinement
;
CrysAlisPro, Agilent Technologies,
Version 1.171.36.28 (release 01-02-2013 CrysAlis171 .NET)
(compiled Feb  1 2013,16:14:44)
;
_computing_data_collection
;
CrysAlisPro, Agilent Technologies,
Version 1.171.36.28 (release 01-02-2013 CrysAlis171 .NET)
(compiled Feb  1 2013,16:14:44)
;
_computing_data_reduction
;
CrysAlisPro, Agilent Technologies,
Version 1.171.36.28 (release 01-02-2013 CrysAlis171 .NET)
(compiled Feb  1 2013,16:14:44)
;
_computing_molecular_graphics    'X-SEED (Barbour, 2001)'
_computing_publication_material  'enCIFer (Allen et al., 2004)'
_computing_structure_refinement  'SHELXL-2018/1 (Sheldrick, 2018)'
_computing_structure_solution    'SHELXT 2014/5 (Sheldrick, 2014)'
_diffrn_ambient_temperature      100.2(9)
_diffrn_detector_area_resol_mean 10.4041
_diffrn_measured_fraction_theta_full 0.998
_diffrn_measured_fraction_theta_max 0.881
_diffrn_measurement_details
;
#__ type_ start__ end____ width___ exp.time_
  1 omega  -15.00   92.00   0.5000   25.0000
omega____ theta____ kappa____ phi______ frames
    -       13.8089   77.0000   90.0000 214

#__ type_ start__ end____ width___ exp.time_
  2 omega  -20.00   56.00   0.5000   25.0000
omega____ theta____ kappa____ phi______ frames
    -       13.8089  -99.0000  -30.0000 152

#__ type_ start__ end____ width___ exp.time_
  3 omega  -81.00  -49.00   0.5000   25.0000
omega____ theta____ kappa____ phi______ frames
    -      -13.9651  -19.0000  -90.0000 64

#__ type_ start__ end____ width___ exp.time_
  4 omega  -16.00   10.00   0.5000   25.0000
omega____ theta____ kappa____ phi______ frames
    -      -13.9651  -19.0000  -90.0000 52

#__ type_ start__ end____ width___ exp.time_
  5 omega  -44.00   56.00   0.5000   25.0000
omega____ theta____ kappa____ phi______ frames
    -      -13.9651   57.0000 -150.0000 200

;
_diffrn_measurement_device_type  'SuperNova, Dual, Cu at zero, Atlas'
_diffrn_measurement_method       '\w scan'
_diffrn_radiation_type           MoK\a
_diffrn_radiation_wavelength     0.71073
_diffrn_reflns_av_R_equivalents  0.0200
_diffrn_reflns_av_unetI/netI     0.0409
_diffrn_reflns_Laue_measured_fraction_full 0.998
_diffrn_reflns_Laue_measured_fraction_max 0.881
_diffrn_reflns_limit_h_max       9
_diffrn_reflns_limit_h_min       -7
_diffrn_reflns_limit_k_max       9
_diffrn_reflns_limit_k_min       -10
_diffrn_reflns_limit_l_max       11
_diffrn_reflns_limit_l_min       -12
_diffrn_reflns_number            3477
_diffrn_reflns_point_group_measured_fraction_full 0.720
_diffrn_reflns_point_group_measured_fraction_max 0.588
_diffrn_reflns_theta_full        25.000
_diffrn_reflns_theta_max         30.076
_diffrn_reflns_theta_min         3.080
_diffrn_source                   'SuperNova (Mo) X-ray Source'
_exptl_absorpt_coefficient_mu    0.073
_exptl_absorpt_correction_T_max  1.00000
_exptl_absorpt_correction_T_min  0.70195
_exptl_absorpt_correction_type   multi-scan
_exptl_absorpt_process_details
;
CrysAlisPro, Agilent Technologies,
Version 1.171.36.28 (release 01-02-2013 CrysAlis171 .NET)
(compiled Feb  1 2013,16:14:44)
Empirical absorption correction using spherical harmonics,
 implemented in SCALE3 ABSPACK scaling algorithm.
;
_exptl_crystal_colour            colorless
_exptl_crystal_density_diffrn    1.236
_exptl_crystal_description       block
_exptl_crystal_F_000             148
_exptl_crystal_size_max          0.2
_exptl_crystal_size_mid          0.12
_exptl_crystal_size_min          0.10
_refine_diff_density_max         0.278
_refine_diff_density_min         -0.252
_refine_diff_density_rms         0.049
_refine_ls_abs_structure_details
;
 Flack x determined using 576 quotients [(I+)-(I-)]/[(I+)+(I-)]
 (Parsons, Flack and Wagner, Acta Cryst. B69 (2013) 249-259).
;
_refine_ls_abs_structure_Flack   -4.4(10)
_refine_ls_extinction_method     none
_refine_ls_goodness_of_fit_ref   1.058
_refine_ls_hydrogen_treatment    mixed
_refine_ls_matrix_type           full
_refine_ls_number_parameters     195
_refine_ls_number_reflns         2558
_refine_ls_number_restraints     3
_refine_ls_restrained_S_all      1.057
_refine_ls_R_factor_all          0.0471
_refine_ls_R_factor_gt           0.0427
_refine_ls_shift/su_max          <0.001
_refine_ls_shift/su_mean         <0.001
_refine_ls_structure_factor_coef Fsqd
_refine_ls_weighting_details
'w=1/[\s^2^(Fo^2^)+(0.0634P)^2^+0.0674P] where P=(Fo^2^+2Fc^2^)/3'
_refine_ls_weighting_scheme      calc
_refine_ls_wR_factor_gt          0.1052
_refine_ls_wR_factor_ref         0.1102
_reflns_Friedel_coverage         0.335
_reflns_Friedel_fraction_full    0.442
_reflns_Friedel_fraction_max     0.295
_reflns_number_gt                2409
_reflns_number_total             2558
_reflns_threshold_expression     'I > 2\s(I)'
_cod_data_source_file            np9b00255_si_002.cif
_cod_data_source_block           Arbophyllidine
_cod_depositor_comments
;
The following automatic conversions were performed:

data name '_chemical_melting_point' was changed to
'_chemical_temperature_decomposition_gt' since the value was
specified as 'more than' ('>') a certain temperature. The value '>503
K dec' was changed to '503' -- it should be numeric and without a
unit designator.

Automatic conversion script
Id: cif_fix_values 6909 2019-04-08 15:41:33Z antanas 
;
_cod_original_cell_volume        371.29(4)
_cod_database_code               1552682
_shelx_shelxl_version_number     2018/1
_shelx_space_group_comment
;
The symmetry employed for this shelxl refinement is uniquely defined
by the following loop, which should always be used as a source of
symmetry information in preference to the above space-group names.
They are only intended as comments.
;
_shelx_res_file
;
TITL WSP_5581_a.res in P1
    WSP_5581_a.res
    created by SHELXL-2018/1 at 09:18:01 on 22-Apr-2019
CELL  0.71073   6.5325   7.8576   8.6225  109.428   94.781  113.321
ZERR    1.000   0.0003   0.0005   0.0005    0.006    0.004    0.005
LATT -1
SFAC C  H  N
UNIT 19  20  2
REM Old TITL wsp_5581 in P1
REM SHELXT solution in P1
REM R1 0.081,  Rweak 0.036,  Alpha 0.000,  Orientation as input
REM Flack x= -4.978 ( 3.059 ) from Parsons' quotients
REM Formula found by SHELXT:  C19 N2
L.S. 20
ACTA 50
BOND $H
FMAP 2
PLAN 20
CONF
FREE C2   H1
TEMP -173
WGHT    0.063400    0.067400
FVAR       1.41744
C2    1    0.595321    0.574921    0.448338    11.00000    0.01506    0.01600 =
         0.01514    0.00713    0.00391    0.00621
C21   1    0.227454    0.197979    0.686883    11.00000    0.02138    0.01733 =
         0.01871    0.00973    0.00622    0.00849
AFIX  23
H21A  2    0.294039    0.102882    0.645747    11.00000   -1.20000
H21B  2    0.166468    0.180808    0.784867    11.00000   -1.20000
AFIX   0
C5    1    0.178177    0.281967    0.458949    11.00000    0.01360    0.01467 =
         0.01538    0.00588    0.00498    0.00469
AFIX  13
H5    2    0.071645    0.296249    0.379474    11.00000   -1.20000
AFIX   0
C6    1    0.328980    0.202050    0.362403    11.00000    0.01721    0.01346 =
         0.01809    0.00473    0.00632    0.00437
AFIX  23
H6A   2    0.384321    0.133589    0.421035    11.00000   -1.20000
H6B   2    0.238051    0.102438    0.246221    11.00000   -1.20000
AFIX   0
C7    1    0.531082    0.375785    0.353701    11.00000    0.01727    0.01724 =
         0.01430    0.00716    0.00434    0.00818
C8    1    0.692316    0.367864    0.252253    11.00000    0.01885    0.01886 =
         0.01300    0.00610    0.00409    0.00831
C9    1    0.718533    0.210229    0.132831    11.00000    0.02166    0.01402 =
         0.01518    0.00437    0.00459    0.00754
AFIX  43
H9    2    0.609013    0.073436    0.100097    11.00000   -1.20000
AFIX   0
C10   1    0.907319    0.258038    0.063599    11.00000    0.02747    0.01937 =
         0.01523    0.00631    0.00850    0.01136
AFIX  43
H10   2    0.926294    0.152572   -0.017649    11.00000   -1.20000
AFIX   0
C11   1    1.070718    0.459328    0.111408    11.00000    0.02192    0.02417 =
         0.01596    0.00900    0.00896    0.01033
AFIX  43
H11   2    1.200095    0.487664    0.063749    11.00000   -1.20000
AFIX   0
C12   1    1.046595    0.618116    0.227358    11.00000    0.01792    0.01804 =
         0.01740    0.00845    0.00445    0.00540
AFIX  43
H12   2    1.157166    0.754423    0.259423    11.00000   -1.20000
AFIX   0
C13   1    0.854851    0.570890    0.295107    11.00000    0.01684    0.01626 =
         0.01345    0.00646    0.00288    0.00662
C3    1   -0.069596    0.289995    0.630135    11.00000    0.01615    0.01817 =
         0.02415    0.00876    0.00826    0.00782
AFIX  23
H3A   2   -0.110052    0.269744    0.732915    11.00000   -1.20000
H3B   2   -0.211723    0.254953    0.549916    11.00000   -1.20000
AFIX   0
C14   1    0.109600    0.513927    0.677966    11.00000    0.01905    0.01780 =
         0.02153    0.00938    0.00895    0.01019
AFIX  23
H14B  2    0.050619    0.579326    0.618008    11.00000   -1.20000
H14A  2    0.152425    0.594298    0.801882    11.00000   -1.20000
AFIX   0
C22   1    0.504169    0.838820    0.629038    11.00000    0.02413    0.01957 =
         0.02486    0.01125    0.01240    0.01030
AFIX  93
H22B  2    0.604002    0.933575    0.590852    11.00000   -1.20000
H22A  2    0.422954    0.878804    0.708825    11.00000   -1.20000
AFIX   0
C17   1    0.478067    0.649908    0.570713    11.00000    0.01559    0.01776 =
         0.01594    0.00779    0.00441    0.00717
C18   1    0.772391    0.726721    0.935128    11.00000    0.02353    0.02107 =
         0.02170    0.00509   -0.00167    0.00881
AFIX 137
H18A  2    0.742267    0.791434    0.862468    11.00000   -1.50000
H18B  2    0.925070    0.732201    0.936527    11.00000   -1.50000
H18C  2    0.766765    0.797890    1.050815    11.00000   -1.50000
AFIX   0
C19   1    0.592852    0.509666    0.866913    11.00000    0.02432    0.02247 =
         0.01905    0.00959    0.00735    0.01438
AFIX  43
H19   2    0.613501    0.430147    0.923266    11.00000   -1.20000
AFIX   0
C20   1    0.409121    0.416194    0.737379    11.00000    0.01816    0.01463 =
         0.01690    0.00664    0.00795    0.00893
C15   1    0.313942    0.486770    0.616295    11.00000    0.01631    0.01247 =
         0.01597    0.00522    0.00551    0.00728
N1    3    0.791631    0.695799    0.412906    11.00000    0.01984    0.01516 =
         0.01818    0.00743    0.00785    0.00753
N4    3    0.042282    0.161116    0.549186    11.00000    0.01739    0.01610 =
         0.01795    0.00854    0.00633    0.00654
H1    2    0.852880    0.822880    0.445106    11.00000    0.02151
HKLF 4




REM  WSP_5581_a.res in P1
REM R1 =  0.0427 for    2409 Fo > 4sig(Fo)  and  0.0471 for all    2558 data
REM    195 parameters refined using      3 restraints

END

WGHT      0.0634      0.0674

REM Highest difference peak  0.278,  deepest hole -0.252,  1-sigma level  0.049
Q1    1   0.0304  0.4003  0.6582  11.00000  0.05    0.28
Q2    1   0.8101  0.4625  0.2993  11.00000  0.05    0.27
Q3    1   0.3190  0.3050  0.6980  11.00000  0.05    0.26
Q4    1   0.5126  0.4759  0.3660  11.00000  0.05    0.25
Q5    1   0.2375  0.3755  0.5389  11.00000  0.05    0.24
Q6    1   0.4314  0.2710  0.3411  11.00000  0.05    0.23
Q7    1   0.2224  0.5002  0.6646  11.00000  0.05    0.23
Q8    1   0.5973  0.3589  0.3002  11.00000  0.05    0.22
Q9    1   0.3678  0.4641  0.6811  11.00000  0.05    0.21
Q10   1   0.9639  0.3598  0.0652  11.00000  0.05    0.21
Q11   1   0.6242  0.4797  0.4379  11.00000  0.05    0.21
Q12   1   0.3957  0.7005  0.5437  11.00000  0.05    0.20
Q13   1  -0.0814  0.0359  0.5202  11.00000  0.05    0.20
Q14   1   0.6708  0.6145  0.8802  11.00000  0.05    0.19
Q15   1   0.7120  0.2981  0.1996  11.00000  0.05    0.19
Q16   1   1.0231  0.3594  0.1353  11.00000  0.05    0.19
Q17   1   0.9758  0.6087  0.3009  11.00000  0.05    0.18
Q18   1   0.2609  0.2544  0.4236  11.00000  0.05    0.18
Q19   1   0.1072  0.2044  0.5007  11.00000  0.05    0.18
Q20   1   0.3760  0.5641  0.5811  11.00000  0.05    0.17
;
_shelx_res_checksum              89732
_shelx_hkl_file
;
  -1   0   0   95.79    3.00
  -2   0   0   59.39    2.60
   2   0   0   54.49    1.60
   2   0   0   54.59    2.50
  -3   0   0   50.99    2.80
   3   0   0   48.40    3.00
   3   0   0   50.49    2.80
   3   0   0   45.90    1.70
  -4   0   0   80.89    2.90
  -4   0   0   84.89    4.20
   4   0   0   77.09    2.60
   4   0   0   81.79    4.50
   4   0   0   75.89    4.10
  -5   0   0   16.50    1.40
   5   0   0   18.50    2.40
  -6   0   0   19.40    1.60
   6   0   0   21.90    3.00
   7   0   0   49.20    4.80
   8  -1   0   64.89    5.70
   7  -1   0   10.40    2.30
   6  -1   0  200.38    5.60
   6  -1   0  198.78    9.00
   6  -1   0  193.98    8.20
  -6   1   0  195.78    6.20
   5  -1   0   29.60    3.10
   5  -1   0   29.60    2.80
  -5   1   0   31.90    1.90
   4  -1   0   25.60    2.70
   4  -1   0   26.80    1.50
   4  -1   0   28.20    2.30
  -4   1   0   31.30    2.50
  -4   1   0   25.90    1.60
   3  -1   0  527.35   12.90
  -3   1   0  517.55   12.00
  -3   1   0  525.35   12.60
   2  -1   0   76.79    2.30
   2  -1   0   76.69    2.90
  -2   1   0   84.69    2.70
  -2   1   0   86.09    3.10
  -1   1   0  803.02   17.70
   0  -1   0 4306.87   93.19
  -1  -1   0  604.24   13.60
  -1  -1   0  602.64   11.20
  -2  -1   0  224.28    7.00
  -2  -1   0  240.88    5.20
  -2  -1   0  238.98    7.00
   2   1   0  227.78    5.00
  -3  -1   0  231.08    7.90
  -3  -1   0  235.58    7.60
  -3  -1   0  238.28    5.60
   3   1   0  221.68    7.80
   3   1   0  233.88    5.40
   4   1   0  415.56   12.80
   5   1   0   42.00    2.20
   5   1   0   41.50    3.80
   6   1   0   23.10    3.30
   7   1   0    1.00    1.60
   8  -2   0   47.30    5.10
   8  -2   0   41.80    4.30
   7  -2   0  228.78   10.80
   7  -2   0  237.58    9.60
   6  -2   0   21.90    2.60
   6  -2   0   16.20    2.70
   6  -2   0   21.20    1.60
  -6   2   0   13.40    1.50
   5  -2   0   73.69    4.10
   5  -2   0   73.09    4.90
  -5   2   0   73.89    3.40
   4  -2   0  142.49    4.10
   4  -2   0  140.79    5.40
  -4   2   0  149.88    5.10
   3  -2   0  164.58    4.80
   3  -2   0  166.28    5.40
  -3   2   0  179.78    5.70
   2  -2   0  890.71   20.40
  -2   2   0  964.00   22.20
   1  -2   0  192.38    4.60
   0  -2   0  661.23   15.40
   0  -2   0  658.43   12.70
   0  -2   0  647.94   16.00
  -1  -2   0  921.21   20.70
  -1  -2   0  931.21   17.50
   1   2   0  968.10   18.40
   1   2   0  960.80   23.10
  -2  -2   0  174.38    4.40
  -2  -2   0  174.48    6.20
  -2  -2   0  170.68    5.80
   2   2   0  175.08    4.60
  -3  -2   0   10.70    1.10
  -3  -2   0   11.20    1.60
   3   2   0   12.00    2.00
  -4  -2   0  449.06   10.10
   4   2   0  424.86   13.90
   4   2   0  444.46   10.20
   5   2   0  111.69    6.80
   6   2   0    4.80    1.90
   9  -3   0    4.80    1.90
   8  -3   0   54.19    4.60
   8  -3   0   59.39    5.60
   7  -3   0   97.29    5.80
   7  -3   0   98.39    6.90
   6  -3   0    3.30    1.50
   6  -3   0    2.50    1.60
  -6   3   0    3.30    1.10
   5  -3   0   35.70    1.90
   5  -3   0   33.70    2.90
  -5   3   0   39.20    2.90
   4  -3   0  481.35   12.10
   4  -3   0  474.35   12.70
  -4   3   0  514.65   14.10
   3  -3   0   47.20    2.80
   3  -3   0   49.40    2.30
   2  -3   0   16.10    1.30
   2  -3   0   17.10    1.80
   1  -3   0   50.59    2.30
   0  -3   0  384.86   10.90
   0  -3   0  390.16    8.70
   0  -3   0  390.26   11.10
  -1  -3   0  603.14   15.40
  -1  -3   0  600.54   12.30
  -2  -3   0   47.00    2.10
  -2  -3   0   45.00    2.80
   2   3   0   54.89    3.80
   2   3   0   51.79    3.90
  -3  -3   0  249.97    8.80
  -3  -3   0  256.37    6.60
   3   3   0  250.87   10.20
   3   3   0  250.87    6.90
  -4  -3   0   10.10    1.30
   4   3   0   11.00    2.50
   5   3   0   10.10    2.70
   6   3   0    4.40    2.60
   9  -4   0   15.50    2.80
   8  -4   0   29.20    4.10
   8  -4   0   29.80    3.60
   7  -4   0    0.50    1.60
   7  -4   0    3.40    2.00
   6  -4   0  143.09    6.60
   6  -4   0  149.59    7.90
   6  -4   0  143.79    5.40
   5  -4   0   56.29    3.80
   5  -4   0   59.79    3.10
   4  -4   0  317.87    8.40
   3  -4   0  334.47    8.40
   2  -4   0  322.77    8.00
   1  -4   0   37.70    3.20
   1  -4   0   35.80    2.10
   0  -4   0   84.79    4.60
   0  -4   0   82.49    3.20
   0  -4   0   81.59    4.40
   0   4   0   86.59    3.60
  -1  -4   0  197.28    5.50
   1   4   0  212.88    6.30
   1   4   0  208.98    8.40
   1   4   0  191.98    9.10
  -2  -4   0  206.78    5.80
  -2  -4   0  204.88    7.20
   2   4   0  218.88    9.90
  -3  -4   0  156.08    5.00
   3   4   0  151.38    8.60
   3   4   0  163.88    8.40
  -4  -4   0   34.60    2.30
   4   4   0   33.10    4.10
   4   4   0   32.10    4.40
  -5  -4   0   38.50    2.60
   5   4   0   47.40    5.60
   5   4   0   57.59    5.80
   9  -5   0    7.80    2.00
   8  -5   0    5.80    2.40
   8  -5   0    9.30    1.80
   8  -5   0    9.60    2.40
   7  -5   0   61.99    4.60
   7  -5   0   64.29    3.80
   7  -5   0   66.39    5.60
   6  -5   0  146.29    5.80
   6  -5   0  141.79    5.70
   6  -5   0  145.69    6.80
   5  -5   0  158.18    6.60
   5  -5   0  161.18    6.90
   5  -5   0  160.78    5.90
   4  -5   0   21.40    2.40
   4  -5   0   22.00    2.00
   3  -5   0   73.49    4.80
   3  -5   0   79.89    3.60
   2  -5   0   26.90    3.10
   2  -5   0   24.70    2.00
   1  -5   0    7.00    1.30
   1  -5   0    3.50    1.30
   0  -5   0   10.20    1.40
  -1  -5   0  118.19    4.30
  -2  -5   0   61.49    3.00
  -2  -5   0   55.69    3.60
   2   5   0   60.89    5.00
  -3  -5   0    7.60    1.30
   3   5   0    7.30    2.10
   3   5   0    4.30    2.40
  -4  -5   0   30.20    2.40
   4   5   0   35.60    5.30
   9  -6   0   13.70    2.60
   8  -6   0   60.69    4.90
   8  -6   0   63.59    6.00
   8  -6   0   62.09    4.10
   7  -6   0   83.89    4.60
   7  -6   0   88.79    5.70
   6  -6   0   50.69    4.20
   6  -6   0   51.49    3.50
   5  -6   0  118.69    5.20
   4  -6   0  112.39    4.80
   3  -6   0   29.20    2.40
   2  -6   0  258.27    7.60
   1  -6   0  330.47   12.40
   1  -6   0  326.97    8.90
   0  -6   0   30.90    2.40
  -1  -6   0   22.70    2.00
  -2  -6   0   17.70    1.90
  -3  -6   0    3.40    1.20
   8  -7   0  114.59    8.40
   8  -7   0  109.39    5.70
   8  -7   0  106.09    6.90
   7  -7   0   13.00    2.10
   7  -7   0   15.30    2.80
   6  -7   0    5.50    1.50
   5  -7   0  159.18    6.40
   4  -7   0   11.80    1.80
   3  -7   0   81.39    4.20
   2  -7   0   47.70    3.20
   1  -7   0  231.78    7.50
   0  -7   0    0.20    1.00
  -1  -7   0    2.40    1.20
  -2  -7   0   22.30    2.30
  -3  -7   0   48.90    3.30
   8  -8   0   15.60    2.30
   8  -8   0   16.40    3.30
   7  -8   0    2.70    2.40
   7  -8   0   -0.70    0.90
   6  -8   0    6.80    1.90
   5  -8   0   48.10    3.70
   4  -8   0   56.79    3.80
   3  -8   0    5.70    1.40
   2  -8   0   28.60    2.60
   1  -8   0   14.60    2.00
   0  -8   0    2.50    1.20
  -1  -8   0   20.90    2.30
   7  -9   0   14.00    2.40
   6  -9   0    1.20    1.10
   5  -9   0   13.20    1.90
   4  -9   0   13.20    2.20
   3  -9   0    6.40    1.60
   2  -9   0   14.60    2.20
   1  -9   0   82.49    4.70
   0  -9   1  109.19    5.30
   1  -9   1   45.70    3.50
   2  -9   1    5.90    1.60
   3  -9   1   31.60    2.90
   4  -9   1   68.39    4.60
   5  -9   1   21.40    2.80
   6  -9   1   10.30    2.20
   7  -9   1   11.90    2.50
   7  -9   1   15.10    3.10
  -2  -8   1   22.90    2.30
  -1  -8   1   36.20    2.90
   0  -8   1   15.10    2.00
   1  -8   1   12.00    1.80
   2  -8   1   64.99    3.90
   3  -8   1  133.59    6.00
   4  -8   1  199.18    7.80
   5  -8   1   11.50    2.10
   6  -8   1   68.29    4.60
   7  -8   1    1.90    1.50
   7  -8   1    5.90    2.30
   7  -8   1    0.70    1.90
   8  -8   1   18.40    2.90
   8  -8   1   24.40    2.70
  -3  -7   1   47.80    3.10
  -2  -7   1    6.10    1.20
  -1  -7   1    5.10    1.20
   0  -7   1   15.60    1.80
   1  -7   1  154.68    5.70
   1  -7   1  139.09    6.90
   2  -7   1   38.80    3.90
   2  -7   1   39.60    2.90
   3  -7   1  188.48    6.90
   4  -7   1   31.40    2.80
   5  -7   1  139.79    6.10
   6  -7   1   35.00    3.50
   6  -7   1   36.40    3.10
   7  -7   1   41.30    3.50
   7  -7   1   56.29    4.60
   7  -7   1   45.50    4.90
   8  -7   1   75.29    6.50
   8  -7   1   55.09    4.60
   8  -7   1   56.09    4.20
   3   6  -1   93.79    8.30
  -3  -6   1   84.29    3.90
  -2  -6   1   35.00    2.40
  -1  -6   1   91.99    4.00
   0  -6   1   55.69    3.00
   1  -6   1  186.68    6.10
   1  -6   1  189.68    7.90
   2  -6   1    5.70    1.30
   3  -6   1   26.00    2.30
   4  -6   1   79.79    4.10
   5  -6   1   10.10    1.80
   6  -6   1    9.40    2.10
   6  -6   1    5.50    1.50
   7  -6   1  225.28   11.10
   7  -6   1  239.58    9.30
   7  -6   1  224.48    8.40
   8  -6   1   73.79    6.50
   8  -6   1   54.89    4.00
   8  -6   1   65.29    5.00
   4   5  -1    5.20    2.50
  -4  -5   1    5.60    1.20
   3   5  -1   27.90    3.20
   3   5  -1   27.50    4.10
  -3  -5   1   26.00    1.90
   2   5  -1   77.89    6.00
  -2  -5   1   72.99    3.20
  -2  -5   1   69.79    3.60
   1   5  -1  159.58    8.40
  -1  -5   1  160.58    5.10
   0   5  -1   73.19    3.60
   0  -5   1   65.79    3.10
   1  -5   1  453.35   14.00
   1  -5   1  480.15   14.00
   1  -5   1  485.15   11.30
   2  -5   1   18.60    1.80
   3  -5   1  116.09    4.70
   3  -5   1  113.09    5.80
   4  -5   1    2.30    1.10
   4  -5   1    2.40    1.20
   5  -5   1  210.28    7.70
   5  -5   1  204.88    7.00
   5  -5   1  209.78    7.70
   6  -5   1   22.80    2.10
   6  -5   1   21.80    3.20
   6  -5   1   22.00    2.50
   7  -5   1   47.60    4.80
   7  -5   1   49.70    4.00
   8  -5   1    1.70    1.50
   8  -5   1    0.90    1.50
   5   4  -1   35.80    4.40
   5   4  -1   27.80    4.20
   4   4  -1   27.50    3.80
   4   4  -1   27.90    3.40
  -4  -4   1   28.00    1.90
   3   4  -1   27.00    2.00
   3   4  -1   29.00    3.70
  -3  -4   1   24.20    1.70
  -3  -4   1   20.40    2.20
   2   4  -1   42.20    2.50
   2   4  -1   40.90    4.00
   2   4  -1   43.20    3.40
  -2  -4   1   42.50    2.60
  -2  -4   1   39.60    2.10
  -1  -4   1   49.90    2.40
  -1  -4   1   56.89    3.60
   0  -4   1  234.88    6.10
   0  -4   1  238.08    7.80
   0  -4   1  233.28    7.40
   1  -4   1  117.59    5.20
   1  -4   1  113.69    3.90
   2  -4   1  127.89    4.40
  -3   4  -1  151.78    6.70
   3  -4   1  171.48    5.50
  -4   4  -1  188.48    7.80
   4  -4   1  172.28    6.20
  -5   4  -1  181.48    7.70
   5  -4   1  166.18    7.80
   5  -4   1  162.88    6.40
  -6   4  -1   50.99    3.90
   6  -4   1   46.90    3.50
   6  -4   1   42.80    2.50
   6  -4   1   47.10    4.40
  -7   4  -1    5.70    1.60
   7  -4   1    2.50    1.60
   7  -4   1    4.90    1.70
   8  -4   1   29.80    4.10
   8  -4   1   23.70    3.10
   6   3  -1   24.30    4.10
   5   3  -1   14.40    2.90
   4   3  -1   25.50    1.80
   4   3  -1   29.00    3.40
  -4  -3   1   27.60    1.80
   3   3  -1   24.60    2.90
  -3  -3   1   23.30    1.50
   2   3  -1   43.10    2.20
  -2  -3   1   49.80    3.20
  -2  -3   1   42.90    1.90
  -2  -3   1   45.90    2.60
   1   3  -1  205.18    6.60
   1   3  -1  211.98    5.50
  -1  -3   1  201.48    6.70
  -1  -3   1  202.18    5.10
   0  -3   1   92.19    3.50
   0  -3   1   93.59    3.10
   0  -3   1  100.69    4.00
   1  -3   1  125.99    3.80
  -2   3  -1  131.99    5.50
  -3   3  -1   38.80    2.70
   3  -3   1   38.70    2.30
  -4   3  -1   73.49    3.90
   4  -3   1   75.69    3.20
   4  -3   1   78.59    3.70
  -5   3  -1   74.59    4.10
   5  -3   1   74.19    4.90
   5  -3   1   66.99    3.80
  -6   3  -1    3.40    1.10
   6  -3   1    3.90    1.50
   6  -3   1    3.70    1.70
   7  -3   1    8.10    2.30
   7  -3   1    8.10    2.00
   8  -3   1    8.20    2.10
   8  -3   1   12.00    3.00
   6   2  -1    6.40    2.30
   5   2  -1  247.68   10.50
   4   2  -1    2.50    1.50
   4   2  -1    1.90    0.60
  -4  -2   1    1.50    0.70
   3   2  -1   29.30    2.70
   3   2  -1   26.20    1.50
  -3  -2   1   27.90    1.40
  -3  -2   1   29.90    2.60
   2   2  -1  238.78    5.50
  -2  -2   1  230.58    6.90
  -2  -2   1  232.78    5.10
  -2  -2   1  238.48    7.40
   1   2  -1   17.00    1.00
  -1  -2   1   15.50    1.00
  -1  -2   1   16.30    1.50
  -1  -2   1   17.20    1.10
   0  -2   1  247.58    5.40
   0  -2   1  242.38    6.10
   0  -2   1  250.27    6.40
  -1   2  -1  781.72   18.50
  -2   2  -1  193.08    6.00
   2  -2   1  183.38    5.00
  -3   2  -1    4.00    0.90
   3  -2   1    7.40    1.10
   3  -2   1    6.80    0.90
  -4   2  -1  149.59    5.50
  -4   2  -1  157.78    5.40
   4  -2   1  149.88    5.40
  -5   2  -1   82.39    3.90
  -5   2  -1   80.59    4.20
   5  -2   1   73.59    4.10
   5  -2   1   87.49    5.30
   5  -2   1   82.09    3.30
  -6   2  -1    4.30    1.20
   6  -2   1    5.90    1.60
   6  -2   1    1.00    1.50
   7  -2   1   26.70    3.10
   8  -2   1    4.90    1.90
   7   1  -1   22.20    3.40
   6   1  -1    2.80    1.50
   5   1  -1  452.25   14.40
   5   1  -1  458.75    9.80
   4   1  -1    2.70    1.10
   4   1  -1    3.20    0.60
   4   1  -1    3.80    1.40
   3   1  -1   75.59    2.20
   3   1  -1   75.59    3.70
  -3  -1   1   81.39    4.00
  -3  -1   1   82.19    2.30
   2   1  -1  105.39    2.60
   2   1  -1  105.99    3.70
  -2  -1   1  108.79    4.10
  -2  -1   1  110.39    2.60
   1   1  -1  196.18    4.80
   1   1  -1  194.18    4.00
  -1  -1   1  198.48    5.30
  -1  -1   1  207.18    4.10
   0  -1   1  172.28    4.00
  -1   1  -1 4496.55   93.49
  -1   1  -1 4563.54   92.29
   1  -1   1 4367.16   86.29
  -2   1  -1   89.89    3.00
  -2   1  -1   90.39    3.00
  -2   1  -1   96.79    4.00
   2  -1   1   94.99    3.10
  -3   1  -1  154.58    5.10
  -3   1  -1  156.18    4.70
   3  -1   1  160.08    5.20
   3  -1   1  161.68    4.30
  -4   1  -1   66.49    3.00
  -4   1  -1   70.59    3.60
   4  -1   1   64.49    3.40
   4  -1   1   69.39    4.30
  -5   1  -1   13.40    1.50
   5  -1   1   21.00    1.60
   5  -1   1   16.10    2.50
   5  -1   1   19.30    2.30
  -6   1  -1  137.59    5.30
   6  -1   1  130.69    6.60
   7  -1   1   -0.70    1.60
   8  -1   1   26.40    3.70
   8   0  -1   17.50    3.30
   7   0  -1   29.40    3.70
   6   0  -1   13.70    2.50
   6   0  -1    9.10    2.20
   5   0  -1    8.30    1.90
   5   0  -1    7.60    1.80
   5   0  -1   10.70    0.90
  -5   0   1    9.90    0.90
   4   0  -1   56.39    3.50
   4   0  -1   51.99    1.80
   4   0  -1   58.09    3.80
  -4   0   1   48.80    1.80
  -4   0   1   52.79    3.30
   3   0  -1  148.59    5.60
   3   0  -1  149.19    3.30
  -3   0   1  149.59    5.30
  -3   0   1  135.99    3.40
   2   0  -1  171.48    3.40
  -2   0   1  169.98    5.20
  -1   0   1 1497.75   30.60
  -1   0  -1 1343.57   23.60
  -1   0  -1 1330.67   27.80
   1   0   1 1336.67   27.50
  -2   0  -1  175.48    5.80
  -2   0  -1  182.78    5.30
   2   0   1  182.28    4.30
   2   0   1  183.98    5.50
  -3   0  -1   50.29    2.80
  -3   0  -1   48.00    3.20
   3   0   1   47.10    2.00
   3   0   1   48.80    2.90
  -4   0  -1   87.19    3.40
  -4   0  -1   90.69    4.50
   4   0   1   97.69    4.80
  -5   0  -1   16.40    1.70
   5   0   1   14.60    2.20
   5   0   1   12.90    1.30
  -6   0  -1  248.98    7.90
   6   0   1  248.38   10.30
   7   0   1   -0.80    1.70
   8  -1  -1   27.30    3.60
   7  -1  -1   15.10    2.70
   7  -1  -1   15.20    2.60
   6  -1  -1  175.88    7.70
   6  -1  -1  174.88    7.00
   5  -1  -1   48.40    3.60
   5  -1  -1   49.30    3.90
   5  -1  -1   53.19    2.10
  -5   1   1   51.09    2.00
   4  -1  -1  154.98    6.00
  -4   1   1  153.98    4.30
  -4   1   1  169.88    6.10
  -3   1   1   89.79    3.80
   2  -1  -1  441.76   10.20
   2  -1  -1  449.76    8.40
   1  -1  -1  997.70   18.00
   0  -1  -1  112.99    2.90
   0  -1  -1  120.49    4.40
  -1  -1  -1  523.35   12.60
  -1  -1  -1  533.15   10.20
   1   1   1  552.54   13.40
  -2  -1  -1   70.89    3.50
  -2  -1  -1   70.39    3.30
  -2  -1  -1   73.29    2.50
   2   1   1   71.39    2.40
   2   1   1   66.19    3.50
  -3  -1  -1   66.29    3.90
  -3  -1  -1   76.19    3.80
  -3  -1  -1   68.59    2.70
   3   1   1   73.89    4.10
   4   1   1   27.00    2.90
   4   1   1   25.60    1.70
   5   1   1   64.59    4.80
  -6  -1  -1   82.39    4.00
   6   1   1   63.49    5.30
   7   1   1    9.10    2.50
   8  -2  -1    3.70    1.60
   8  -2  -1    9.20    2.70
   7  -2  -1   86.69    5.70
   7  -2  -1   88.99    6.40
   6  -2  -1   89.69    5.20
   6  -2  -1   77.79    5.70
   5  -2  -1   15.10    2.20
   4  -2  -1   97.89    4.60
   4  -2  -1   99.79    3.00
   3  -2  -1  508.95   10.40
   3  -2  -1  511.95   12.50
   3  -2  -1  512.95   12.80
   2  -2  -1  397.36    8.30
  -2   2   1  386.86    8.20
   1  -2  -1  103.49    3.00
   0  -2  -1  289.87    8.80
   0  -2  -1  288.07    8.90
   0  -2  -1  288.37    6.50
  -1  -2  -1  261.77    7.90
  -1  -2  -1  263.47    6.20
   1   2   1  268.57    9.30
  -2  -2  -1  362.26   10.70
  -2  -2  -1  369.86    8.20
   2   2   1  381.26   11.80
  -3  -2  -1   63.69    4.00
  -3  -2  -1   70.89    2.90
   3   2   1   72.09    3.00
   3   2   1   70.49    4.80
  -4  -2  -1  106.79    4.10
   4   2   1  106.39    6.40
   5   2   1    1.40    1.90
   6   2   1    2.40    2.20
   8  -3  -1    4.30    2.70
   8  -3  -1    2.90    1.90
   7  -3  -1   81.99    5.50
   7  -3  -1   92.49    6.60
   7  -3  -1   86.59    3.80
   6  -3  -1   16.10    2.50
   6  -3  -1   17.90    1.70
   5  -3  -1    1.50    0.80
   5  -3  -1    0.90    1.40
   5  -3  -1    0.80    0.70
   4  -3  -1   93.69    4.50
   4  -3  -1   84.89    3.30
   4  -3  -1   89.69    3.80
   3  -3  -1  259.47    6.40
   3  -3  -1  257.87    8.30
   2  -3  -1  652.73   13.30
  -2   3   1  624.44   13.10
   1  -3  -1  269.57    6.50
   0  -3  -1  669.93   18.40
   0  -3  -1  663.13   13.70
   0  -3  -1  673.53   17.50
  -1  -3  -1   37.30    2.00
  -1  -3  -1   39.60    3.00
   1   3   1   35.20    2.10
  -2  -3  -1  235.98    6.30
   2   3   1  238.18    6.60
   2   3   1  236.58    9.80
   2   3   1  243.58   10.20
  -3  -3  -1   68.69    3.10
   3   3   1   73.59    5.50
   3   3   1   73.99    5.60
  -4  -3  -1   77.39    3.60
   4   3   1   71.39    6.00
   4   3   1   77.89    6.30
   5   3   1   31.50    4.40
   5   3   1   32.80    4.70
   6   3   1    8.30    3.30
   6   3   1    9.50    3.20
   9  -4  -1    3.90    2.10
   8  -4  -1   15.50    3.20
   8  -4  -1   14.00    2.70
   7  -4  -1   32.00    2.40
   7  -4  -1   30.90    3.40
   7  -4  -1   30.90    4.00
   6  -4  -1   39.80    3.60
   6  -4  -1   48.20    2.80
   6  -4  -1   44.30    2.40
   5  -4  -1   89.59    4.80
   5  -4  -1   92.09    3.60
   3  -4  -1   76.09    3.20
   2  -4  -1   30.10    1.90
  -2   4   1   31.00    2.20
   1  -4  -1  120.39    6.30
   1  -4  -1  108.59    3.90
   0  -4  -1  142.79    6.70
   0  -4  -1  144.49    6.70
   0  -4  -1  135.89    4.50
  -1  -4  -1  220.78    6.20
  -2  -4  -1  226.28    6.50
   2   4   1  246.48   11.10
  -3  -4  -1   20.90    1.90
   3   4   1   16.00    3.30
   3   4   1   17.20    3.20
  -4  -4  -1   45.40    2.90
   4   4   1   62.59    6.30
   4   4   1   43.10    5.20
  -5  -4  -1   42.80    2.90
   5   4   1   49.40    6.20
   5   4   1   42.00    5.50
   9  -5  -1   -4.30    2.30
   8  -5  -1   53.69    4.80
   8  -5  -1   33.70    4.60
   7  -5  -1   93.99    6.00
   7  -5  -1   92.49    4.40
   6  -5  -1  173.38    7.80
   6  -5  -1  163.18    6.50
   6  -5  -1  173.58    6.10
   5  -5  -1   58.39    3.20
   5  -5  -1   56.89    3.90
   4  -5  -1  146.89    5.30
   4  -5  -1  160.28    7.20
   3  -5  -1  193.88    8.40
   3  -5  -1  178.18    5.80
   2  -5  -1  181.38    5.80
   1  -5  -1  168.08    5.50
   1  -5  -1  176.58    8.50
   0  -5  -1   86.79    3.70
  -1  -5  -1   13.20    1.60
  -2  -5  -1   52.19    3.00
   2   5   1   55.29    5.40
  -3  -5  -1   63.29    3.50
   3   5   1   61.19    6.10
  -4  -5  -1  121.89    5.20
   8  -6  -1   43.00    3.20
   8  -6  -1   40.60    4.30
   8  -6  -1   39.70    5.10
   7  -6  -1   21.40    2.30
   7  -6  -1   14.70    2.70
   6  -6  -1   59.89    4.80
   6  -6  -1   63.09    3.70
   5  -6  -1   75.29    4.00
   4  -6  -1  297.87    8.70
   3  -6  -1   58.09    3.20
   2  -6  -1  196.98    6.50
   1  -6  -1   55.39    3.20
   0  -6  -1  116.29    4.70
  -1  -6  -1   23.50    2.10
  -2  -6  -1   27.30    2.30
  -3  -6  -1   18.80    2.10
   8  -7  -1   16.50    3.30
   8  -7  -1   20.40    2.50
   7  -7  -1   12.80    2.90
   7  -7  -1   15.90    2.20
   6  -7  -1   13.40    2.00
   5  -7  -1   35.10    2.90
   4  -7  -1   91.79    4.50
   3  -7  -1   49.10    3.20
   2  -7  -1   20.00    2.10
   1  -7  -1    4.50    1.40
   0  -7  -1   12.00    1.80
  -1  -7  -1   11.50    1.70
  -2  -7  -1   70.79    4.00
   8  -8  -1    6.50    2.60
   8  -8  -1    4.10    1.60
   7  -8  -1   33.30    3.20
   7  -8  -1   28.90    4.10
   6  -8  -1    3.40    1.30
   5  -8  -1   18.10    2.30
   4  -8  -1   57.29    3.80
   3  -8  -1   14.60    2.00
   2  -8  -1   10.80    1.90
   1  -8  -1    7.30    1.50
   0  -8  -1   89.79    4.70
   7  -9  -1   40.10    3.60
   6  -9  -1   23.30    2.80
   5  -9  -1   34.40    3.20
   4  -9  -1   24.60    2.80
   3  -9  -1   23.60    2.60
   2  -9  -1    7.90    1.80
   2 -10   2   26.90    3.10
   3 -10   2   28.70    3.20
   4 -10   2   15.20    2.60
   6 -10   2   24.20    3.60
  -1  -9   2   56.99    3.90
   0  -9   2   31.80    2.90
   1  -9   2   23.30    2.60
   2  -9   2   10.40    1.80
   3  -9   2   42.10    3.60
   4  -9   2   58.69    4.50
   5  -9   2    6.70    1.80
   6  -9   2    7.60    2.30
   6  -9   2   13.00    2.30
   7  -9   2   24.80    3.10
   7  -9   2   28.90    4.10
  -2  -8   2   52.19    3.30
  -1  -8   2    2.10    1.10
   0  -8   2    1.00    1.10
   1  -8   2    9.70    1.60
   2  -8   2  289.47    9.40
   3  -8   2   48.70    3.60
   4  -8   2  154.58    6.80
   5  -8   2   11.00    2.20
   6  -8   2   68.49    5.60
   6  -8   2   73.69    4.90
   7  -8   2    8.90    2.30
   7  -8   2    4.50    1.80
   7  -8   2    5.30    2.40
   8  -8   2    8.20    2.10
  -3  -7   2    8.80    1.50
  -2  -7   2   41.40    2.70
  -1  -7   2   33.20    2.50
   0  -7   2   91.89    4.30
   1  -7   2   15.30    1.90
   1  -7   2   15.80    2.00
   2  -7   2  424.66   11.60
   3  -7   2  156.08    6.30
   4  -7   2   53.89    3.70
   5  -7   2   36.60    3.20
   6  -7   2   42.60    4.30
   6  -7   2   41.90    3.60
   6  -7   2   40.70    3.50
   7  -7   2   16.90    3.20
   7  -7   2   19.70    2.50
   7  -7   2   20.30    2.70
   8  -7   2   79.89    6.70
   8  -7   2   74.89    5.00
   4   6  -2   44.20    5.80
   3   6  -2   80.19    7.20
  -3  -6   2   73.89    3.40
   2   6  -2    4.20    2.40
  -2  -6   2    8.00    1.30
  -1  -6   2   83.79    3.70
  -1  -6   2   81.29    3.20
   0  -6   2  181.98    5.90
   1  -6   2   55.09    3.50
   1  -6   2   49.99    3.10
   2  -6   2   33.50    2.50
   2  -6   2   31.70    3.00
   3  -6   2    7.70    1.60
   4  -6   2   78.49    4.30
   5  -6   2   -4.60    1.70
   5  -6   2    1.00    1.30
   5  -6   2   -1.10    1.30
   6  -6   2  178.18    7.20
   6  -6   2  181.78    9.00
   7  -6   2   56.79    5.30
   7  -6   2   58.19    4.10
   8  -6   2   53.69    5.60
   5   5  -2  173.18   11.00
   4   5  -2   11.40    2.90
  -4  -5   2   10.00    1.30
   3   5  -2   46.10    3.60
   3   5  -2   51.49    5.10
  -3  -5   2   55.89    2.60
   2   5  -2  196.78    9.40
  -2  -5   2  165.88    5.00
   1   5  -2  143.29    7.50
   1   5  -2  150.08    5.20
  -1  -5   2  143.59    4.70
  -1  -5   2  142.39    4.20
   0  -5   2   22.00    2.30
   0  -5   2   20.10    1.80
   0  -5   2   19.50    2.60
   1  -5   2   37.40    2.90
   1  -5   2   40.40    2.50
   2  -5   2   26.10    2.60
   2  -5   2   32.00    2.30
  -3   5  -2  219.18    9.30
   3  -5   2  198.38    6.50
   3  -5   2  198.28    7.80
  -4   5  -2  259.47   10.50
   4  -5   2  253.77    8.80
   4  -5   2  246.08    9.30
  -5   5  -2  389.76   13.70
   5  -5   2  369.06   12.90
   5  -5   2  372.56   10.80
  -6   5  -2  152.78    7.80
   6  -5   2  150.48    8.10
   6  -5   2  150.58    6.30
  -7   5  -2   17.30    2.80
   7  -5   2   21.00    2.50
   7  -5   2   16.80    3.00
   8  -5   2    2.20    1.90
   8  -5   2    6.10    1.70
   5   4  -2   13.70    3.00
   4   4  -2   25.20    3.60
  -4  -4   2   24.00    1.60
   3   4  -2    1.40    1.60
   3   4  -2    1.80    1.10
  -3  -4   2    1.30    0.70
  -3  -4   2    2.70    1.30
   2   4  -2  142.99    7.10
   2   4  -2  152.38    5.70
  -2  -4   2  137.89    4.10
  -2  -4   2  141.29    6.90
   1   4  -2  426.76   13.00
  -1  -4   2  403.66   13.10
  -1  -4   2  396.66    8.90
  -1  -4   2  407.36   11.20
  -1  -4   2  384.56    9.00
   0  -4   2   72.89    2.60
   0  -4   2   76.69    3.70
   0  -4   2   81.69    3.00
   0  -4   2   86.49    4.70
   1  -4   2  107.39    4.50
   1  -4   2  108.89    3.90
  -2   4  -2  207.78    8.30
  -3   4  -2   11.80    1.90
   3  -4   2   15.00    1.90
  -4   4  -2   25.60    2.60
   4  -4   2   23.30    2.10
   4  -4   2   29.90    2.90
   4  -4   2   30.50    2.20
  -5   4  -2  462.15   14.30
   5  -4   2  453.45   12.30
   5  -4   2  464.85   14.90
   5  -4   2  470.55   12.50
  -6   4  -2    1.90    1.10
   6  -4   2    3.90    1.20
   6  -4   2   -0.20    1.30
  -7   4  -2    7.10    1.80
   7  -4   2    6.10    2.30
   7  -4   2    7.20    1.70
   8  -4   2   71.79    5.10
   6   3  -2    4.40    2.00
   5   3  -2    2.90    1.80
   4   3  -2  394.36   13.40
   4   3  -2  381.66    8.80
  -4  -3   2  423.76    9.00
  -4  -3   2  410.06   13.40
   3   3  -2  319.57    7.50
   3   3  -2  331.27   11.10
  -3  -3   2  319.07   10.90
  -3  -3   2  320.67    6.90
   2   3  -2  130.09    3.80
  -2  -3   2  129.39    5.30
  -2  -3   2  125.09    3.40
  -2  -3   2  123.89    5.70
   1   3  -2 1110.79   19.80
   1   3  -2 1012.80   23.40
  -1  -3   2 1219.58   22.80
  -1  -3   2 1215.18   26.70
  -1  -3   2 1221.28   28.90
   0   3  -2  321.77    9.00
   0  -3   2  323.17    8.40
   0  -3   2  317.97    7.30
   0  -3   2  311.07    9.40
  -1   3  -2   35.70    2.80
   1  -3   2   35.80    2.00
   1  -3   2   34.90    1.90
  -2   3  -2  148.09    5.90
   2  -3   2  153.98    5.50
  -3   3  -2   60.99    3.60
   3  -3   2   65.39    3.90
   3  -3   2   66.39    3.10
   3  -3   2   65.39    2.70
  -4   3  -2  145.29    6.00
   4  -3   2  138.19    4.90
   4  -3   2  143.49    6.50
  -5   3  -2   95.39    4.90
   5  -3   2   91.49    4.20
   5  -3   2   80.99    5.40
  -6   3  -2   86.09    4.90
   6  -3   2   84.19    4.50
   6  -3   2   83.69    5.90
  -7   3  -2   42.50    3.60
   7  -3   2   40.00    3.60
   8  -3   2   49.60    4.40
   7   2  -2    8.60    2.70
   6   2  -2    9.20    2.40
   5   2  -2   21.30    3.10
   4   2  -2  335.27    7.40
   4   2  -2  344.37   11.50
  -4  -2   2  327.27   10.00
   3   2  -2  178.08    4.20
   3   2  -2  178.08    6.00
  -3  -2   2  178.98    6.80
  -3  -2   2  181.88    4.00
  -3  -2   2  177.28    6.40
   2   2  -2 1028.60   22.20
   2   2  -2 1016.30   18.70
  -2  -2   2 1062.69   23.40
  -2  -2   2 1010.70   18.20
  -2  -2   2 1042.90   24.70
   1   2  -2  381.26    8.30
  -1  -2   2  412.36   10.80
  -1  -2   2  431.76   10.40
  -1  -2   2  411.76    8.20
   0   2  -2  585.64   13.00
   0   2  -2  592.34   14.50
   0  -2   2  597.34   13.00
  -1   2  -2 3201.18   66.39
  -1   2  -2 3332.07   69.89
   1  -2   2 3449.85   69.99
   1  -2   2 3391.76   67.59
  -2   2  -2   23.30    1.80
  -2   2  -2   26.80    2.10
   2  -2   2   25.10    1.20
   2  -2   2   25.40    2.00
  -3   2  -2   86.79    3.60
  -3   2  -2   79.09    3.10
   3  -2   2   81.29    3.20
   3  -2   2   87.29    3.20
  -4   2  -2   73.29    3.60
  -4   2  -2   69.69    3.40
   4  -2   2   65.39    3.20
  -5   2  -2    6.00    1.30
  -5   2  -2    7.90    1.40
   5  -2   2    7.50    1.50
  -6   2  -2  131.19    5.80
   6  -2   2  112.99    5.70
   7  -2   2   16.00    2.60
   8  -2   2   14.50    2.60
   7   1  -2   33.60    4.20
   6   1  -2  104.99    6.20
   6   1  -2  110.49    6.70
   5   1  -2   14.30    0.90
   5   1  -2   19.10    2.60
   5   1  -2   17.50    2.30
  -5  -1   2   14.30    0.80
   4   1  -2   80.69    2.10
   4   1  -2   75.39    4.40
  -4  -1   2   79.99    3.00
   3   1  -2  288.37    5.70
   3   1  -2  307.37    8.60
  -3  -1   2  299.57    7.60
  -3  -1   2  302.17    8.80
  -2  -1   2   44.30    2.40
  -2  -1   2   43.30    1.80
   1   1  -2  155.08    4.50
  -1  -1   2  150.58    4.00
  -1  -1   2  142.59    4.20
   0   1  -2 1198.78   25.90
   0  -1   2 1298.97   29.10
   0  -1   2 1201.58   24.50
  -1   1  -2 9999.00  206.68
  -2   1  -2  484.15   11.10
  -2   1  -2  484.65   11.50
  -2   1  -2  486.75   12.50
   2  -1   2  500.65   11.30
  -3   1  -2  254.87    7.20
  -3   1  -2  253.87    8.60
  -3   1  -2  249.18    7.10
   3  -1   2  260.67    7.40
  -4   1  -2   24.30    2.10
  -4   1  -2   23.60    2.00
   4  -1   2   22.30    2.10
   4  -1   2   26.60    1.80
  -5   1  -2  148.79    5.60
   5  -1   2  144.39    6.40
  -6   1  -2   70.79    4.00
   6  -1   2   62.79    4.60
   7  -1   2   26.20    3.40
   8  -1   2   23.30    3.50
   7   0  -2  147.99    8.20
   7   0  -2  147.19    8.20
   6   0  -2    8.40    2.20
   6   0  -2    7.30    1.90
   5   0  -2  215.48    8.60
   5   0  -2  213.08    4.50
   5   0  -2  222.98    8.60
   4   0  -2   29.30    0.90
   4   0  -2   32.00    2.80
  -4   0   2   31.00    2.70
  -3   0   2  155.38    5.60
  -2   0   2  262.47    7.30
   1   0  -2 1583.44   27.70
  -1   0   2 1681.83   29.50
   0   0  -2  303.57    6.20
   0   0  -2  320.27    9.00
  -1   0  -2  245.08    5.50
  -1   0  -2  243.08    6.30
  -2   0  -2  162.78    5.10
  -2   0  -2  172.78    6.10
  -2   0  -2  165.58    4.40
   2   0   2  182.58    5.90
  -3   0  -2   83.19    4.40
  -3   0  -2   76.99    3.60
   3   0   2   80.29    3.90
  -4   0  -2  169.98    6.60
   4   0   2  174.78    5.20
   4   0   2  174.78    7.00
  -5   0  -2  254.37    8.10
   5   0   2  242.58    9.40
  -6   0  -2   68.39    3.90
   6   0   2   61.39    4.90
   7   0   2   24.10    3.70
   8  -1  -2   13.40    3.00
   8  -1  -2   15.40    2.80
   7  -1  -2   82.19    6.00
   7  -1  -2   81.29    5.80
   6  -1  -2  303.27   11.80
   6  -1  -2  301.87    6.40
   6  -1  -2  293.77   10.90
   6  -1  -2  295.77    6.60
   5  -1  -2   58.39    4.00
   5  -1  -2   61.09    1.90
   5  -1  -2   55.29    2.00
   4  -1  -2   38.60    2.90
   4  -1  -2   39.00    1.50
   3  -1  -2  546.75   10.40
   2  -1  -2 1532.75   27.30
  -2   1   2 1365.26   24.60
   1  -1  -2 1221.48   22.10
  -1   1   2 1268.17   23.10
   0  -1  -2    9.40    1.60
   0  -1  -2   12.20    1.00
  -1  -1  -2  486.95   10.00
  -1  -1  -2  496.15   12.60
  -2  -1  -2  190.28    5.10
  -2  -1  -2  181.98    6.30
   2   1   2  188.28    7.00
  -3  -1  -2   78.89    3.20
  -3  -1  -2   76.79    4.00
   3   1   2   77.09    4.60
   3   1   2   82.59    3.20
   4   1   2   22.30    2.80
   5   1   2   88.69    6.10
  -6  -1  -2   32.40    2.70
   6   1   2   31.30    4.10
   7   1   2   -1.70    1.90
   8  -2  -2    8.20    2.80
   8  -2  -2    6.70    2.30
   7  -2  -2    4.40    2.10
   7  -2  -2    6.70    2.00
   6  -2  -2  107.09    6.00
   6  -2  -2  107.09    3.50
   5  -2  -2   11.00    1.00
   5  -2  -2    9.60    1.90
   4  -2  -2   31.40    1.50
   4  -2  -2   31.80    2.80
   4  -2  -2   28.70    1.50
   3  -2  -2 1439.36   26.40
   2  -2  -2   49.99    2.00
  -2   2   2   40.40    1.90
   1  -2  -2   97.39    3.10
   1  -2  -2   91.99    5.00
   0  -2  -2  240.78    5.80
   0  -2  -2  227.18    8.60
  -1  -2  -2  211.68    7.60
  -1  -2  -2  218.78    5.60
  -2  -2  -2   47.10    2.40
  -2  -2  -2   45.60    3.20
   2   2   2   48.80    4.10
   2   2   2   52.59    2.60
   2   2   2   48.20    4.00
  -3  -2  -2   72.39    3.30
   3   2   2   75.59    5.20
   3   2   2   67.49    5.40
  -4  -2  -2   71.09    3.50
   4   2   2   72.59    5.60
   5   2   2   12.00    3.00
   6   2   2   10.90    2.70
   8  -3  -2   -2.50    2.00
   8  -3  -2    4.40    2.00
   7  -3  -2   17.60    1.50
   7  -3  -2   16.10    2.80
   6  -3  -2   73.09    3.00
   6  -3  -2   69.19    4.80
   5  -3  -2  105.49    3.70
   5  -3  -2  110.29    3.90
   5  -3  -2  112.79    5.70
   4  -3  -2  115.59    3.80
   4  -3  -2  106.29    4.50
   3  -3  -2  680.43   13.80
  -3   3   2  656.23   13.80
   2  -3  -2  431.36    9.50
  -2   3   2  446.86   10.30
   1  -3  -2  234.58    6.10
   1  -3  -2  233.78    9.40
   0  -3  -2  284.17    9.70
   0  -3  -2  272.37   10.10
   0  -3  -2  267.37    7.00
  -1  -3  -2   20.70    2.50
  -1  -3  -2   22.00    1.70
   1   3   2   22.70    3.10
  -2  -3  -2    9.20    1.30
   2   3   2    9.10    2.30
  -3  -3  -2   41.30    2.60
   3   3   2   40.20    4.60
   3   3   2   49.50    5.00
  -4  -3  -2   55.79    3.30
   4   3   2   55.39    5.60
   4   3   2   57.49    5.90
   5   3   2   18.30    3.80
   5   3   2   16.00    3.90
   6   3   2    3.10    2.50
   8  -4  -2   19.80    3.20
   8  -4  -2   17.80    3.50
   7  -4  -2    0.50    1.70
   7  -4  -2    0.10    0.50
   6  -4  -2  240.78    7.20
   6  -4  -2  253.77    7.00
   6  -4  -2  246.18    9.70
   5  -4  -2  126.99    5.80
   5  -4  -2  116.39    3.80
   4  -4  -2   82.09    3.40
   3  -4  -2   32.30    2.00
  -3   4   2   34.80    2.30
   2  -4  -2  139.29    4.50
  -2   4   2  149.59    5.20
   1  -4  -2   91.89    3.60
   1  -4  -2   88.19    5.80
   0  -4  -2   86.69    5.60
   0  -4  -2   85.49    3.60
  -1  -4  -2   18.70    1.70
   1   4   2   20.50    3.30
  -2  -4  -2   15.90    1.70
   2   4   2   11.70    2.80
  -3  -4  -2   53.69    3.20
   3   4   2   54.29    5.80
  -4  -4  -2   48.50    3.20
   4   4   2   46.20    5.90
   5   4   2   32.60    5.60
   8  -5  -2   17.60    3.10
   7  -5  -2   12.20    1.60
   7  -5  -2   14.90    2.70
   6  -5  -2   42.30    2.80
   6  -5  -2   42.20    4.00
   5  -5  -2   34.50    2.40
   5  -5  -2   33.00    3.00
   4  -5  -2  157.38    5.30
   3  -5  -2  172.28    5.60
   2  -5  -2  192.38    6.00
   1  -5  -2   34.80    2.40
   0  -5  -2  348.37    9.20
  -1  -5  -2   90.79    4.10
  -2  -5  -2   14.40    1.80
   2   5   2    1.00    2.00
  -3  -5  -2   44.00    3.10
   3   5   2   45.60    5.80
  -4  -5  -2   18.40    2.30
   8  -6  -2   22.90    3.50
   7  -6  -2   21.00    2.20
   7  -6  -2   17.20    3.10
   6  -6  -2    7.80    1.40
   5  -6  -2   15.50    1.80
   4  -6  -2   90.79    4.20
   3  -6  -2   44.10    2.90
   2  -6  -2  196.38    6.60
   1  -6  -2    2.40    1.00
   0  -6  -2   73.49    3.80
  -1  -6  -2   -0.10    0.90
  -2  -6  -2   51.79    3.40
  -3  -6  -2   13.50    1.80
   8  -7  -2   28.10    4.20
   7  -7  -2   33.40    4.20
   7  -7  -2   28.40    2.70
   6  -7  -2    6.80    1.40
   5  -7  -2   13.90    1.80
   4  -7  -2   -0.60    0.90
   3  -7  -2   26.20    2.50
   2  -7  -2   17.40    2.00
   1  -7  -2    3.50    1.20
   0  -7  -2   13.00    1.80
  -1  -7  -2   14.30    2.00
   7  -8  -2   53.69    5.40
   7  -8  -2   58.59    4.00
   6  -8  -2    7.90    1.50
   5  -8  -2   22.40    2.50
   4  -8  -2   11.80    1.90
   3  -8  -2   11.10    2.00
   2  -8  -2   34.90    2.90
   1  -8  -2    5.70    1.50
   5  -9  -2   45.60    3.60
   1 -10   3   33.70    3.20
   2 -10   3   48.60    3.90
   3 -10   3   15.00    2.40
   4 -10   3   14.90    2.50
   5 -10   3   29.70    3.40
   6 -10   3   13.70    2.80
  -1  -9   3   40.10    3.20
   0  -9   3   35.60    3.00
   1  -9   3    0.00    1.10
   2  -9   3    3.70    1.50
   3  -9   3   65.69    4.50
   4  -9   3   55.89    4.30
   4  -9   3   53.99    4.20
   5  -9   3   43.60    4.10
   5  -9   3   48.30    4.00
   6  -9   3   56.09    4.40
   6  -9   3   40.10    4.30
   7  -9   3   21.40    3.40
   7  -9   3   32.60    3.50
  -2  -8   3   17.60    1.90
  -1  -8   3    1.70    1.20
   0  -8   3   22.30    2.30
   1  -8   3   30.60    2.80
   2  -8   3   17.20    2.40
   3  -8   3   24.70    2.70
   4  -8   3   -0.10    1.20
   4  -8   3   -0.80    1.40
   5  -8   3   48.10    4.30
   5  -8   3   51.79    4.10
   6  -8   3   32.30    3.90
   6  -8   3   40.50    3.40
   6  -8   3   34.30    3.40
   7  -8   3   16.50    3.10
   7  -8   3   13.50    2.30
   8  -8   3   86.39    5.70
   3   7  -3    6.00    3.00
   2   7  -3   55.59    6.40
  -2  -7   3   70.79    3.50
  -1  -7   3   31.60    2.40
   0  -7   3   67.69    3.60
   1  -7   3  152.78    5.50
   1  -7   3  162.28    6.20
   2  -7   3   63.09    3.80
   3  -7   3   31.20    3.00
   3  -7   3   34.30    3.00
   3  -7   3   29.30    2.70
   4  -7   3   69.19    4.30
   4  -7   3   65.49    4.60
   5  -7   3   30.70    3.40
   5  -7   3   32.20    3.00
   6  -7   3    5.60    1.60
   6  -7   3    0.70    1.20
   6  -7   3   -3.30    1.90
   7  -7   3    1.30    1.50
   8  -7   3   66.29    4.80
   4   6  -3   15.90    3.80
   3   6  -3    7.40    2.70
  -3  -6   3    7.80    1.10
   2   6  -3   44.00    4.80
  -2  -6   3   50.39    2.70
   1   6  -3  134.19    7.90
  -1  -6   3  144.09    5.00
   0  -6   3  270.77    7.80
   1  -6   3  198.58    6.70
   1  -6   3  217.08    6.00
   1  -6   3  205.98    7.60
   2  -6   3   94.59    4.40
   2  -6   3   92.99    4.20
   2  -6   3   97.89    4.90
  -3   6  -3    2.50    1.80
   3  -6   3    3.50    1.40
   3  -6   3    5.70    1.50
   3  -6   3    5.10    1.40
  -4   6  -3   70.39    5.60
   4  -6   3   64.39    4.40
  -5   6  -3    8.20    2.40
   5  -6   3    5.70    2.00
   5  -6   3    7.60    1.50
  -6   6  -3   71.79    5.90
   6  -6   3   79.39    5.80
   6  -6   3   82.99    4.20
  -7   6  -3    6.60    2.30
   7  -6   3    7.60    2.20
   5   5  -3   10.70    3.30
   4   5  -3    8.20    2.90
   3   5  -3   18.20    3.30
   3   5  -3   15.40    1.60
  -3  -5   3   16.90    1.40
   2   5  -3   60.49    5.00
  -2  -5   3   55.99    2.60
   1   5  -3   64.49    4.60
  -1  -5   3   59.19    2.70
   0   5  -3   90.09    5.30
   0  -5   3   76.09    3.40
   0  -5   3   84.59    5.00
   0  -5   3   83.59    4.20
   1  -5   3   78.29    3.80
   1  -5   3   77.09    4.70
   1  -5   3   78.79    3.60
   1  -5   3   83.19    3.10
  -2   5  -3   57.29    4.60
   2  -5   3   49.90    3.00
   2  -5   3   56.99    3.10
  -3   5  -3    6.10    1.90
   3  -5   3    5.70    1.40
  -4   5  -3   11.50    2.30
   4  -5   3    9.70    1.90
   4  -5   3    8.40    1.30
  -5   5  -3  130.89    7.00
   5  -5   3  136.09    5.00
   5  -5   3  131.69    7.00
  -6   5  -3   29.10    3.40
   6  -5   3   27.30    3.40
   6  -5   3   29.70    2.40
  -7   5  -3    8.10    2.30
   7  -5   3    6.80    1.50
   7  -5   3    7.80    2.40
   5   4  -3    6.20    2.40
   4   4  -3    9.70    2.20
  -4  -4   3   16.30    1.20
   3   4  -3   24.90    3.00
  -3  -4   3   25.40    2.80
  -3  -4   3   23.00    1.40
   2   4  -3   98.19    3.40
   2   4  -3  109.49    5.60
  -2  -4   3  113.79    5.70
  -2  -4   3  111.79    3.50
   1   4  -3  248.88    8.80
  -1  -4   3  244.98    6.30
  -1  -4   3  241.88    8.70
  -1  -4   3  238.68    7.60
   0   4  -3  115.59    5.10
   0  -4   3  118.89    5.50
   0  -4   3  115.59    4.40
   0  -4   3  120.99    4.10
  -1   4  -3  127.29    6.10
   1  -4   3  130.89    4.10
   1  -4   3  132.59    4.40
  -2   4  -3   14.70    2.20
   2  -4   3   21.60    1.60
   2  -4   3   17.10    1.70
  -3   4  -3   62.49    4.20
   3  -4   3   56.89    2.40
   3  -4   3   59.79    3.40
   3  -4   3   63.79    3.80
  -4   4  -3   14.60    2.20
   4  -4   3   17.10    1.50
   4  -4   3   18.60    2.40
   4  -4   3   18.90    2.00
  -5   4  -3   35.40    3.40
   5  -4   3   35.20    3.60
   5  -4   3   40.10    2.50
  -6   4  -3   24.80    2.90
   6  -4   3   28.30    2.40
   6  -4   3   26.00    3.50
  -7   4  -3   37.30    3.80
   7  -4   3   31.70    2.90
   6   3  -3   41.90    4.80
   5   3  -3   35.80    4.00
   4   3  -3   97.39    6.00
  -4  -3   3   94.39    2.60
  -4  -3   3   89.99    4.50
   3   3  -3   91.59    5.10
  -3  -3   3   88.39    4.50
  -3  -3   3   89.79    2.50
   2   3  -3   45.40    3.20
  -2  -3   3   45.60    3.00
  -2  -3   3   51.29    1.80
  -2  -3   3   46.10    3.00
   1   3  -3  546.45   13.80
  -1  -3   3  523.15   10.70
  -1  -3   3  529.05   14.10
  -1  -3   3  536.05   13.10
   0   3  -3   47.20    2.40
   0   3  -3   45.00    3.20
   0  -3   3   47.90    2.80
   0  -3   3   42.70    1.80
   0  -3   3   49.20    2.20
  -1   3  -3   13.80    1.30
  -1   3  -3   14.30    1.90
   1  -3   3   19.30    1.10
  -2   3  -3 1090.49   25.50
  -2   3  -3 1044.60   24.70
   2  -3   3  970.90   19.80
  -3   3  -3  133.19    5.70
   3  -3   3  143.49    6.10
   3  -3   3  133.99    3.80
  -4   3  -3   57.89    3.70
   4  -3   3   58.09    2.70
   4  -3   3   58.79    4.20
  -5   3  -3   49.70    3.70
   5  -3   3   53.79    3.10
  -6   3  -3   32.50    3.20
   6  -3   3   34.80    2.90
  -7   3  -3   27.30    3.10
   7  -3   3   20.80    2.70
   7   2  -3    7.60    2.70
   6   2  -3   36.20    4.20
   5   2  -3   26.60    2.70
   5   2  -3   27.80    3.30
   4   2  -3  104.09    5.60
  -4  -2   3  101.39    3.80
   3   2  -3   84.19    3.70
  -3  -2   3   78.19    3.20
  -3  -2   3   76.89    1.80
  -3  -2   3   81.09    4.20
  -2  -2   3  506.15   12.50
  -2  -2   3  475.05    8.90
  -2  -2   3  476.45   12.00
   1   2  -3  107.89    3.90
   1   2  -3  111.59    4.40
   1   2  -3  105.89    3.60
  -1  -2   3  105.19    3.80
  -1  -2   3  104.69    3.80
   0   2  -3  137.89    5.00
   0   2  -3  145.29    4.00
   0  -2   3  132.59    3.60
   0  -2   3  131.19    4.40
   0  -2   3  134.89    4.70
  -1   2  -3  374.16    9.90
  -1   2  -3  397.16   10.20
  -2   2  -3 2529.05   54.29
  -2   2  -3 2583.74   55.59
   2  -2   3 2544.65   50.79
  -3   2  -3   97.79    4.90
  -3   2  -3   95.19    4.10
  -3   2  -3   86.59    3.10
   3  -2   3   98.69    3.40
  -4   2  -3   10.80    1.70
  -4   2  -3   12.00    1.50
   4  -2   3   15.10    1.60
  -5   2  -3   60.19    3.50
  -5   2  -3   61.49    3.80
   5  -2   3   61.49    3.70
  -6   2  -3   60.69    4.00
   6  -2   3   66.79    4.40
  -7   2  -3   89.79    5.40
   7  -2   3   79.59    5.40
   7   1  -3    8.20    2.40
   7   1  -3    5.70    1.80
   6   1  -3   18.80    2.90
   6   1  -3   14.40    2.40
   5   1  -3   17.30    2.60
   5   1  -3   21.10    2.50
   4   1  -3   58.09    3.90
  -3  -1   3   26.10    1.00
  -3  -1   3   30.90    2.50
   2   1  -3  268.17    7.10
  -2  -1   3  254.07    7.30
  -2  -1   3  248.18    6.00
   1   1  -3  815.02   18.60
   1   1  -3  828.32   19.80
   1   1  -3  830.02   18.30
  -1  -1   3  790.62   17.20
  -1  -1   3  812.22   14.80
  -1  -1   3  789.22   17.40
   0   1  -3  276.47    7.30
   0   1  -3  278.57    6.50
   0  -1   3  281.77    6.10
   0  -1   3  303.17    9.20
  -1   1  -3  118.79    3.30
  -1   1  -3  126.69    4.10
  -2   1  -3   66.99    3.60
  -2   1  -3   63.29    2.40
  -2   1  -3   62.49    2.90
   2  -1   3   70.49    2.90
  -3   1  -3  140.39    4.70
  -3   1  -3  141.09    5.10
  -3   1  -3  141.99    6.20
   3  -1   3  147.49    5.30
   3  -1   3  149.39    4.60
  -4   1  -3   15.40    1.70
  -4   1  -3   17.20    1.90
   4  -1   3   17.80    2.00
  -5   1  -3    8.70    1.70
   5  -1   3   11.70    2.00
  -6   1  -3   71.39    4.40
   6  -1   3   70.09    5.10
   7  -1   3  131.39    7.90
   8   0  -3   12.80    3.00
   7   0  -3   74.19    5.80
   7   0  -3   77.99    5.80
   6   0  -3   21.00    2.90
   6   0  -3   18.70    2.80
   5   0  -3  324.67   11.20
   4   0  -3  100.29    5.10
  -3   0   3   56.99    3.30
   2   0  -3  159.78    3.30
   2   0  -3  162.28    4.30
  -2   0   3  163.48    3.50
   1   0  -3  102.29    2.60
   1   0  -3  102.29    4.90
  -1   0   3  108.69    2.80
   0   0  -3  245.98    5.70
   0   0  -3  275.67    8.80
   0   0   3  251.97    5.60
  -1   0  -3  113.19    3.40
  -1   0  -3  110.39    4.00
  -2   0  -3  530.95   11.10
  -2   0  -3  511.25   12.80
   2   0   3  552.14   14.40
  -3   0  -3  129.69    5.00
   3   0   3  141.69    4.50
   3   0   3  145.29    6.10
  -4   0  -3   32.00    2.60
  -4   0  -3   36.10    2.60
   4   0   3   34.90    3.30
  -5   0  -3    9.80    1.60
   5   0   3    5.10    1.70
  -6   0  -3   39.90    3.30
   6   0   3   32.70    4.00
   7   0   3   21.20    3.90
   8  -1  -3   38.80    4.50
   8  -1  -3   36.40    4.40
   7  -1  -3    2.70    1.80
   7  -1  -3   -0.20    1.60
   6  -1  -3   52.29    4.30
   5  -1  -3  135.79    2.90
   5  -1  -3  138.49    3.00
   5  -1  -3  149.69    6.70
   4  -1  -3   30.40    1.10
   4  -1  -3   28.60    2.70
   3  -1  -3  249.08    5.10
  -3   1   3  215.58    4.80
   2  -1  -3  513.35    9.90
  -2   1   3  542.55   10.80
   1  -1  -3   16.90    1.10
   1  -1  -3   17.60    2.30
  -1   1   3   15.40    1.10
   0  -1  -3  384.36   12.20
   0  -1  -3  379.06    8.20
  -1  -1  -3  150.88    5.70
  -1  -1  -3  144.09    4.30
  -2  -1  -3   80.29    4.00
  -2  -1  -3   81.69    3.30
   2   1   3   82.79    3.20
   2   1   3   80.09    5.50
  -3  -1  -3  301.47    8.10
  -3  -1  -3  298.57    9.50
   3   1   3  297.37   10.80
   4   1   3    1.80    1.50
   5   1   3   47.30    4.90
  -6  -1  -3    1.90    1.20
   6   1   3    2.40    2.00
   8  -2  -3    7.10    2.90
   8  -2  -3    4.80    2.30
   7  -2  -3    9.70    2.30
   6  -2  -3   66.69    4.80
   6  -2  -3   72.09    2.30
   5  -2  -3   47.70    1.90
   5  -2  -3   45.50    3.70
   4  -2  -3   21.60    1.60
   4  -2  -3   24.80    2.70
   4  -2  -3   21.50    1.20
   3  -2  -3  405.16    8.60
  -3   2   3  371.76    8.40
   2  -2  -3  102.99    3.20
  -2   2   3  108.39    3.60
   1  -2  -3  348.37    8.00
   1  -2  -3  348.77   12.00
  -1   2   3  373.96    8.70
   0  -2  -3  166.38    7.50
   0  -2  -3  160.88    4.70
  -1  -2  -3  263.27    9.10
  -1  -2  -3  265.47    6.80
   1   2   3  260.77   11.20
  -2  -2  -3   39.50    2.40
   2   2   3   39.40    4.30
  -3  -2  -3  185.58    6.10
   3   2   3  187.18   10.10
  -4  -2  -3    1.50    1.20
   4   2   3    2.90    2.30
   4   2   3    1.70    2.10
   5   2   3   53.29    5.90
   5   2   3   57.39    6.30
   6   2   3    7.30    3.00
   6   2   3   17.60    4.20
   8  -3  -3   17.50    3.10
   8  -3  -3   19.80    3.60
   7  -3  -3   36.60    3.90
   6  -3  -3   31.40    3.50
   6  -3  -3   34.90    1.90
   5  -3  -3  234.28    9.00
   5  -3  -3  247.28    6.20
   5  -3  -3  246.48    7.50
   4  -3  -3  133.69    4.10
   3  -3  -3   37.60    2.00
  -3   3   3   41.60    2.40
   2  -3  -3   77.69    3.00
  -2   3   3   81.89    3.50
   1  -3  -3   48.20    2.40
   1  -3  -3   43.20    4.10
  -1   3   3   46.30    2.50
   0  -3  -3    2.30    1.30
   0  -3  -3    0.50    0.80
   0  -3  -3   -0.60    1.20
  -1  -3  -3  289.27    7.70
   1   3   3  293.67   13.10
  -2  -3  -3   78.79    3.70
   2   3   3   88.29    7.00
  -3  -3  -3   62.29    3.50
   3   3   3   65.79    6.40
  -4  -3  -3   11.50    1.70
   4   3   3    9.90    3.20
   5   3   3   17.70    4.00
   8  -4  -3    3.60    2.10
   7  -4  -3   16.10    3.00
   7  -4  -3   16.20    1.50
   6  -4  -3   26.70    3.30
   6  -4  -3   34.20    2.10
   5  -4  -3  278.57    7.40
   5  -4  -3  288.07   10.50
   4  -4  -3   53.29    2.70
  -4   4   3   47.10    2.80
   3  -4  -3  227.18    6.40
   2  -4  -3  366.66    9.10
   1  -4  -3   81.59    3.50
   0  -4  -3   92.69    3.90
  -1  -4  -3  256.77    7.50
   1   4   3  250.07   12.70
  -2  -4  -3   32.90    2.50
   2   4   3   31.70    4.70
  -3  -4  -3   13.00    1.80
   3   4   3    8.10    2.80
  -4  -4  -3    8.70    1.70
   4   4   3    0.90    2.30
   8  -5  -3   18.50    3.30
   7  -5  -3    4.00    1.00
   7  -5  -3    4.70    2.10
   6  -5  -3   29.00    2.20
   6  -5  -3   36.50    4.00
   5  -5  -3    3.70    1.00
   4  -5  -3   21.70    1.90
   3  -5  -3  449.06   11.00
   2  -5  -3   -0.50    1.00
   1  -5  -3  343.37    9.30
   0  -5  -3   17.50    1.90
  -1  -5  -3  140.39    5.50
  -2  -5  -3   37.40    2.80
  -3  -5  -3    3.30    1.30
   3   5   3  -14.70    3.80
   8  -6  -3   13.90    3.20
   7  -6  -3   22.40    2.10
   7  -6  -3   25.90    3.70
   6  -6  -3   37.10    2.70
   5  -6  -3   20.00    2.00
   4  -6  -3   44.80    2.90
   3  -6  -3   48.20    3.00
   2  -6  -3  125.69    5.00
   1  -6  -3    9.90    1.60
   0  -6  -3    4.70    1.40
  -1  -6  -3   51.29    3.40
  -2  -6  -3   13.80    2.10
   7  -7  -3   19.20    3.60
   7  -7  -3   15.10    1.90
   6  -7  -3   60.79    3.70
   5  -7  -3   37.10    2.90
   4  -7  -3    7.30    1.50
   3  -7  -3   10.10    1.70
   2  -7  -3    9.40    1.70
   1  -7  -3   43.40    3.10
   0  -7  -3    6.70    1.40
   7  -8  -3   37.40    3.20
   6  -8  -3   10.90    1.80
   5  -8  -3   42.90    3.40
   4  -8  -3   64.19    4.10
   3  -8  -3   13.00    1.90
   2  -8  -3    7.40    1.60
   0 -10   4  100.99    5.40
   1 -10   4    6.10    1.60
   2 -10   4   -3.40    1.60
   3 -10   4    4.20    1.80
   4 -10   4   30.50    3.30
  -1  -9   4   14.50    2.00
   0  -9   4   16.90    2.20
   1  -9   4   20.20    2.60
   2  -9   4   35.50    3.30
   3  -9   4  276.77    9.90
   4  -9   4   13.50    2.20
   4  -9   4   14.40    2.40
   5  -9   4   15.10    2.60
   5  -9   4   10.30    2.20
   6  -9   4    4.00    1.90
   6  -9   4   -0.60    1.00
   7  -9   4   31.80    4.10
  -2  -8   4   -0.10    0.90
  -1  -8   4   15.70    1.90
   0  -8   4   15.30    2.00
   1  -8   4  129.49    5.90
   2  -8   4    4.20    1.40
   2  -8   4    3.30    0.90
   3  -8   4  227.78    8.10
   3  -8   4  216.98    8.40
   4  -8   4  156.18    7.10
   4  -8   4  159.98    7.30
   5  -8   4   43.30    4.10
   5  -8   4   48.10    4.00
   6  -8   4    9.00    2.40
   6  -8   4    9.10    2.00
   7  -8   4   27.70    3.20
   7  -8   4   33.00    4.10
   3   7  -4   14.90    3.90
   2   7  -4   31.40    4.80
  -2  -7   4   38.80    2.50
   1   7  -4    9.50    2.90
  -1  -7   4   12.90    1.60
   0  -7   4   46.00    3.10
   1  -7   4  191.58    5.20
   2  -7   4    6.60    1.60
   2  -7   4    5.70    1.30
   2  -7   4    7.80    1.20
   3  -7   4  128.39    5.80
   3  -7   4  129.09    5.90
   3  -7   4  129.49    5.90
  -4   7  -4    6.60    2.60
   4  -7   4   11.30    1.80
   4  -7   4   11.00    2.10
  -5   7  -4   73.59    6.40
   5  -7   4   69.99    3.60
   5  -7   4   71.29    5.10
  -6   7  -4   11.10    2.80
   6  -7   4   14.00    2.70
  -7   7  -4  127.19    8.90
   7  -7   4  122.59    8.00
   4   6  -4   87.59    7.60
   3   6  -4   46.80    5.10
  -3  -6   4   47.00    2.40
   2   6  -4   33.10    4.10
  -2  -6   4   38.10    2.30
   1   6  -4   96.89    6.40
  -1  -6   4  105.69    4.20
   0  -6   4  238.28    7.20
   1  -6   4  101.39    4.70
   1  -6   4   91.69    4.30
  -2   6  -4   52.59    4.90
   2  -6   4   57.79    3.10
   2  -6   4   54.59    3.10
   2  -6   4   55.39    3.30
  -3   6  -4    1.50    1.70
   3  -6   4    3.60    1.00
   3  -6   4    2.10    1.20
  -4   6  -4   87.19    6.30
   4  -6   4   82.69    5.10
   4  -6   4   83.19    3.50
  -5   6  -4   48.40    4.70
   5  -6   4   49.60    2.60
   5  -6   4   41.90    4.10
  -6   6  -4   78.89    6.20
   6  -6   4   67.99    5.60
  -7   6  -4   32.90    4.30
   5   5  -4   50.29    5.70
   4   5  -4    6.10    2.20
   3   5  -4   51.49    4.70
  -3  -5   4   55.89    2.30
   2   5  -4    7.90    2.10
  -2  -5   4    4.10    0.80
   1   5  -4  102.59    5.70
  -1  -5   4   93.59    3.60
   0  -5   4  242.08    7.60
   0  -5   4  235.38    6.90
  -1   5  -4   45.60    4.20
   1  -5   4   43.70    2.50
  -2   5  -4   70.89    5.00
   2  -5   4   64.99    2.80
  -3   5  -4   75.49    5.20
   3  -5   4   83.19    3.40
   3  -5   4   87.49    4.60
  -4   5  -4   68.39    5.00
   4  -5   4   63.19    4.40
   4  -5   4   61.29    2.40
  -5   5  -4   55.79    4.70
   5  -5   4   53.69    2.60
   5  -5   4   49.90    4.40
  -6   5  -4   68.79    5.40
   6  -5   4   51.49    2.90
  -7   5  -4    9.90    2.50
   5   4  -4   21.70    3.50
   4   4  -4    1.00    1.60
  -4  -4   4    0.20    0.40
   3   4  -4  468.75   14.90
  -3  -4   4  473.15    9.40
  -3  -4   4  470.35   14.20
   2   4  -4  529.35   15.20
  -2  -4   4  517.15   10.60
  -2  -4   4  522.95   15.00
  -1  -4   4   16.20    1.40
  -1  -4   4   14.00    1.60
  -1  -4   4   17.40    2.00
   0   4  -4  410.76   11.20
   0   4  -4  406.36   13.00
   0  -4   4  379.76   10.00
   0  -4   4  392.06   11.50
  -1   4  -4  106.69    5.60
   1  -4   4   97.89    3.20
  -2   4  -4    1.10    1.50
   2  -4   4    2.60    0.40
  -3   4  -4   92.19    5.30
   3  -4   4   70.99    2.00
  -4   4  -4  195.68    8.20
   4  -4   4  190.78    5.20
  -5   4  -4    6.90    1.90
   5  -4   4    4.20    0.90
  -6   4  -4   25.50    3.20
   6  -4   4   31.40    2.60
  -7   4  -4   46.40    4.40
   6   3  -4    6.40    2.30
   5   3  -4    4.10    1.80
   4   3  -4   12.40    2.30
  -4  -3   4   11.40    1.30
   3   3  -4  108.09    5.60
   3   3  -4  107.79    4.00
  -3  -3   4  107.29    2.50
  -3  -3   4  106.99    4.50
   2   3  -4  213.78    5.70
   2   3  -4  228.78    7.70
  -2  -3   4  226.28    5.20
  -2  -3   4  222.68    7.20
  -2  -3   4  230.78    7.50
   1   3  -4  435.96   11.40
   1   3  -4  430.06   12.80
  -1  -3   4  411.76   10.60
  -1  -3   4  407.16   11.20
   0   3  -4  164.88    6.60
   0   3  -4  171.38    5.10
   0  -3   4  170.58    5.70
   0  -3   4  168.18    4.90
   0  -3   4  168.28    5.70
  -1   3  -4  385.46   11.40
  -1   3  -4  377.66   10.00
   1  -3   4  333.17    7.20
  -2   3  -4  924.71   22.70
  -2   3  -4  888.31   21.80
  -3   3  -4  436.76   13.00
  -3   3  -4  452.45   13.50
   3  -3   4  437.66   11.20
   3  -3   4  426.86    9.50
  -4   3  -4   21.00    2.40
   4  -3   4   17.40    1.40
  -5   3  -4   40.90    3.50
   5  -3   4   44.10    2.80
  -6   3  -4   27.10    3.10
   6  -3   4   24.70    2.50
  -7   3  -4   26.70    3.30
   7   2  -4    8.40    2.70
   6   2  -4   14.60    2.40
   6   2  -4   15.90    2.90
   5   2  -4   72.69    4.30
   5   2  -4   63.19    4.90
   4   2  -4  129.69    6.30
  -4  -2   4  115.19    3.30
   3   2  -4   48.70    3.40
  -3  -2   4   43.00    2.00
   2   2  -4  170.78    6.00
  -2  -2   4  156.28    4.90
  -2  -2   4  167.38    5.80
  -2  -2   4  172.28    3.80
   1   2  -4   35.40    2.40
   1   2  -4   37.90    2.50
   1   2  -4   36.20    2.10
  -1  -2   4   36.60    2.10
  -1  -2   4   35.60    2.00
   0   2  -4    7.30    0.80
   0   2  -4    6.20    1.30
   0  -2   4    3.30    1.10
   0  -2   4    6.80    1.00
  -1   2  -4  152.88    5.60
  -2   2  -4 2069.99   45.40
  -2   2  -4 2026.70   45.00
  -3   2  -4   76.69    4.00
  -3   2  -4   73.09    2.70
   3  -2   4   91.59    3.50
  -4   2  -4  114.39    5.30
  -4   2  -4  103.19    4.00
   4  -2   4  119.29    4.90
  -5   2  -4   62.19    3.50
  -5   2  -4   76.39    4.50
   5  -2   4   82.09    4.60
  -6   2  -4   33.90    3.20
   6  -2   4   43.50    3.80
  -7   2  -4    5.80    1.90
   7   1  -4   13.10    2.90
   7   1  -4   12.00    2.40
   6   1  -4   30.10    3.50
   6   1  -4   39.40    4.00
   5   1  -4   49.80    3.90
   5   1  -4   46.70    4.00
   4   1  -4  599.04   16.70
   3   1  -4  177.38    5.40
   3   1  -4  180.38    6.70
  -3  -1   4  173.28    6.50
   2   1  -4  231.08    6.60
  -2  -1   4  224.58    7.00
  -2  -1   4  220.78    4.50
   1   1  -4  581.94   13.50
   1   1  -4  580.14   14.20
   1   1  -4  578.94   15.80
  -1  -1   4  579.64   11.10
   0   1  -4  182.28    5.70
   0  -1   4  199.38    7.70
   0  -1   4  188.08    4.80
  -1   1  -4   80.49    3.40
  -1   1  -4   78.59    2.90
   1  -1   4   78.39    4.70
  -2   1  -4   25.00    2.10
  -2   1  -4   21.90    1.40
  -3   1  -4  117.19    4.80
  -3   1  -4  109.19    4.20
   3  -1   4  128.39    5.40
  -4   1  -4  153.38    6.10
  -4   1  -4  150.38    5.70
   4  -1   4  171.38    7.10
  -5   1  -4   42.00    3.30
   5  -1   4   35.80    3.50
  -6   1  -4   86.09    5.20
   6  -1   4   93.39    6.20
   8   0  -4    2.30    2.10
   7   0  -4   73.49    5.90
   7   0  -4   71.49    5.70
   6   0  -4   17.30    2.80
   5   0  -4  513.55   15.40
   4   0  -4  115.29    5.60
   3   0  -4   26.80    1.40
  -3   0   4   25.20    1.00
   2   0  -4  342.57    6.90
   2   0  -4  343.27    8.60
  -2   0   4  340.67    7.00
   1   0  -4   77.49    4.60
   1   0  -4   74.49    2.40
  -1   0   4   78.59    2.50
   0   0  -4  333.27   11.10
   0   0  -4  315.17    7.30
   0   0   4  321.57    7.30
  -1   0  -4   85.29    3.20
  -1   0  -4   85.39    3.80
  -2   0  -4  199.58    5.70
  -2   0  -4  190.38    6.30
  -3   0  -4   34.50    2.50
  -4   0  -4   69.39    3.90
   4   0   4   75.69    5.20
  -5   0  -4    5.60    1.60
   5   0   4    3.40    1.80
  -6   0  -4   69.49    4.60
   6   0   4   72.89    6.20
   8  -1  -4   61.69    6.00
   7  -1  -4   -0.80    1.60
   7  -1  -4   -0.10    1.70
   6  -1  -4    3.10    1.70
   5  -1  -4   67.49    4.50
   4  -1  -4    2.30    0.40
   4  -1  -4    2.30    0.40
   4  -1  -4    0.80    1.50
   3  -1  -4   61.39    1.90
  -3   1   4   60.69    2.20
   2  -1  -4  181.68    4.40
  -2   1   4  200.18    5.10
   1  -1  -4  301.37    6.90
   1  -1  -4  320.37   11.60
  -1   1   4  329.47    7.60
   0  -1  -4   21.00    1.50
   0  -1  -4   19.70    2.60
   0   1   4   22.10    1.60
  -1  -1  -4  192.98    7.10
  -1  -1  -4  181.98    5.40
  -2  -1  -4   75.59    4.10
  -2  -1  -4   76.09    3.50
   2   1   4   91.19    6.50
  -3  -1  -4  148.99    5.40
   3   1   4  144.49    8.80
   4   1   4    7.90    2.90
  -5  -1  -4   34.20    3.10
   5   1   4   40.60    5.50
  -6  -1  -4   23.50    2.80
   6   1   4   24.60    4.90
   8  -2  -4   10.30    2.80
   8  -2  -4   12.70    2.90
   7  -2  -4    4.00    2.00
   6  -2  -4   10.00    0.70
   6  -2  -4    7.60    2.00
   5  -2  -4   98.79    2.60
   5  -2  -4  102.09    5.60
   5  -2  -4   80.49    2.30
   4  -2  -4  300.17   10.30
   4  -2  -4  321.57    7.00
  -4   2   4  288.97    7.00
   3  -2  -4  141.19    3.90
  -3   2   4  140.89    4.30
   2  -2  -4   80.29    5.70
   2  -2  -4   73.79    2.80
  -2   2   4   75.79    3.10
   1  -2  -4  307.77   12.20
   1  -2  -4  310.87    7.50
  -1   2   4  336.97    8.30
   0  -2  -4   28.90    2.00
   0   2   4   28.50    3.70
  -1  -2  -4   13.30    1.60
  -1  -2  -4   14.40    2.10
   1   2   4   14.30    3.00
  -2  -2  -4   43.50    2.80
   2   2   4   46.90    5.30
  -3  -2  -4   63.19    3.60
   3   2   4   67.09    6.40
   4   2   4   31.70    5.10
   5   2   4    4.90    3.00
   8  -3  -4   86.69    6.70
   7  -3  -4   30.20    3.70
   6  -3  -4   10.20    2.30
   6  -3  -4    8.90    0.90
   5  -3  -4  143.19    4.20
   5  -3  -4  143.29    7.00
   5  -3  -4  139.09    5.70
   4  -3  -4  353.76    8.20
  -4   3   4  337.97    8.60
   3  -3  -4   11.80    1.20
  -3   3   4   13.50    1.50
   2  -3  -4  143.29    4.60
  -2   3   4  142.69    5.10
   1  -3  -4   41.90    2.40
   0  -3  -4   87.09    3.70
  -1  -3  -4  161.08    5.60
   1   3   4  150.38    9.70
  -2  -3  -4   39.20    2.80
   2   3   4   29.30    4.50
  -3  -3  -4   37.00    2.90
   3   3   4   39.10    5.60
  -4  -3  -4   54.09    3.70
   4   3   4   54.79    6.70
   8  -4  -4   33.00    4.00
   7  -4  -4   13.10    2.80
   6  -4  -4   72.59    5.40
   6  -4  -4   68.69    3.00
   5  -4  -4    2.80    0.90
   5  -4  -4    2.80    1.10
   4  -4  -4   51.69    2.60
   3  -4  -4  173.98    5.40
   2  -4  -4  254.07    7.20
   1  -4  -4   48.90    2.80
   0  -4  -4   83.59    3.90
  -1  -4  -4   40.20    2.90
  -2  -4  -4   91.49    4.60
   2   4   4   85.99    8.10
  -3  -4  -4   17.50    2.20
   3   4   4   17.80    4.30
   4   4   4   11.40    3.50
   7  -5  -4    7.00    2.50
   6  -5  -4   21.20    3.30
   6  -5  -4   23.60    2.00
   5  -5  -4    1.40    0.90
   4  -5  -4   34.90    2.40
   3  -5  -4   99.09    4.10
   2  -5  -4    2.90    1.10
   1  -5  -4   27.80    2.30
   0  -5  -4   16.80    2.00
  -1  -5  -4   17.90    2.20
  -2  -5  -4   11.30    2.00
   7  -6  -4    4.50    2.50
   6  -6  -4   38.20    2.70
   5  -6  -4   11.30    1.60
   4  -6  -4   10.50    1.60
   3  -6  -4    4.20    1.20
   2  -6  -4    6.30    1.40
   1  -6  -4   30.20    2.60
   0  -6  -4   14.90    2.00
  -1  -6  -4   31.70    2.90
   7  -7  -4   18.10    2.10
   6  -7  -4   22.40    2.30
   5  -7  -4   30.60    2.70
   4  -7  -4   -1.20    1.20
   3  -7  -4    5.30    1.40
   2  -7  -4   18.80    2.10
   1  -7  -4   43.70    3.30
   6  -8  -4   15.00    2.20
   5  -8  -4   28.90    2.70
   4  -8  -4   50.09    3.60
   0 -10   5   14.20    2.20
   1 -10   5   10.60    1.90
   2 -10   5    3.20    1.70
   3 -10   5    3.00    1.60
   4 -10   5  110.29    6.30
  -1  -9   5   68.49    4.10
   0  -9   5   37.00    3.10
   1  -9   5    6.80    1.70
   2  -9   5   12.00    2.20
   3  -9   5    7.30    1.90
   4  -9   5   49.20    4.20
   5  -9   5    6.60    1.70
   5  -9   5    7.30    2.00
   6  -9   5   19.90    3.10
   6  -9   5   20.10    2.90
   2   8  -5   23.70    4.50
  -1  -8   5   73.59    3.90
   0  -8   5   13.10    2.00
   1  -8   5    5.90    1.60
   2  -8   5   45.80    3.60
   3  -8   5   30.80    3.00
  -4   8  -5   65.89    6.50
   4  -8   5   59.59    4.20
  -5   8  -5   29.30    4.60
   5  -8   5   21.90    2.90
  -6   8  -5   13.40    3.70
  -7   8  -5   18.50    3.90
   3   7  -5   47.70    5.80
   2   7  -5    9.30    2.70
  -2  -7   5   11.30    1.50
   1   7  -5   38.40    4.50
  -1  -7   5   42.60    2.80
   0  -7   5   26.50    2.40
   1  -7   5    9.80    1.80
  -2   7  -5   29.40    4.10
   2  -7   5   28.70    2.70
   2  -7   5   32.90    2.50
  -3   7  -5  149.29    9.20
   3  -7   5  133.89    5.10
  -4   7  -5   27.40    4.20
  -5   7  -5   45.40    5.10
  -6   7  -5   19.60    3.80
  -7   7  -5  105.19    8.20
   4   6  -5    8.90    2.80
   3   6  -5    8.80    2.70
   2   6  -5    5.60    2.00
  -2  -6   5    1.80    0.80
   1   6  -5   10.60    2.40
  -1  -6   5   10.40    1.50
   0   6  -5   17.80    2.70
   0  -6   5   16.00    1.90
   0  -6   5   18.10    1.90
  -1   6  -5  142.19    8.30
   1  -6   5  118.69    4.10
   1  -6   5  122.29    4.80
   1  -6   5  115.59    4.80
  -2   6  -5   82.99    6.20
   2  -6   5   89.89    3.60
  -3   6  -5   17.10    3.00
   3  -6   5   17.40    1.30
  -4   6  -5   10.30    2.70
   4  -6   5    5.40    0.70
   4  -6   5    7.50    0.70
  -5   6  -5   41.50    4.60
  -6   6  -5   42.00    4.70
  -7   6  -5   31.80    4.40
   5   5  -5   27.10    4.10
   4   5  -5   11.30    2.60
   3   5  -5    6.40    2.00
  -3  -5   5    3.30    0.60
   2   5  -5  208.98    8.80
  -2  -5   5  220.28    5.90
   1   5  -5   17.70    2.30
  -1  -5   5   19.90    1.70
   0   5  -5  205.98    9.40
   0  -5   5  204.98    6.80
   0  -5   5  204.58    6.30
  -1   5  -5  211.88    9.40
   1  -5   5  210.58    6.10
  -2   5  -5   60.39    4.70
   2  -5   5   51.19    1.90
  -3   5  -5   25.70    3.30
  -4   5  -5   38.00    4.00
  -5   5  -5   34.40    3.90
  -6   5  -5   -0.90    1.50
  -7   5  -5   10.60    2.80
   5   4  -5   27.70    3.90
   4   4  -5   26.70    3.20
   3   4  -5   44.30    3.80
   3   4  -5   45.10    2.40
  -3  -4   5   54.19    3.40
  -3  -4   5   54.79    1.80
   2   4  -5   91.39    5.00
  -2  -4   5   93.29    4.50
  -2  -4   5   91.59    3.10
   1   4  -5    7.00    1.60
  -1  -4   5    6.80    1.10
  -1  -4   5   12.30    1.70
  -1  -4   5    7.20    1.30
   0   4  -5  250.77    9.50
   0   4  -5  243.48    7.30
   0   4  -5  237.28    6.40
   0  -4   5  253.87    8.20
   0  -4   5  241.98    7.00
  -1   4  -5   44.70    2.70
  -1   4  -5   43.10    3.70
   1  -4   5   43.60    1.80
   1  -4   5   48.40    3.10
  -2   4  -5   43.20    3.60
  -2   4  -5   48.30    3.20
  -3   4  -5  306.17   11.10
  -4   4  -5   82.09    5.30
  -5   4  -5    6.60    2.10
   5  -4   5    7.60    1.10
  -6   4  -5   45.30    4.40
  -7   4  -5   26.40    3.50
   6   3  -5   21.80    3.80
   5   3  -5   18.90    3.00
   5   3  -5   20.60    2.30
   4   3  -5    4.00    1.70
  -4  -3   5    4.60    0.90
   3   3  -5  148.99    6.70
  -3  -3   5  125.49    2.60
  -3  -3   5  121.79    2.70
  -3  -3   5  129.29    4.50
   2   3  -5   23.30    2.20
   2   3  -5   19.70    2.30
   2   3  -5   19.70    1.90
  -2  -3   5   17.80    1.70
  -2  -3   5   21.40    2.20
  -2  -3   5   19.90    1.20
   1   3  -5  331.67    9.20
   1   3  -5  333.37   10.80
  -1  -3   5  317.27    9.00
  -1  -3   5  313.17    8.70
   0   3  -5    7.20    1.00
   0   3  -5    8.20    1.60
   0  -3   5    9.40    1.60
   0  -3   5    7.40    1.00
   0  -3   5    8.60    1.30
  -1   3  -5   97.49    5.00
   1  -3   5   88.29    3.90
   1  -3   5   86.99    4.80
  -2   3  -5  185.98    7.20
  -2   3  -5  176.58    7.10
  -3   3  -5  626.44   17.30
  -4   3  -5   28.60    2.90
  -5   3  -5   39.80    3.70
   5  -3   5   38.50    2.80
  -6   3  -5    9.90    2.30
  -7   3  -5   46.70    4.70
   6   2  -5   20.50    2.70
   6   2  -5   21.90    3.40
   5   2  -5   34.10    3.10
   5   2  -5   31.10    3.50
   4   2  -5   58.89    4.30
   3   2  -5  159.38    6.10
   3   2  -5  163.58    6.60
  -3  -2   5  141.59    4.20
   2   2  -5   27.60    2.30
   2   2  -5   30.40    2.80
  -2  -2   5   29.30    1.20
  -2  -2   5   27.70    1.70
  -2  -2   5   28.60    2.30
   1   2  -5  357.16   10.40
   1   2  -5  349.07   10.90
   1   2  -5  352.86    9.30
  -1  -2   5  330.47    8.50
  -1  -2   5  328.87    7.30
   0   2  -5   92.79    4.30
   0   2  -5   93.79    3.10
   0  -2   5   95.59    3.20
   0  -2   5  107.69    5.50
  -1   2  -5    1.20    0.30
  -1   2  -5    1.00    0.30
  -1   2  -5    1.90    1.10
   1  -2   5    1.70    0.80
   1  -2   5    2.00    1.20
  -2   2  -5   94.99    4.40
  -2   2  -5   79.19    2.20
  -3   2  -5   20.90    1.30
  -3   2  -5   17.30    2.20
  -4   2  -5   50.49    2.60
  -4   2  -5   55.09    3.80
  -5   2  -5   53.29    4.10
   5  -2   5   69.09    4.60
  -6   2  -5   10.00    2.20
  -7   2  -5    8.90    2.50
   7   1  -5   20.10    3.00
   7   1  -5   31.90    4.00
   6   1  -5    8.20    2.10
   6   1  -5    7.30    2.30
   5   1  -5    4.10    1.70
   4   1  -5  644.94   17.70
   3   1  -5   59.59    2.90
   3   1  -5   54.89    3.60
   2   1  -5   74.29    3.30
   2   1  -5   71.69    4.70
  -2  -1   5   70.89    2.10
   1   1  -5  170.08    7.30
   1   1  -5  172.78    5.60
   1   1  -5  176.28    5.80
  -1  -1   5  167.38    4.30
   0   1  -5    2.40    1.00
   0  -1   5    1.10    1.50
   0  -1   5    2.20    0.70
  -1   1  -5  115.79    4.20
  -1   1  -5  121.99    4.70
   1  -1   5  125.79    6.90
   1  -1   5  127.19    4.20
  -2   1  -5    8.20    1.00
  -2   1  -5    8.90    1.60
   2  -1   5    3.40    1.60
  -3   1  -5  312.57    9.50
  -3   1  -5  286.37    8.30
  -4   1  -5    3.20    1.40
  -4   1  -5    2.80    1.10
  -5   1  -5    5.90    1.80
  -6   1  -5   21.00    2.80
   8   0  -5   47.00    5.20
   7   0  -5   16.80    3.10
   7   0  -5   16.30    3.00
   6   0  -5   22.30    3.10
   5   0  -5   32.60    3.50
   4   0  -5  123.69    5.90
   4   0  -5  115.69    3.60
   3   0  -5  137.79    4.50
   3   0  -5  149.19    6.10
  -3   0   5  149.99    3.70
   2   0  -5  156.78    5.10
   2   0  -5  165.68    7.90
   2   0  -5  156.58    4.10
  -2   0   5  156.88    4.10
   1   0  -5   89.39    5.50
   1   0  -5   93.69    3.10
  -1   0   5  100.49    3.30
   0   0  -5   66.09    2.80
   0   0   5   68.99    2.80
   0   0   5   69.49    5.40
  -1   0  -5   56.79    3.30
  -1   0  -5   56.59    2.90
   1   0   5   52.89    4.80
  -2   0  -5   57.39    3.20
   2   0   5   62.79    5.40
  -3   0  -5  154.58    5.90
   3   0   5  160.28    9.50
  -4   0  -5   62.99    4.10
   4   0   5   69.89    6.70
  -5   0  -5    5.00    1.70
   5   0   5    6.50    3.10
  -6   0  -5   54.09    4.40
   8  -1  -5   55.39    5.80
   7  -1  -5   17.00    3.10
   6  -1  -5   14.80    2.70
   5  -1  -5   32.00    3.30
   4  -1  -5  298.87   10.40
   4  -1  -5  310.47    7.70
   4  -1  -5  295.37    6.30
  -4   1   5  275.67    6.30
   3  -1  -5  160.38    6.70
   3  -1  -5  158.68    4.10
  -3   1   5  163.28    4.60
   2  -1  -5    9.50    1.00
   2  -1  -5   11.10    2.40
  -2   1   5   11.10    1.10
   1  -1  -5   15.50    2.60
   1  -1  -5   12.70    1.30
  -1   1   5   14.60    1.40
   0  -1  -5  264.17    7.00
   0   1   5  277.27   12.40
  -1  -1  -5   34.70    2.30
  -1  -1  -5   34.60    2.90
   1   1   5   32.00    4.10
  -2  -1  -5  248.18    8.80
  -2  -1  -5  275.57    7.90
   2   1   5  287.77   13.50
   3   1   5    4.90    2.70
   4   1   5   72.79    7.30
  -5  -1  -5    9.40    2.10
   5   1   5    6.50    3.10
   7  -2  -5   44.60    4.50
   6  -2  -5   22.90    3.10
   5  -2  -5   62.19    2.20
   5  -2  -5   63.09    2.30
   5  -2  -5   63.59    3.00
   5  -2  -5   60.19    4.50
   4  -2  -5  505.75   10.40
   4  -2  -5  510.25   15.10
  -4   2   5  499.45   11.10
   3  -2  -5  376.76    8.50
  -3   2   5  429.66   10.20
   2  -2  -5   17.70    1.40
  -2   2   5   23.70    1.80
   1  -2  -5   29.60    2.00
   0  -2  -5   27.60    2.10
  -1  -2  -5    9.10    1.50
   1   2   5   10.20    3.10
  -2  -2  -5  116.19    5.00
   2   2   5  101.39    8.20
  -3  -2  -5   36.20    3.00
   3   2   5   33.90    5.20
   4   2   5   31.90    5.50
  -5  -2  -5   20.20    2.70
   7  -3  -5   16.10    3.00
   6  -3  -5   35.90    1.80
   6  -3  -5   37.10    4.00
   5  -3  -5   74.09    5.10
   5  -3  -5   69.99    2.70
   4  -3  -5   47.70    2.30
  -4   3   5   50.99    2.90
   3  -3  -5   73.79    3.10
   2  -3  -5  225.08    6.40
   1  -3  -5  156.68    5.30
   0  -3  -5  213.38    6.70
  -1  -3  -5  123.19    5.10
   1   3   5   95.69    8.20
  -2  -3  -5   62.89    3.80
   2   3   5   58.69    6.90
  -3  -3  -5   39.70    3.20
   3   3   5   45.40    6.50
   4   3   5   -2.30    2.90
   7  -4  -5    2.20    2.00
   6  -4  -5   43.70    2.40
   6  -4  -5   49.70    4.70
   5  -4  -5    0.90    0.60
   4  -4  -5   11.00    1.40
   3  -4  -5    9.30    1.30
   2  -4  -5  223.88    6.80
   1  -4  -5   51.59    3.10
   0  -4  -5  288.37    8.60
  -1  -4  -5   37.50    2.90
  -2  -4  -5   42.80    3.30
   2   4   5   36.20    5.80
   3   4   5   34.10    6.20
   7  -5  -5   16.40    3.40
   6  -5  -5   43.10    2.60
   6  -5  -5   51.39    4.90
   5  -5  -5   42.30    2.60
   4  -5  -5   41.50    2.70
   3  -5  -5   42.50    2.80
   2  -5  -5   57.19    3.30
   1  -5  -5   71.99    3.90
   0  -5  -5   30.80    2.70
  -1  -5  -5   -0.60    1.10
   6  -6  -5    3.50    1.10
   5  -6  -5   96.19    4.40
   4  -6  -5   21.10    2.20
   3  -6  -5    8.70    1.40
   2  -6  -5   36.60    2.90
   1  -6  -5   10.00    1.70
   0  -6  -5   60.29    4.00
   6  -7  -5   35.20    2.90
   5  -7  -5   38.90    3.10
   4  -7  -5    0.90    1.00
   3  -7  -5   39.30    3.10
   0 -10   6   49.40    3.70
   1 -10   6    4.10    1.60
   2 -10   6   16.30    2.50
   3 -10   6   52.29    4.30
   0  -9   6   21.20    2.50
   1  -9   6   18.60    2.40
   2  -9   6  125.99    6.40
   3  -9   6   17.70    2.50
   4  -9   6   66.49    4.80
  -5   9  -6   52.39    6.50
   5  -9   6   42.70    3.90
  -6   9  -6   71.19    7.60
   2   8  -6   39.40    5.30
  -1  -8   6   52.79    3.30
   0  -8   6   59.69    3.80
   1  -8   6   44.40    3.40
   2  -8   6  156.98    6.80
  -3   8  -6    7.40    3.10
   3  -8   6    5.90    1.60
  -4   8  -6   64.59    6.70
  -5   8  -6   -0.90    2.30
  -6   8  -6   63.19    6.80
  -7   8  -6    4.10    2.70
   3   7  -6  138.09    9.40
   2   7  -6   15.00    3.40
  -2  -7   6   22.40    1.90
   1   7  -6    2.30    1.60
  -1  -7   6    4.80    1.20
   0  -7   6  147.89    5.90
  -1   7  -6   28.80    4.30
   1  -7   6   31.30    2.70
  -2   7  -6    1.30    2.10
  -3   7  -6   81.79    6.80
  -4   7  -6    5.50    2.10
  -5   7  -6   26.60    4.10
  -6   7  -6   55.69    6.00
  -7   7  -6   26.50    4.50
   4   6  -6   16.20    3.40
   3   6  -6   23.70    3.50
   2   6  -6   36.30    3.90
  -2  -6   6   42.40    2.40
   1   6  -6  120.49    6.70
  -1  -6   6  114.69    4.60
   0   6  -6   68.69    4.50
   0   6  -6   62.09    5.60
   0  -6   6   58.59    3.40
   0  -6   6   63.69    3.60
  -1   6  -6  252.87   11.50
   1  -6   6  248.78    8.10
   1  -6   6  261.07    7.40
  -2   6  -6   32.40    4.00
   2  -6   6   30.20    1.60
  -3   6  -6   57.09    5.20
  -4   6  -6   64.79    5.70
  -5   6  -6   18.10    3.40
  -6   6  -6   15.90    3.20
  -7   6  -6   19.00    3.50
   5   5  -6    9.20    2.40
   4   5  -6   -1.30    1.40
   3   5  -6   24.70    3.20
   2   5  -6  361.06   12.30
  -2  -5   6  388.76    9.10
   1   5  -6  257.97    9.10
   1   5  -6  270.57   11.50
  -1  -5   6  245.68    8.10
  -1  -5   6  245.38    7.10
   0   5  -6   83.39    5.70
   0  -5   6   88.89    3.80
  -1   5  -6  230.48   10.00
   1  -5   6  203.68    5.60
   1  -5   6  216.68    8.00
  -2   5  -6   36.70    4.00
  -3   5  -6   50.19    4.60
  -4   5  -6   13.70    2.80
  -5   5  -6   20.50    3.20
  -6   5  -6    1.40    1.80
  -7   5  -6   28.90    4.40
   5   4  -6   29.60    4.00
   4   4  -6   12.40    2.50
   3   4  -6  110.69    3.60
   3   4  -6  109.19    6.10
  -3  -4   6  113.69    4.70
  -3  -4   6  120.79    3.00
   2   4  -6  115.79    6.60
   2   4  -6  124.79    5.90
  -2  -4   6  116.89    4.90
  -2  -4   6  118.79    3.80
   1   4  -6   14.40    2.40
  -1  -4   6   11.40    1.60
  -1  -4   6    7.30    1.40
   0   4  -6  166.78    7.70
   0   4  -6  151.58    5.30
   0   4  -6  166.38    5.40
   0  -4   6  151.58    4.90
  -1   4  -6   19.10    1.90
  -1   4  -6   19.80    2.60
   1  -4   6   22.10    2.60
  -2   4  -6   48.40    3.50
  -2   4  -6   50.39    4.10
  -3   4  -6  576.74   17.80
  -4   4  -6   73.49    5.20
  -5   4  -6   19.20    3.10
  -6   4  -6   12.90    2.80
  -7   4  -6   15.80    3.10
   6   3  -6    1.90    1.60
   5   3  -6   23.70    3.30
   4   3  -6   41.10    3.80
   3   3  -6   73.89    4.50
   3   3  -6   71.69    4.50
  -3  -3   6   74.29    1.80
  -3  -3   6   71.39    3.10
   2   3  -6   26.50    2.70
   2   3  -6   33.00    2.60
   2   3  -6   25.60    2.40
  -2  -3   6   31.50    2.10
  -2  -3   6   29.40    2.60
  -2  -3   6   31.00    1.50
   1   3  -6   56.19    3.90
  -1  -3   6   56.99    3.00
  -1  -3   6   52.49    2.90
  -1  -3   6   52.69    2.30
   0   3  -6  113.39    5.70
   0   3  -6  114.39    3.80
   0  -3   6  114.09    6.10
   0  -3   6  110.79    4.60
  -1   3  -6   60.99    4.00
   1  -3   6   60.29    4.50
  -2   3  -6   89.99    5.00
  -3   3  -6  203.18    8.20
  -4   3  -6   24.00    2.90
  -5   3  -6   43.70    4.00
  -6   3  -6   31.10    3.70
  -7   3  -6   67.39    5.70
   6   2  -6    5.90    1.80
   6   2  -6   12.90    2.80
   5   2  -6   90.29    6.00
   4   2  -6    6.20    1.80
   3   2  -6  254.27    8.30
   3   2  -6  238.28    9.90
   3   2  -6  232.48    8.70
  -3  -2   6  224.68    4.50
  -3  -2   6  230.38    4.70
   2   2  -6  148.99    6.00
   2   2  -6  144.39    7.00
   2   2  -6  144.89    5.70
  -2  -2   6  147.69    3.80
   1   2  -6   26.10    2.40
   1   2  -6   24.60    2.00
   1   2  -6   26.80    2.70
  -1  -2   6   26.90    1.60
   0   2  -6   65.89    2.70
   0   2  -6   68.29    3.90
   0  -2   6   68.99    5.10
   0  -2   6   72.39    2.90
  -1   2  -6  262.87    6.70
  -1   2  -6  251.27    6.10
  -1   2  -6  273.17    8.80
   1  -2   6  289.67   11.70
  -2   2  -6   54.39    1.80
  -2   2  -6   58.59    3.70
   2  -2   6   55.39    4.90
  -3   2  -6   22.60    1.30
  -3   2  -6   28.10    2.80
  -4   2  -6   86.19    5.10
  -5   2  -6   19.70    2.80
  -6   2  -6   22.80    3.10
   7   1  -6    4.90    2.00
   7   1  -6    4.20    2.10
   6   1  -6   18.30    3.10
   5   1  -6   85.19    5.70
   4   1  -6  236.78    9.20
   4   1  -6  225.08    6.90
   3   1  -6   63.19    3.30
   3   1  -6   68.49    4.20
   3   1  -6   73.39    5.30
  -3  -1   6   65.19    2.00
   2   1  -6   44.90    3.10
   2   1  -6   43.30    2.80
   2   1  -6   52.49    4.30
  -2  -1   6   42.30    1.80
   1   1  -6   93.09    5.30
   1   1  -6   81.49    3.60
  -1  -1   6   83.49    3.00
   0   1  -6  149.79    5.80
   0  -1   6  150.58    4.70
   0  -1   6  146.79    8.20
  -1   1  -6  121.89    4.70
  -1   1  -6  125.49    5.20
   1  -1   6  136.79    8.10
  -2   1  -6   57.59    2.80
  -2   1  -6   62.79    3.80
   2  -1   6   65.89    5.80
  -3   1  -6   63.69    3.20
  -3   1  -6   66.59    4.20
   3  -1   6   68.79    6.20
  -4   1  -6   14.60    2.40
   4  -1   6   18.50    3.80
  -5   1  -6    3.20    1.70
   5  -1   6    6.00    3.00
  -6   1  -6    7.50    2.10
   7   0  -6    4.70    2.20
   6   0  -6   28.70    3.50
   5   0  -6   51.89    4.30
   4   0  -6    7.30    1.80
   4   0  -6    9.40    1.10
  -4   0   6    8.00    0.60
   3   0  -6  139.39    4.90
   3   0  -6  136.49    6.20
  -3   0   6  142.69    4.00
   2   0  -6    5.30    0.90
   2   0  -6    8.90    1.30
   2   0  -6    7.20    1.70
  -2   0   6    7.40    1.00
   1   0  -6  107.99    4.30
   1   0  -6   98.39    3.60
  -1   0   6  118.69    4.00
   0   0  -6  116.49    4.20
   0   0   6  126.39    8.10
  -1   0  -6   56.39    3.50
   1   0   6   53.99    5.30
  -2   0  -6   67.19    3.70
   2   0   6   78.29    6.80
  -3   0  -6   19.70    2.40
   3   0   6   28.60    4.50
  -4   0  -6   13.10    2.30
   4   0   6   12.10    3.70
  -5   0  -6   16.90    2.60
   5   0   6   25.10    5.20
   7  -1  -6   77.19    6.10
   6  -1  -6   24.00    3.20
   5  -1  -6    3.20    1.80
   5  -1  -6    5.00    0.60
   4  -1  -6  282.77   10.30
   4  -1  -6  284.37    6.50
   4  -1  -6  287.17    7.90
  -4   1   6  265.27    6.50
   3  -1  -6   71.69    4.50
   3  -1  -6   77.29    2.80
  -3   1   6   77.49    3.10
   2  -1  -6  125.99    4.10
  -2   1   6  147.99    4.80
   1  -1  -6   33.30    2.10
   0  -1  -6   68.09    3.30
   0   1   6   69.89    6.30
  -1  -1  -6    7.30    1.70
  -1  -1  -6    3.30    1.20
   1   1   6    1.50    1.80
  -2  -1  -6   18.60    2.10
   2   1   6   16.50    3.70
   3   1   6   18.80    4.30
  -4  -1  -6   34.70    3.30
   4   1   6   44.40    6.30
   7  -2  -6   89.19    6.50
   6  -2  -6    1.00    1.70
   5  -2  -6   46.50    2.30
   5  -2  -6   50.09    4.30
   5  -2  -6   47.10    2.00
   4  -2  -6  328.77   11.90
   4  -2  -6  356.76    8.10
  -4   2   6  359.76    9.00
   3  -2  -6   35.30    2.00
  -3   2   6   40.80    2.50
   2  -2  -6    9.50    1.30
   1  -2  -6  111.69    4.30
   0  -2  -6    8.10    1.60
  -1  -2  -6  121.79    5.10
   1   2   6  136.69   10.00
  -2  -2  -6   81.59    4.40
   2   2   6   68.19    7.20
  -3  -2  -6   40.60    3.30
   3   2   6   44.80    6.20
   4   2   6   37.60    6.30
   7  -3  -6    4.10    2.10
   6  -3  -6   11.80    2.70
   5  -3  -6  103.49    6.40
   5  -3  -6  105.59    3.60
   4  -3  -6   12.60    1.40
   3  -3  -6   11.30    1.40
   2  -3  -6   90.99    3.90
   1  -3  -6   73.89    3.70
   0  -3  -6   95.59    4.50
  -1  -3  -6   14.80    2.00
  -2  -3  -6   25.90    2.70
   2   3   6   24.70    4.90
   3   3   6   47.60    6.80
   7  -4  -6    7.10    2.60
   6  -4  -6   15.80    2.90
   5  -4  -6   13.50    1.50
   4  -4  -6    5.10    1.10
   3  -4  -6   16.20    1.70
   2  -4  -6    2.60    1.10
   1  -4  -6   64.99    3.70
   0  -4  -6   83.29    4.40
  -1  -4  -6   11.40    2.00
   6  -5  -6   29.80    3.90
   5  -5  -6   38.10    2.60
   4  -5  -6   53.99    3.20
   3  -5  -6   28.90    2.40
   2  -5  -6   51.29    3.30
   1  -5  -6   22.50    2.40
   0  -5  -6    6.90    1.60
   5  -6  -6   16.40    2.00
   4  -6  -6   11.20    1.70
   3  -6  -6   28.20    2.60
   2  -6  -6   41.70    3.20
   5  -7  -6   11.50    1.90
   1 -10   7    8.30    1.90
   2 -10   7    5.30    1.90
   0  -9   7   43.80    3.40
   1  -9   7   -0.80    1.10
   2  -9   7   11.10    2.10
   3  -9   7   41.40    3.80
  -4   9  -7   35.40    5.70
   4  -9   7   27.30    3.10
   2   8  -7   41.90    5.60
   1   8  -7   10.20    3.10
  -1  -8   7   12.00    1.80
   0  -8   7   18.70    2.20
   1  -8   7   48.70    3.70
  -2   8  -7   25.50    4.30
   2  -8   7   19.30    2.40
  -3   8  -7   56.19    6.40
  -4   8  -7   54.59    6.20
  -5   8  -7   17.00    3.70
  -6   8  -7   12.70    3.60
   3   7  -7    9.90    2.70
   2   7  -7    6.80    2.40
   1   7  -7    0.80    1.70
  -1  -7   7    0.30    0.90
   0  -7   7   76.29    4.20
  -1   7  -7    1.00    1.80
   1  -7   7    0.40    1.00
  -2   7  -7   95.89    7.50
   2  -7   7   94.29    5.10
  -3   7  -7    0.50    1.60
  -4   7  -7    7.90    2.70
  -5   7  -7    1.90    2.30
  -6   7  -7   43.30    5.70
   4   6  -7   11.10    2.70
   3   6  -7    8.70    2.40
   2   6  -7   56.29    4.80
  -2  -6   7   60.79    3.10
   1   6  -7   99.09    7.10
   1   6  -7   99.89    5.80
  -1  -6   7  102.09    4.40
   0   6  -7   87.89    5.00
   0   6  -7   95.99    6.90
   0  -6   7   83.09    4.00
  -1   6  -7  112.79    7.40
   1  -6   7  115.59    5.50
  -2   6  -7  154.48    8.90
   2  -6   7  167.58    7.80
  -3   6  -7   12.00    3.00
  -4   6  -7  100.79    7.40
  -5   6  -7   39.00    5.00
  -6   6  -7   25.80    4.20
   5   5  -7   -0.10    1.50
   4   5  -7   28.00    3.70
   3   5  -7    5.70    1.80
   2   5  -7  107.19    5.90
  -2  -5   7  116.49    4.10
   1   5  -7   19.00    2.10
   1   5  -7   18.80    2.90
   1   5  -7   14.10    0.90
  -1  -5   7   17.00    2.00
   0   5  -7   17.90    2.90
   0   5  -7   21.30    1.80
   0   5  -7   21.80    2.10
   0  -5   7   18.20    1.70
  -1   5  -7   74.19    5.60
  -1   5  -7   69.39    3.90
   1  -5   7   70.69    4.60
  -2   5  -7   10.10    2.40
   2  -5   7    9.70    2.00
  -3   5  -7    0.50    1.80
  -4   5  -7  318.47   13.20
  -5   5  -7   19.80    3.30
  -6   5  -7    6.00    2.40
   5   4  -7   27.60    3.80
   4   4  -7    3.10    1.80
   3   4  -7   32.00    3.30
   2   4  -7   84.19    5.50
   2   4  -7   75.29    4.40
  -2  -4   7   70.19    2.90
  -2  -4   7   71.79    2.60
   1   4  -7   19.00    2.80
  -1  -4   7   16.60    1.80
   0   4  -7  142.59    7.40
   0   4  -7  144.79    4.90
  -1   4  -7    8.70    1.60
  -1   4  -7    7.20    2.10
   1  -4   7    5.00    1.90
  -2   4  -7  164.38    8.00
   2  -4   7  169.18    8.60
  -3   4  -7   16.60    2.80
  -4   4  -7  239.98   10.60
  -5   4  -7    9.30    2.30
  -6   4  -7   41.60    4.70
   6   3  -7   77.79    6.40
   5   3  -7    3.90    1.90
   4   3  -7   10.80    2.20
   3   3  -7  107.89    5.80
   3   3  -7  122.69    6.10
   3   3  -7  119.69    6.30
  -3  -3   7  123.39    3.20
   2   3  -7   95.99    5.40
   2   3  -7   98.49    4.80
   2   3  -7   87.69    5.00
  -2  -3   7   95.19    3.00
   1   3  -7   90.09    5.20
  -1  -3   7   96.99    3.40
   0   3  -7   83.89    5.00
   0   3  -7   77.59    3.10
   0  -3   7   78.09    5.60
  -1   3  -7  234.58    9.00
   1  -3   7  247.38   11.00
  -2   3  -7  158.68    7.20
   2  -3   7  161.48    8.90
  -3   3  -7    1.80    1.70
   3  -3   7    3.40    2.40
  -4   3  -7    6.90    2.00
  -5   3  -7   15.10    2.70
  -6   3  -7   28.30    3.80
   6   2  -7    6.00    2.20
   5   2  -7   74.19    5.50
   4   2  -7   36.70    2.80
   4   2  -7   33.80    3.40
   3   2  -7  389.96   12.00
   3   2  -7  378.96   12.00
   3   2  -7  367.36   13.70
  -3  -2   7  392.16    7.80
   2   2  -7   82.99    4.70
   2   2  -7   89.49    4.60
   2   2  -7   86.79    5.60
  -2  -2   7   81.59    2.80
   1   2  -7   39.10    3.10
  -1  -2   7   37.10    2.10
   0   2  -7   29.70    1.90
   0   2  -7   27.00    2.70
   0  -2   7   26.20    3.70
  -1   2  -7  118.59    5.80
  -1   2  -7  132.99    4.30
  -1   2  -7  122.69    3.80
   1  -2   7  121.39    7.80
  -2   2  -7  111.49    5.60
  -2   2  -7  106.69    3.10
   2  -2   7  114.89    7.90
  -3   2  -7    6.00    1.70
   3  -2   7    8.80    2.70
  -4   2  -7   97.19    5.90
   4  -2   7  101.89    8.50
  -5   2  -7    8.00    2.00
   5  -2   7   15.40    4.00
   6   1  -7   27.40    3.70
   5   1  -7    8.90    2.20
   4   1  -7    3.50    1.80
   4   1  -7    4.20    1.00
   3   1  -7   41.30    2.90
   3   1  -7   38.00    3.30
  -3  -1   7   46.20    1.90
   2   1  -7   44.60    3.10
   2   1  -7   46.50    3.30
  -2  -1   7   47.70    2.20
   1   1  -7   24.10    2.40
  -1  -1   7   26.40    1.80
   0   1  -7   23.50    2.50
   0  -1   7   28.20    4.00
  -1   1  -7  114.29    5.40
  -1   1  -7  114.79    4.80
   1  -1   7  128.69    8.50
  -2   1  -7    4.80    1.50
   2  -1   7    5.00    2.40
  -3   1  -7    3.10    1.40
   3  -1   7    4.70    2.60
  -4   1  -7    9.90    2.10
   4  -1   7    4.10    2.50
  -5   1  -7  101.79    6.40
   7   0  -7   97.49    7.20
   6   0  -7   30.70    3.90
   5   0  -7   18.40    2.90
   4   0  -7   55.49    4.20
   4   0  -7   49.80    2.80
   3   0  -7  248.78    8.00
   3   0  -7  245.68    9.20
  -3   0   7  245.98    6.30
   2   0  -7  112.99    4.90
   2   0  -7  114.09    5.50
  -2   0   7  130.29    4.40
   1   0  -7   20.00    2.10
   0   0  -7   10.10    1.70
   0   0   7   11.40    2.90
  -1   0  -7  120.89    5.70
  -1   0  -7  125.59    5.50
   1   0   7  120.59    8.80
  -2   0  -7   40.30    3.30
   2   0   7   34.20    4.90
  -3   0  -7   36.30    3.40
   3   0   7   37.40    5.60
  -4   0  -7   32.00    3.40
   4   0   7   29.40    5.50
   7  -1  -7   30.30    4.30
   6  -1  -7   90.19    6.30
   5  -1  -7   32.80    3.60
   4  -1  -7   59.39    3.10
   4  -1  -7   48.70    4.20
   4  -1  -7   57.49    2.50
   3  -1  -7  420.86   13.50
   3  -1  -7  432.16    9.80
   3  -1  -7  430.76   11.80
  -3   1   7  457.85   10.80
   2  -1  -7  154.48    5.00
   1  -1  -7   16.70    1.70
   0  -1  -7   16.50    1.80
  -1  -1  -7   45.50    3.10
   1   1   7   53.99    6.50
   2   1   7   81.79    8.20
  -3  -1  -7   22.40    2.90
   3   1   7   28.10    5.10
   7  -2  -7   15.50    3.10
   6  -2  -7   17.90    3.10
   5  -2  -7   26.30    3.50
   4  -2  -7   26.50    3.30
   4  -2  -7   23.40    1.70
   3  -2  -7   49.40    2.60
   2  -2  -7   22.90    1.90
   1  -2  -7  131.59    5.10
   0  -2  -7  154.58    6.00
  -1  -2  -7   79.69    4.40
   1   2   7   98.39    9.10
  -2  -2  -7   63.29    4.10
   2   2   7   65.99    7.80
   3   2   7    9.00    3.20
   6  -3  -7   74.39    5.90
   5  -3  -7   -0.30    1.70
   5  -3  -7    0.50    0.70
   4  -3  -7   24.10    1.90
   3  -3  -7   11.90    1.60
   2  -3  -7   35.40    2.60
   1  -3  -7  129.29    5.40
   0  -3  -7    0.20    1.10
  -1  -3  -7  129.09    6.00
   2   3   7   14.90    4.60
   6  -4  -7   28.00    3.80
   5  -4  -7    3.60    1.00
   5  -4  -7    8.70    2.80
   4  -4  -7   37.90    2.50
   3  -4  -7   34.10    2.60
   2  -4  -7   53.19    3.40
   1  -4  -7   20.10    2.30
   0  -4  -7   60.79    4.00
   5  -5  -7    1.30    1.00
   4  -5  -7    4.90    1.30
   3  -5  -7   64.79    3.80
   2  -5  -7    5.00    1.30
   5  -6  -7    0.90    0.80
   4  -6  -7   43.90    3.20
   1 -10   8    4.20    1.50
   0  -9   8    6.20    1.60
   1  -9   8   75.29    4.70
   2  -9   8    3.50    1.50
  -3   9  -8   72.19    7.80
   3  -9   8   55.19    4.30
   2   8  -8   10.60    3.10
   1   8  -8   30.90    4.50
   0  -8   8    3.30    1.30
  -1   8  -8   34.10    5.20
   1  -8   8   33.80    3.10
  -2   8  -8   52.09    6.00
  -3   8  -8    0.50    2.20
  -4   8  -8   51.99    6.20
   3   7  -8   44.50    5.30
   2   7  -8   37.00    4.40
   1   7  -8  106.69    6.70
  -1  -7   8  110.29    4.90
   0   7  -8   59.99    6.30
   0  -7   8   50.39    3.40
  -1   7  -8    4.00    2.50
  -2   7  -8   72.29    6.60
  -3   7  -8   28.00    4.50
   3  -7   8   31.70    3.90
  -4   7  -8   23.00    4.20
  -5   7  -8   18.90    3.90
   4   6  -8    9.40    2.40
   3   6  -8   -9.90    2.40
   2   6  -8    6.70    2.10
   1   6  -8  201.38    8.40
   1   6  -8  186.08   10.50
  -1  -6   8  196.58    6.70
   0   6  -8   65.39    5.90
  -1   6  -8    5.90    2.20
   1  -6   8    3.10    1.60
  -2   6  -8   43.70    4.90
   2  -6   8   33.00    3.70
  -3   6  -8   17.60    3.50
   3  -6   8   29.80    3.90
  -4   6  -8   26.90    4.10
  -5   6  -8   16.90    3.70
   4   5  -8   57.39    5.20
   3   5  -8   90.39    5.90
   2   5  -8   15.40    2.90
   2   5  -8   16.30    2.30
  -2  -5   8   19.10    1.70
   1   5  -8   62.09    5.30
   1   5  -8   59.19    3.70
   0   5  -8   59.39    5.30
   0   5  -8   65.39    3.40
  -1   5  -8   60.89    5.40
   1  -5   8   63.79    5.00
  -2   5  -8   15.80    3.00
   2  -5   8   18.60    3.10
  -3   5  -8   39.40    4.50
   3  -5   8   43.90    5.00
  -4   5  -8  137.89    8.50
  -5   5  -8   94.39    7.30
   5   4  -8   35.20    4.40
   4   4  -8   65.79    5.10
   3   4  -8   82.39    5.30
   3   4  -8   90.99    6.10
   2   4  -8   48.80    4.30
   2   4  -8   50.49    3.60
   1   4  -8   62.89    5.00
   1   4  -8   67.79    3.70
   0   4  -8   11.00    2.40
   0   4  -8    8.40    1.10
  -1   4  -8    4.20    1.90
   1  -4   8    3.80    1.90
  -2   4  -8   26.50    3.40
   2  -4   8   27.00    3.90
  -3   4  -8    3.60    1.70
   3  -4   8    4.90    2.30
  -4   4  -8   27.00    3.70
   4  -4   8   24.70    4.50
  -5   4  -8    3.70    1.90
   5   3  -8    2.40    1.60
   4   3  -8   27.90    3.20
   3   3  -8   57.49    4.20
   3   3  -8   57.39    4.20
   2   3  -8  183.78    7.10
   2   3  -8  194.98    8.50
  -2  -3   8  183.38    5.00
   1   3  -8   20.60    2.70
   0   3  -8   61.29    4.50
   0   3  -8   65.09    2.80
  -1   3  -8  149.39    7.20
   1  -3   8  160.18    9.30
  -2   3  -8    8.10    2.10
   2  -3   8    8.90    2.60
  -3   3  -8   13.40    2.50
   3  -3   8   16.00    3.70
  -4   3  -8   11.30    2.50
   4  -3   8   15.20    3.80
  -5   3  -8   79.19    6.00
   5  -3   8   57.29    7.20
   6   2  -8    0.10    2.10
   5   2  -8   80.19    5.90
   4   2  -8    8.00    2.00
   3   2  -8   71.29    4.50
   3   2  -8   78.79    4.80
   2   2  -8   42.60    3.20
   2   2  -8   44.60    3.60
  -2  -2   8   40.90    2.10
   1   2  -8   21.50    2.60
   0   2  -8  144.29    4.90
   0   2  -8  145.49    6.80
  -1   2  -8   -0.30    1.40
  -1   2  -8    0.20    0.60
   1  -2   8   -1.40    1.70
  -2   2  -8    5.20    1.70
   2  -2   8    7.20    2.70
  -3   2  -8   28.70    3.20
   3  -2   8   22.00    4.20
  -4   2  -8   27.60    3.50
   4  -2   8   28.10    5.40
   6   1  -8   18.80    3.30
   5   1  -8    2.20    1.70
   4   1  -8   25.10    2.40
   4   1  -8   29.20    3.30
   3   1  -8   28.70    3.00
   3   1  -8   26.80    2.50
   2   1  -8  121.19    5.70
   2   1  -8  121.69    5.80
   1   1  -8  136.79    5.70
   1   1  -8  130.29    6.10
   0   1  -8   25.90    2.70
  -1   1  -8   48.70    3.80
   1  -1   8   45.80    5.80
  -2   1  -8   76.49    4.90
   2  -1   8   75.09    7.40
  -3   1  -8    3.60    1.70
   3  -1   8    6.30    3.00
  -4   1  -8    2.50    1.60
   4  -1   8    4.00    2.80
   6   0  -8    6.10    2.20
   5   0  -8   38.70    4.00
   4   0  -8    4.50    1.80
   4   0  -8    1.30    0.90
   3   0  -8  162.98    7.40
   3   0  -8  155.08    6.30
   2   0  -8   24.70    2.50
   2   0  -8   25.40    2.80
   1   0  -8  183.28    7.20
   0   0  -8   19.50    2.40
  -1   0  -8   27.90    2.90
   1   0   8   23.30    4.50
  -2   0  -8   26.20    3.00
   2   0   8   33.50    5.40
  -3   0  -8   30.20    3.40
   3   0   8   21.90    4.80
   6  -1  -8   16.40    3.10
   5  -1  -8   14.60    2.70
   4  -1  -8    2.80    1.20
   4  -1  -8    5.90    2.10
   3  -1  -8   68.89    4.00
   3  -1  -8   72.09    4.90
   3  -1  -8   75.99    3.40
   2  -1  -8   27.70    2.60
   2  -1  -8   27.00    2.20
   1  -1  -8   47.00    3.00
   0  -1  -8   73.79    4.00
   1   1   8   46.20    6.40
  -2  -1  -8   13.00    2.40
   2   1   8   11.00    3.60
   6  -2  -8   31.10    4.10
   5  -2  -8   13.70    3.00
   4  -2  -8   30.80    2.50
   4  -2  -8   29.10    3.50
   4  -2  -8   28.80    2.10
   3  -2  -8    8.70    1.40
   2  -2  -8   20.80    2.10
   1  -2  -8   18.80    2.10
   0  -2  -8  114.29    5.30
  -1  -2  -8   43.80    3.50
   6  -3  -8   91.29    6.80
   5  -3  -8    3.70    2.00
   4  -3  -8   10.00    1.40
   4  -3  -8   11.60    2.70
   3  -3  -8   13.50    1.80
   2  -3  -8    4.10    1.40
   1  -3  -8   22.50    2.50
   0  -3  -8   15.80    2.20
   5  -4  -8   40.10    4.50
   4  -4  -8   14.10    1.80
   3  -4  -8    9.50    1.60
   2  -4  -8    2.10    1.30
   1  -4  -8    8.70    1.80
   4  -5  -8   12.50    1.80
   3  -5  -8   78.99    4.50
   1  -9   9   38.20    3.60
   2  -9   9   19.50    2.70
   0  -8   9    4.40    1.50
  -1   8  -9   20.10    4.50
   1  -8   9   18.90    2.50
  -2   8  -9   41.90    5.60
  -3   8  -9  111.89    9.20
   3   7  -9    0.00    1.50
   1   7  -9   31.70    4.60
   0   7  -9  171.78   10.90
   0  -7   9  152.88    6.30
  -1   7  -9    2.80    2.10
  -2   7  -9   41.00    5.30
  -3   7  -9   72.19    7.10
  -4   7  -9   -0.60    2.50
   4  -7   9    6.20    2.70
   4   6  -9    5.10    2.20
   3   6  -9   84.59    6.10
   2   6  -9    4.10    2.00
   2   6  -9    3.70    1.30
   1   6  -9   41.60    4.80
  -1  -6   9   41.70    2.90
   0   6  -9   79.19    6.70
  -1   6  -9   11.60    3.10
  -2   6  -9    7.60    2.70
   2  -6   9    8.10    2.40
  -3   6  -9   17.90    3.50
   3  -6   9   16.20    3.90
  -4   6  -9   25.00    4.20
   4  -6   9   22.50    4.10
   5  -6   9   84.89    8.40
   4   5  -9   28.30    3.80
   3   5  -9   58.39    4.70
   2   5  -9    3.50    1.80
   2   5  -9    0.60    1.20
   1   5  -9    3.70    1.90
   1   5  -9   12.30    1.80
   0   5  -9   80.69    6.40
  -1   5  -9   49.90    5.10
   1  -5   9   32.70    4.10
  -2   5  -9    2.80    1.80
   2  -5   9    3.70    2.20
  -3   5  -9  118.89    7.90
   3  -5   9  103.79    8.20
  -4   5  -9   22.60    3.80
   4  -5   9   20.00    4.10
   5  -5   9   22.30    4.70
   5   4  -9  102.29    7.20
   4   4  -9   29.80    3.60
   3   4  -9   55.69    4.30
   3   4  -9   59.49    4.90
   2   4  -9   44.10    4.30
   2   4  -9   41.10    3.30
   1   4  -9   43.00    4.50
   1   4  -9   47.60    3.00
   0   4  -9   57.49    5.00
  -1   4  -9  105.79    6.90
   1  -4   9   83.29    6.90
  -2   4  -9   23.40    3.50
   2  -4   9   26.90    4.50
  -3   4  -9   60.59    5.30
   3  -4   9   56.79    6.30
  -4   4  -9   14.40    2.90
   4  -4   9   16.10    4.10
   5   3  -9   31.30    3.70
   4   3  -9   12.10    2.30
   3   3  -9   38.80    3.70
   3   3  -9   27.00    3.00
   2   3  -9  155.68    6.50
   2   3  -9  152.78    7.80
   1   3  -9   46.90    2.90
   1   3  -9   44.70    4.20
   0   3  -9   39.50    3.90
  -1   3  -9  151.68    7.70
   1  -3   9  134.89    9.30
  -2   3  -9   17.30    2.80
   2  -3   9   13.40    3.50
  -3   3  -9   48.50    4.50
   3  -3   9   35.10    5.40
  -4   3  -9    2.00    1.70
   4  -3   9    6.80    3.30
   5   2  -9   22.50    3.40
   4   2  -9   -1.30    1.70
   3   2  -9   22.10    2.80
   3   2  -9   19.50    2.60
   2   2  -9    8.40    2.00
   2   2  -9   10.40    1.80
   1   2  -9   34.10    2.60
   1   2  -9   30.40    3.20
   0   2  -9  113.49    6.30
  -1   2  -9   39.20    3.80
   1  -2   9   36.10    5.40
  -2   2  -9   47.60    4.30
   2  -2   9   38.40    5.50
  -3   2  -9    9.20    2.40
   3  -2   9   17.60    4.20
   6   1  -9   95.69    7.10
   5   1  -9   21.00    3.20
   4   1  -9   41.60    4.00
   3   1  -9   41.10    3.40
   3   1  -9   33.00    3.30
   2   1  -9  429.36   13.70
   2   1  -9  435.06   13.20
   1   1  -9   18.90    2.20
   1   1  -9   13.60    2.20
   0   1  -9    9.10    2.10
   0   1  -9   14.20    1.90
  -1   1  -9    2.70    1.70
   1  -1   9    1.70    2.90
  -2   1  -9   21.10    2.90
   2  -1   9   43.00    6.20
  -3   1  -9   24.10    3.30
   3  -1   9   17.50    4.40
   6   0  -9    2.00    1.50
   5   0  -9   72.99    5.80
   4   0  -9    0.30    1.60
   3   0  -9   10.50    1.90
   3   0  -9   10.10    2.10
   2   0  -9  382.46   12.60
   2   0  -9  420.56   13.10
   1   0  -9   67.69    4.40
   1   0  -9   61.79    4.30
   0   0  -9   20.40    2.60
  -1   0  -9    4.30    1.70
   1   0   9    6.00    3.40
  -2   0  -9   40.30    4.00
   2   0   9   34.20    5.90
   6  -1  -9    8.80    2.80
   5  -1  -9   24.70    3.70
   4  -1  -9   17.00    2.90
   4  -1  -9   20.10    2.30
   3  -1  -9   19.70    2.90
   3  -1  -9   13.00    2.10
   2  -1  -9    8.70    2.20
   2  -1  -9   10.60    2.00
   1  -1  -9    6.90    1.80
   0  -1  -9   48.70    3.90
  -1  -1  -9    7.70    2.00
   5  -2  -9   -0.30    1.90
   4  -2  -9   12.40    2.70
   4  -2  -9   14.10    2.20
   3  -2  -9    5.40    1.60
   3  -2  -9    4.50    2.20
   3  -2  -9    3.30    1.30
   2  -2  -9    9.30    1.70
   1  -2  -9   99.59    5.00
   0  -2  -9    4.20    1.50
   5  -3  -9   39.90    4.50
   4  -3  -9    7.10    2.60
   3  -3  -9   17.80    2.20
   2  -3  -9   61.79    3.90
   1  -3  -9   75.59    4.60
   4  -4  -9   -1.40    1.10
   3  -4  -9    1.40    1.30
   0   8 -10   71.79    7.60
  -1   8 -10  118.19    9.80
   1   7 -10   14.30    3.70
   0   7 -10   16.80    3.70
  -1   7 -10   38.10    5.40
  -2   7 -10    5.40    2.40
   2   6 -10   34.20    4.60
   1   6 -10   59.59    6.00
   0   6 -10    7.30    2.50
  -1   6 -10   36.50    4.80
  -2   6 -10    9.10    2.90
  -3   6 -10   19.00    3.60
   3  -6  10   35.20    5.00
   4  -6  10   10.20    4.00
   4   5 -10   54.89    5.00
   2   5 -10   -0.10    1.10
   1   5 -10   24.10    3.60
   0   5 -10    7.60    2.80
  -1   5 -10   15.20    3.30
  -2   5 -10   21.70    3.60
   2  -5  10   15.70    3.50
  -3   5 -10   43.80    5.20
   3  -5  10   38.40    5.70
   4  -5  10   27.40    5.50
   4   4 -10   15.00    2.70
   3   4 -10    5.30    1.60
   2   4 -10   75.79    6.10
   1   4 -10   62.19    5.50
   0   4 -10    0.30    1.60
  -1   4 -10    9.30    2.50
   1  -4  10   12.10    3.30
  -2   4 -10   20.90    3.50
   2  -4  10   17.60    3.90
  -3   4 -10   30.30    4.10
   3  -4  10   24.60    4.70
   5   3 -10   44.50    4.60
   4   3 -10   26.80    3.40
   3   3 -10    4.30    1.40
   2   3 -10    7.30    1.50
   2   3 -10    4.60    1.80
   1   3 -10   10.80    2.50
   0   3 -10    5.10    1.90
  -1   3 -10    8.70    2.10
   1  -3  10   11.20    3.40
  -2   3 -10   29.00    3.80
   2  -3  10   11.80    3.70
   3  -3  10    3.60    2.90
   5   2 -10   -0.30    1.50
   4   2 -10   23.10    3.20
   3   2 -10   14.00    2.30
   3   2 -10   12.50    2.30
   2   2 -10   12.00    1.90
   2   2 -10   16.90    2.70
   1   2 -10  290.17   11.40
   0   2 -10   20.20    3.00
  -1   2 -10    0.40    1.80
   1  -2  10    2.00    2.50
  -2   2 -10   11.10    2.60
   2  -2  10   10.10    3.80
   5   1 -10    8.40    2.20
   4   1 -10   54.99    4.80
   3   1 -10    8.30    1.90
   3   1 -10    7.70    1.70
   2   1 -10   26.30    3.20
   2   1 -10   27.00    2.90
   1   1 -10  124.59    6.90
   0   1 -10   32.70    3.50
  -1   1 -10   13.90    2.70
   5   0 -10   11.00    2.60
   4   0 -10    1.60    1.60
   3   0 -10   18.00    2.60
   2   0 -10   36.60    3.50
   2   0 -10   34.20    3.40
   1   0 -10    0.70    1.50
   0   0 -10   52.79    4.40
   5  -1 -10   28.70    3.70
   4  -1 -10    4.70    1.90
   3  -1 -10   18.20    2.90
   3  -1 -10   13.40    2.30
   2  -1 -10   13.50    2.60
   2  -1 -10   10.80    2.10
   1  -1 -10   28.20    3.20
   4  -2 -10   29.60    3.90
   3  -2 -10   18.90    3.20
   3  -2 -10   17.40    2.60
   2  -2 -10    8.60    2.10
   1   7 -11   17.20    3.80
   0   7 -11   96.69    8.60
   1   6 -11   24.00    4.50
   0   6 -11   21.40    4.20
  -1   6 -11   39.40    5.50
   2   5 -11    8.40    2.20
   1   5 -11   92.49    7.50
   0   5 -11   18.40    3.40
  -1   5 -11   45.80    5.50
   2  -5  11   69.99    7.50
   3  -5  11   38.50    6.00
   2   4 -11   29.60    4.10
   1   4 -11   35.70    4.40
   0   4 -11   51.79    5.40
  -1   4 -11   24.00    3.80
   2  -4  11   44.70    6.50
   2   3 -11   33.50    4.10
   1   3 -11   26.00    3.90
   0   3 -11    3.60    1.80
  -1   3 -11   12.60    3.00
   2  -3  11   -4.20    2.90
   2   2 -11   39.90    4.20
   1   2 -11   89.29    6.30
   0   2 -11   48.80    4.80
   4   1 -11   17.40    2.90
   2   1 -11   61.19    4.90
   1   1 -11   49.90    4.60
   4   0 -11   -5.20    1.80
   2   0 -11   20.60    3.00
   1   0 -11    4.50    2.10
   1   5 -12   43.30    5.30
   1   4 -12    2.40    2.00
   1   3 -12   11.20    2.90

_computing_structure_solution     'SHELXT 2014/4 (Sheldrick, 2014)'
;
_shelx_hkl_checksum              2368
loop_
_space_group_symop_operation_xyz
'x, y, z'
loop_
_atom_site_label
_atom_site_type_symbol
_atom_site_fract_x
_atom_site_fract_y
_atom_site_fract_z
_atom_site_U_iso_or_equiv
_atom_site_adp_type
_atom_site_occupancy
_atom_site_site_symmetry_order
_atom_site_calc_flag
_atom_site_refinement_flags_posn
_atom_site_refinement_flags_adp
C2 C 0.5953(4) 0.5749(4) 0.4483(3) 0.0154(5) Uani 1 1 d . .
C21 C 0.2275(4) 0.1980(4) 0.6869(3) 0.0184(5) Uani 1 1 d . .
H21A H 0.294039 0.102882 0.645747 0.022 Uiso 1 1 calc R U
H21B H 0.166468 0.180808 0.784867 0.022 Uiso 1 1 calc R U
C5 C 0.1782(4) 0.2820(4) 0.4589(3) 0.0151(5) Uani 1 1 d . .
H5 H 0.071645 0.296249 0.379474 0.018 Uiso 1 1 calc R U
C6 C 0.3290(4) 0.2021(4) 0.3624(3) 0.0175(5) Uani 1 1 d . .
H6A H 0.384321 0.133589 0.421035 0.021 Uiso 1 1 calc R U
H6B H 0.238051 0.102438 0.246221 0.021 Uiso 1 1 calc R U
C7 C 0.5311(4) 0.3758(4) 0.3537(3) 0.0158(5) Uani 1 1 d . .
C8 C 0.6923(4) 0.3679(4) 0.2523(3) 0.0170(5) Uani 1 1 d . .
C9 C 0.7185(4) 0.2102(4) 0.1328(3) 0.0176(5) Uani 1 1 d . .
H9 H 0.609013 0.073436 0.100097 0.021 Uiso 1 1 calc R U
C10 C 0.9073(4) 0.2580(4) 0.0636(3) 0.0204(5) Uani 1 1 d . .
H10 H 0.926294 0.152572 -0.017649 0.024 Uiso 1 1 calc R U
C11 C 1.0707(4) 0.4593(4) 0.1114(3) 0.0201(5) Uani 1 1 d . .
H11 H 1.200095 0.487664 0.063749 0.024 Uiso 1 1 calc R U
C12 C 1.0466(4) 0.6181(4) 0.2274(3) 0.0183(5) Uani 1 1 d . .
H12 H 1.157166 0.754423 0.259423 0.022 Uiso 1 1 calc R U
C13 C 0.8549(4) 0.5709(4) 0.2951(3) 0.0157(5) Uani 1 1 d . .
C3 C -0.0696(4) 0.2900(4) 0.6301(3) 0.0192(5) Uani 1 1 d . .
H3A H -0.110052 0.269744 0.732915 0.023 Uiso 1 1 calc R U
H3B H -0.211723 0.254953 0.549916 0.023 Uiso 1 1 calc R U
C14 C 0.1096(4) 0.5139(4) 0.6780(3) 0.0181(5) Uani 1 1 d . .
H14B H 0.050619 0.579326 0.618008 0.022 Uiso 1 1 calc R U
H14A H 0.152425 0.594298 0.801882 0.022 Uiso 1 1 calc R U
C22 C 0.5042(4) 0.8388(4) 0.6290(3) 0.0216(5) Uani 1 1 d . .
H22B H 0.604002 0.933575 0.590852 0.026 Uiso 1 1 calc R U
H22A H 0.422954 0.878804 0.708825 0.026 Uiso 1 1 calc R U
C17 C 0.4781(4) 0.6499(4) 0.5707(3) 0.0162(5) Uani 1 1 d . .
C18 C 0.7724(4) 0.7267(4) 0.9351(4) 0.0240(6) Uani 1 1 d . .
H18A H 0.742267 0.791434 0.862468 0.036 Uiso 1 1 calc R U
H18B H 0.925070 0.732201 0.936527 0.036 Uiso 1 1 calc R U
H18C H 0.766765 0.797890 1.050815 0.036 Uiso 1 1 calc R U
C19 C 0.5929(4) 0.5097(4) 0.8669(3) 0.0201(5) Uani 1 1 d . .
H19 H 0.613501 0.430147 0.923266 0.024 Uiso 1 1 calc R U
C20 C 0.4091(4) 0.4162(3) 0.7374(3) 0.0157(5) Uani 1 1 d . .
C15 C 0.3139(4) 0.4868(3) 0.6163(3) 0.0147(5) Uani 1 1 d . .
N1 N 0.7916(4) 0.6958(3) 0.4129(3) 0.0174(4) Uani 1 1 d . .
N4 N 0.0423(3) 0.1611(3) 0.5492(2) 0.0169(4) Uani 1 1 d . .
H1 H 0.853(5) 0.823(5) 0.445(4) 0.022(8) Uiso 1 1 d . .
loop_
_atom_site_aniso_label
_atom_site_aniso_U_11
_atom_site_aniso_U_22
_atom_site_aniso_U_33
_atom_site_aniso_U_23
_atom_site_aniso_U_13
_atom_site_aniso_U_12
C2 0.0151(11) 0.0160(11) 0.0151(11) 0.0071(9) 0.0039(9) 0.0062(9)
C21 0.0214(11) 0.0173(11) 0.0187(11) 0.0097(9) 0.0062(9) 0.0085(9)
C5 0.0136(11) 0.0147(11) 0.0154(11) 0.0059(9) 0.0050(9) 0.0047(9)
C6 0.0172(11) 0.0135(11) 0.0181(11) 0.0047(9) 0.0063(9) 0.0044(9)
C7 0.0173(11) 0.0172(11) 0.0143(11) 0.0072(9) 0.0043(9) 0.0082(9)
C8 0.0189(12) 0.0189(12) 0.0130(11) 0.0061(9) 0.0041(9) 0.0083(9)
C9 0.0217(12) 0.0140(11) 0.0152(11) 0.0044(9) 0.0046(9) 0.0075(9)
C10 0.0275(13) 0.0194(12) 0.0152(11) 0.0063(9) 0.0085(10) 0.0114(10)
C11 0.0219(12) 0.0242(13) 0.0160(11) 0.0090(10) 0.0090(9) 0.0103(10)
C12 0.0179(12) 0.0180(12) 0.0174(11) 0.0084(10) 0.0045(9) 0.0054(10)
C13 0.0168(11) 0.0163(12) 0.0135(11) 0.0065(9) 0.0029(9) 0.0066(9)
C3 0.0162(11) 0.0182(12) 0.0242(12) 0.0088(10) 0.0083(10) 0.0078(9)
C14 0.0191(11) 0.0178(12) 0.0215(12) 0.0094(10) 0.0089(10) 0.0102(10)
C22 0.0241(12) 0.0196(12) 0.0249(13) 0.0113(10) 0.0124(10) 0.0103(10)
C17 0.0156(11) 0.0178(12) 0.0159(11) 0.0078(9) 0.0044(9) 0.0072(9)
C18 0.0235(12) 0.0211(12) 0.0217(13) 0.0051(10) -0.0017(10) 0.0088(10)
C19 0.0243(12) 0.0225(13) 0.0191(12) 0.0096(10) 0.0074(10) 0.0144(10)
C20 0.0182(10) 0.0146(11) 0.0169(11) 0.0066(9) 0.0079(9) 0.0089(9)
C15 0.0163(11) 0.0125(10) 0.0160(11) 0.0052(9) 0.0055(9) 0.0073(9)
N1 0.0198(10) 0.0152(11) 0.0182(10) 0.0074(9) 0.0078(8) 0.0075(8)
N4 0.0174(9) 0.0161(10) 0.0180(10) 0.0085(8) 0.0063(8) 0.0065(8)
loop_
_atom_type_symbol
_atom_type_description
_atom_type_scat_dispersion_real
_atom_type_scat_dispersion_imag
_atom_type_scat_source
C C 0.0033 0.0016 'International Tables Vol C Tables 4.2.6.8 and 6.1.1.4'
H H 0.0000 0.0000 'International Tables Vol C Tables 4.2.6.8 and 6.1.1.4'
N N 0.0061 0.0033 'International Tables Vol C Tables 4.2.6.8 and 6.1.1.4'
loop_
_geom_angle_atom_site_label_1
_geom_angle_atom_site_label_2
_geom_angle_atom_site_label_3
_geom_angle
C7 C2 N1 109.9(2)
C7 C2 C17 125.1(2)
N1 C2 C17 125.0(2)
N4 C21 C20 105.58(18)
N4 C21 H21A 110.6
C20 C21 H21A 110.6
N4 C21 H21B 110.6
C20 C21 H21B 110.6
H21A C21 H21B 108.8
N4 C5 C6 116.0(2)
N4 C5 C15 97.54(17)
C6 C5 C15 114.64(18)
N4 C5 H5 109.3
C6 C5 H5 109.3
C15 C5 H5 109.3
C7 C6 C5 109.3(2)
C7 C6 H6A 109.8
C5 C6 H6A 109.8
C7 C6 H6B 109.8
C5 C6 H6B 109.8
H6A C6 H6B 108.3
C2 C7 C8 107.3(2)
C2 C7 C6 124.5(2)
C8 C7 C6 128.2(2)
C9 C8 C13 119.4(2)
C9 C8 C7 134.2(2)
C13 C8 C7 106.4(2)
C10 C9 C8 118.7(2)
C10 C9 H9 120.6
C8 C9 H9 120.6
C9 C10 C11 121.2(2)
C9 C10 H10 119.4
C11 C10 H10 119.4
C12 C11 C10 121.1(2)
C12 C11 H11 119.4
C10 C11 H11 119.4
C11 C12 C13 117.9(2)
C11 C12 H12 121.1
C13 C12 H12 121.1
N1 C13 C12 130.0(2)
N1 C13 C8 108.3(2)
C12 C13 C8 121.6(2)
N4 C3 C14 106.45(18)
N4 C3 H3A 110.4
C14 C3 H3A 110.4
N4 C3 H3B 110.4
C14 C3 H3B 110.4
H3A C3 H3B 108.6
C15 C14 C3 101.57(19)
C15 C14 H14B 111.5
C3 C14 H14B 111.5
C15 C14 H14A 111.5
C3 C14 H14A 111.5
H14B C14 H14A 109.3
C17 C22 H22B 120.0
C17 C22 H22A 120.0
H22B C22 H22A 120.0
C22 C17 C2 123.9(2)
C22 C17 C15 123.7(2)
C2 C17 C15 112.3(2)
C19 C18 H18A 109.5
C19 C18 H18B 109.5
H18A C18 H18B 109.5
C19 C18 H18C 109.5
H18A C18 H18C 109.5
H18B C18 H18C 109.5
C20 C19 C18 127.7(2)
C20 C19 H19 116.2
C18 C19 H19 116.2
C19 C20 C15 132.8(2)
C19 C20 C21 123.2(2)
C15 C20 C21 103.87(18)
C17 C15 C20 119.3(2)
C17 C15 C14 117.5(2)
C20 C15 C14 105.41(19)
C17 C15 C5 112.20(19)
C20 C15 C5 100.10(19)
C14 C15 C5 99.26(18)
C13 N1 C2 108.0(2)
C13 N1 H1 124(2)
C2 N1 H1 127(2)
C21 N4 C5 101.44(17)
C21 N4 C3 106.37(18)
C5 N4 C3 99.47(18)
loop_
_geom_bond_atom_site_label_1
_geom_bond_atom_site_label_2
_geom_bond_distance
C2 C7 1.365(3)
C2 N1 1.391(3)
C2 C17 1.458(3)
C21 N4 1.487(3)
C21 C20 1.531(3)
C21 H21A 0.9900
C21 H21B 0.9900
C5 N4 1.495(3)
C5 C6 1.529(3)
C5 C15 1.560(3)
C5 H5 1.0000
C6 C7 1.507(3)
C6 H6A 0.9900
C6 H6B 0.9900
C7 C8 1.431(3)
C8 C9 1.405(3)
C8 C13 1.418(3)
C9 C10 1.387(3)
C9 H9 0.9500
C10 C11 1.403(4)
C10 H10 0.9500
C11 C12 1.390(4)
C11 H11 0.9500
C12 C13 1.395(3)
C12 H12 0.9500
C13 N1 1.376(3)
C3 N4 1.499(3)
C3 C14 1.563(3)
C3 H3A 0.9900
C3 H3B 0.9900
C14 C15 1.542(3)
C14 H14B 0.9900
C14 H14A 0.9900
C22 C17 1.332(3)
C22 H22B 0.9500
C22 H22A 0.9500
C17 C15 1.505(3)
C18 C19 1.505(4)
C18 H18A 0.9800
C18 H18B 0.9800
C18 H18C 0.9800
C19 C20 1.327(3)
C19 H19 0.9500
C20 C15 1.528(3)
N1 H1 0.85(3)
loop_
_geom_torsion_atom_site_label_1
_geom_torsion_atom_site_label_2
_geom_torsion_atom_site_label_3
_geom_torsion_atom_site_label_4
_geom_torsion
N4 C5 C6 C7 -152.37(19)
C15 C5 C6 C7 -39.8(3)
N1 C2 C7 C8 -0.3(3)
C17 C2 C7 C8 -179.3(2)
N1 C2 C7 C6 178.5(2)
C17 C2 C7 C6 -0.5(4)
C5 C6 C7 C2 13.2(3)
C5 C6 C7 C8 -168.3(2)
C2 C7 C8 C9 179.5(3)
C6 C7 C8 C9 0.8(4)
C2 C7 C8 C13 1.2(2)
C6 C7 C8 C13 -177.5(2)
C13 C8 C9 C10 1.8(3)
C7 C8 C9 C10 -176.3(3)
C8 C9 C10 C11 0.3(3)
C9 C10 C11 C12 -1.3(4)
C10 C11 C12 C13 0.2(4)
C11 C12 C13 N1 178.6(2)
C11 C12 C13 C8 2.0(3)
C9 C8 C13 N1 179.8(2)
C7 C8 C13 N1 -1.6(2)
C9 C8 C13 C12 -3.0(3)
C7 C8 C13 C12 175.6(2)
N4 C3 C14 C15 -0.1(2)
C7 C2 C17 C22 -162.1(3)
N1 C2 C17 C22 19.0(4)
C7 C2 C17 C15 14.6(3)
N1 C2 C17 C15 -164.2(2)
C18 C19 C20 C15 -0.4(5)
C18 C19 C20 C21 -175.3(2)
N4 C21 C20 C19 174.3(2)
N4 C21 C20 C15 -1.9(2)
C22 C17 C15 C20 -107.0(3)
C2 C17 C15 C20 76.2(3)
C22 C17 C15 C14 22.4(3)
C2 C17 C15 C14 -154.3(2)
C22 C17 C15 C5 136.5(2)
C2 C17 C15 C5 -40.3(3)
C19 C20 C15 C17 31.4(4)
C21 C20 C15 C17 -153.0(2)
C19 C20 C15 C14 -103.3(3)
C21 C20 C15 C14 72.4(2)
C19 C20 C15 C5 154.1(3)
C21 C20 C15 C5 -30.3(2)
C3 C14 C15 C17 154.5(2)
C3 C14 C15 C20 -69.8(2)
C3 C14 C15 C5 33.5(2)
N4 C5 C15 C17 179.03(18)
C6 C5 C15 C17 55.8(3)
N4 C5 C15 C20 51.46(19)
C6 C5 C15 C20 -71.7(2)
N4 C5 C15 C14 -56.1(2)
C6 C5 C15 C14 -179.3(2)
C12 C13 N1 C2 -175.5(2)
C8 C13 N1 C2 1.5(3)
C7 C2 N1 C13 -0.8(3)
C17 C2 N1 C13 178.2(2)
C20 C21 N4 C5 35.1(2)
C20 C21 N4 C3 -68.4(2)
C6 C5 N4 C21 68.9(2)
C15 C5 N4 C21 -53.3(2)
C6 C5 N4 C3 177.86(19)
C15 C5 N4 C3 55.68(19)
C14 C3 N4 C21 70.0(2)
C14 C3 N4 C5 -35.0(2)
