#------------------------------------------------------------------------------
#$Date: 2019-11-04 17:29:25 +0200 (Mon, 04 Nov 2019) $
#$Revision: 223161 $
#$URL: file:///home/coder/svn-repositories/cod/cif/1/55/27/1552728.cif $
#------------------------------------------------------------------------------
#
# This file is available in the Crystallography Open Database (COD),
# http://www.crystallography.net/
#
# All data on this site have been placed in the public domain by the
# contributors.
#
data_1552728
loop_
_publ_author_name
'Borley, William'
'Watson, Brandon'
'Nizhnik, Yakov P.'
'Zeller, Matthias'
'Rosokha, Sergiy V.'
_publ_section_title
;
 Complexes of Diiodine with Heteroaromatic <i>N</i>-Oxides: Effects of
 Halogen-Bond Acceptors in Halogen Bonding.
;
_journal_issue                   32
_journal_name_full               'The journal of physical chemistry. A'
_journal_page_first              7113
_journal_page_last               7123
_journal_paper_doi               10.1021/acs.jpca.9b05549
_journal_volume                  123
_journal_year                    2019
_chemical_formula_moiety         'C6 H7 N O, I2'
_chemical_formula_sum            'C6 H7 I2 N O'
_chemical_formula_weight         362.93
_space_group_crystal_system      monoclinic
_space_group_IT_number           14
_space_group_name_Hall           '-P 2yn'
_space_group_name_H-M_alt        'P 1 21/n 1'
_atom_sites_solution_hydrogens   geom
_atom_sites_solution_primary     direct
_atom_sites_solution_secondary   difmap
_audit_creation_method           SHELXL-2018/3
_cell_angle_alpha                90
_cell_angle_beta                 95.264(4)
_cell_angle_gamma                90
_cell_formula_units_Z            4
_cell_length_a                   8.2601(8)
_cell_length_b                   8.6523(7)
_cell_length_c                   13.4871(14)
_cell_measurement_reflns_used    6938
_cell_measurement_temperature    150(2)
_cell_measurement_theta_max      33.1907
_cell_measurement_theta_min      2.7871
_cell_volume                     959.84(16)
_computing_cell_refinement       'SAINT V8.38A (Bruker, 2016)'
_computing_data_collection       'Apex3 v2017.3-0 (Bruker, 2016)'
_computing_data_reduction        'SAINT V8.38A (Bruker, 2016)'
_computing_structure_refinement
;  
SHELXL-2018/3 (Sheldrick, 2015, 2018), 
SHELXLE Rev924 (H\"ubschle et al., 2011)
;
_computing_structure_solution    'SHELXS-97 (Sheldrick, 2008)'
_diffrn_ambient_temperature      150(2)
_diffrn_measured_fraction_theta_full 0.999
_diffrn_measured_fraction_theta_max 0.995
_diffrn_measurement_device_type  'Bruker AXS D8 Quest CMOS diffractometer'
_diffrn_measurement_method       'omega and phi scans'
_diffrn_radiation_monochromator  'Triumph curved graphite crystal'
_diffrn_radiation_type           MoK\a
_diffrn_radiation_wavelength     0.71073
_diffrn_reflns_av_R_equivalents  0.0486
_diffrn_reflns_av_unetI/netI     0.0376
_diffrn_reflns_Laue_measured_fraction_full 0.999
_diffrn_reflns_Laue_measured_fraction_max 0.995
_diffrn_reflns_limit_h_max       12
_diffrn_reflns_limit_h_min       -12
_diffrn_reflns_limit_k_max       13
_diffrn_reflns_limit_k_min       -11
_diffrn_reflns_limit_l_max       20
_diffrn_reflns_limit_l_min       -18
_diffrn_reflns_number            16329
_diffrn_reflns_point_group_measured_fraction_full 0.999
_diffrn_reflns_point_group_measured_fraction_max 0.995
_diffrn_reflns_theta_full        25.242
_diffrn_reflns_theta_max         33.179
_diffrn_reflns_theta_min         2.783
_diffrn_source                   'sealed tube X-ray source'
_exptl_absorpt_coefficient_mu    6.495
_exptl_absorpt_correction_T_max  0.7465
_exptl_absorpt_correction_T_min  0.3156
_exptl_absorpt_correction_type   multi-scan
_exptl_absorpt_process_details
;
 SADABS 2016/2: Krause, L., Herbst-Irmer, R., Sheldrick G.M. & Stalke D.,
 J. Appl. Cryst. 48 (2015) 3-10
;
_exptl_crystal_colour            red
_exptl_crystal_density_diffrn    2.511
_exptl_crystal_description       block
_exptl_crystal_F_000             656
_exptl_crystal_size_max          0.550
_exptl_crystal_size_mid          0.450
_exptl_crystal_size_min          0.210
_refine_diff_density_max         2.130
_refine_diff_density_min         -2.195
_refine_diff_density_rms         0.226
_refine_ls_extinction_coef       0.0046(4)
_refine_ls_extinction_expression Fc^*^=kFc[1+0.001xFc^2^\l^3^/sin(2\q)]^-1/4^
_refine_ls_extinction_method     'SHELXL-2018/3 (Sheldrick 2018)'
_refine_ls_goodness_of_fit_ref   1.077
_refine_ls_hydrogen_treatment    constr
_refine_ls_matrix_type           full
_refine_ls_number_parameters     93
_refine_ls_number_reflns         3660
_refine_ls_number_restraints     0
_refine_ls_restrained_S_all      1.077
_refine_ls_R_factor_all          0.0494
_refine_ls_R_factor_gt           0.0391
_refine_ls_shift/su_max          0.001
_refine_ls_shift/su_mean         0.000
_refine_ls_structure_factor_coef Fsqd
_refine_ls_weighting_details
'w=1/[\s^2^(Fo^2^)+(0.0435P)^2^+4.0069P] where P=(Fo^2^+2Fc^2^)/3'
_refine_ls_weighting_scheme      calc
_refine_ls_wR_factor_gt          0.1029
_refine_ls_wR_factor_ref         0.1082
_reflns_Friedel_coverage         0.000
_reflns_number_gt                2972
_reflns_number_total             3660
_reflns_threshold_expression     'I > 2\s(I)'
_cod_data_source_file            jp9b05549_si_007.cif
_cod_data_source_block           RS77_0m
_cod_original_sg_symbol_H-M      'P 21/n'
_cod_database_code               1552728
_shelx_shelxl_version_number     2018/3
_shelx_space_group_comment
;
The symmetry employed for this shelxl refinement is uniquely defined
by the following loop, which should always be used as a source of
symmetry information in preference to the above space-group names.
They are only intended as comments.
;
_shelx_estimated_absorpt_t_min   0.124
_shelx_estimated_absorpt_t_max   0.342
_shelx_res_file
;
TITL RS77_0m in P2(1)/n
    RS77_0m.res
    created by SHELXL-2018/3 at 13:02:14 on 08-Aug-2018
CELL 0.71073   8.26010   8.65230  13.48710  90.0000  95.2638  90.0000
ZERR    4.00   0.00080   0.00070   0.00140   0.0000   0.0039   0.0000
LATT  1
SYMM 0.5-X, 0.5+Y, 0.5-Z
SFAC C H N O I
UNIT 24 28 4 4 8
LIST 6 ! automatically inserted. Change 6 to 4 for CHECKCIF!!
TEMP -123.160
SIZE 0.55 0.45 0.21

L.S. 4
BOND $H
ACTA
CONF
FMAP 2
PLAN 20
WGHT    0.043500    4.006900
EXTI    0.004632
FVAR       0.33166
C1    1    0.242218    0.326703    0.129042    11.00000    0.03218    0.02380 =
         0.02285    0.00220    0.00273   -0.00054
AFIX  43
H1    2    0.254315    0.262443    0.186357    11.00000   -1.20000
AFIX   0
C2    1    0.217806    0.261109    0.035488    11.00000    0.04507    0.02221 =
         0.03041   -0.00364    0.00348   -0.00391
AFIX  43
H2    2    0.212679    0.151949    0.028302    11.00000   -1.20000
AFIX   0
C3    1    0.200866    0.355386   -0.047701    11.00000    0.04246    0.03266 =
         0.02356   -0.00613    0.00640   -0.00488
AFIX  43
H3    2    0.185266    0.311961   -0.112568    11.00000   -1.20000
AFIX   0
C4    1    0.207032    0.513732   -0.034793    11.00000    0.03683    0.03211 =
         0.02067    0.00081    0.00420   -0.00336
AFIX  43
H4    2    0.193936    0.579450   -0.091388    11.00000   -1.20000
AFIX   0
C5    1    0.232166    0.578579    0.059963    11.00000    0.02548    0.02166 =
         0.02368   -0.00073    0.00368   -0.00029
C6    1    0.240044    0.747260    0.080703    11.00000    0.05599    0.02418 =
         0.02895    0.00078    0.00152    0.00076
AFIX 137
H6A   2    0.146601    0.777781    0.116059    11.00000   -1.50000
H6B   2    0.237863    0.804167    0.017769    11.00000   -1.50000
H6C   2    0.340861    0.771049    0.121956    11.00000   -1.50000
AFIX   0
N1    3    0.248914    0.481324    0.139243    11.00000    0.01648    0.02533 =
         0.01869   -0.00167    0.00395   -0.00280
O1    4    0.273812    0.539721    0.231480    11.00000    0.02148    0.03139 =
         0.01900   -0.00488    0.00022    0.00113
I1    5    0.569979    0.540181    0.282671    11.00000    0.02080    0.02210 =
         0.01997    0.00027    0.00183   -0.00047
I2    5    0.901400    0.538229    0.328630    11.00000    0.02219    0.04021 =
         0.04268    0.00558   -0.00741   -0.00037
HKLF 4




REM  RS77_0m in P2(1)/n
REM wR2 = 0.1082, GooF = S = 1.077, Restrained GooF = 1.077 for all data
REM R1 = 0.0391 for 2972 Fo > 4sig(Fo) and 0.0494 for all 3660 data
REM 93 parameters refined using 0 restraints

END

WGHT      0.0435      4.0069

REM Highest difference peak  2.130,  deepest hole -2.195,  1-sigma level  0.226
Q1    1   0.9779  0.5429  0.3073  11.00000  0.05    2.13
Q2    1   0.6491  0.5430  0.2669  11.00000  0.05    2.11
Q3    1   0.4900  0.5462  0.2990  11.00000  0.05    1.94
Q4    1   0.9087  0.5938  0.3620  11.00000  0.05    1.86
Q5    1   0.8166  0.5471  0.3516  11.00000  0.05    1.69
Q6    1   0.5428  0.5452  0.2192  11.00000  0.05    1.37
Q7    1   0.7006  0.5430  0.3255  11.00000  0.05    1.31
Q8    1   0.9208  0.4888  0.3614  11.00000  0.05    1.21
Q9    1   0.5950  0.5533  0.3400  11.00000  0.05    1.18
Q10   1   0.7649  0.5377  0.2784  11.00000  0.05    1.14
Q11   1   0.4542  0.5084  0.2685  11.00000  0.05    0.98
Q12   1   0.5432  0.4813  0.2503  11.00000  0.05    0.95
Q13   1   0.4421  0.5191  0.2462  11.00000  0.05    0.93
Q14   1   0.7499  0.4654  0.3358  11.00000  0.05    0.93
Q15   1   1.0253  0.5293  0.3635  11.00000  0.05    0.85
Q16   1   0.0456  0.4625 -0.1094  11.00000  0.05    0.81
Q17   1   0.7172  0.4088  0.2789  11.00000  0.05    0.78
Q18   1   0.6168  0.3695  0.2805  11.00000  0.05    0.76
Q19   1   0.7745  0.3866  0.3394  11.00000  0.05    0.74
Q20   1   0.7188  0.6212  0.2776  11.00000  0.05    0.73
;
_shelx_res_checksum              44363
_shelx_hkl_file
;
   1   0   0 1.07872 1.02481   1
  -1   0   0 1.31583 1.07439   1
   1   0   0 1.01274 0.34247   3
  -1   0   0 1.92182 0.37767   2
   2   0   0 18.1790 1.69548   2
  -2   0   0 17.7666 1.63942   2
   2   0   0 15.5193 1.64920   3
  -2   0   0 17.0717 2.92733   1
   4   0   0 338.962 21.8047   3
  -4   0   0 337.195 24.6944   1
   4   0   0 365.200 25.9896   1
   4   0   0 358.069 21.5815   2
  -4   0   0 353.170 21.4324   2
   5   0   0 3.57157 1.95267   2
  -5   0   0 8.66570 4.84787   1
  -5   0   0 0.61979 1.83981   3
  -5   0   0 1.80164 1.44586   2
   5   0   0 -0.9555 6.24974   1
   5   0   0 0.37529 1.44579   3
  -6   0   0 5040.80 260.626   3
  -6   0   0 3884.92 260.064   2
   6   0   0 4554.03 260.299   3
   6   0   0 4384.86 260.435   2
   6   0   0 4334.44 265.753   1
  -6   0   0 4164.04 264.502   1
  -7   0   0 7.25247 3.19801   3
   7   0   0 -1.0889 10.3024   1
   7   0   0 2.25725 2.17071   3
  -7   0   0 1.31176 1.99050   2
   7   0   0 1.74006 3.63671   2
  -7   0   0 -4.8568 6.35418   1
  -8   0   0 168.864 12.2013   2
   8   0   0 148.859 26.2056   1
  -8   0   0 170.326 20.6978   1
   8   0   0 196.726 12.5911   3
  -9   0   0 13.2768 3.78532   2
 -10   0   0 99.5950 8.86950   2
 -11   0   0 4.20735 3.53121   2
 -12   0   0 119.647 11.6076   2
   0  -1   0 5.01875 0.34473   2
   0  -1   0 4.27492 0.74976   1
   0   1   0 5.08104 0.35530   2
  -1  -1   0 13.6398 1.23533   2
  -1  -1   0 12.0922 1.88932   1
   1  -1   0 17.2133 1.78646   1
  -1   1   0 11.6165 1.87529   1
   1   1   0 14.2512 1.98905   1
  -1   1   0 11.7656 0.95574   2
  -2  -1   0 45.9672 4.77364   1
   2  -1   0 47.0012 3.21271   2
  -2  -1   0 49.6034 3.14914   3
  -2   1   0 46.1359 3.18225   2
   2   1   0 48.7467 5.20650   1
   2   1   0 46.5149 3.09455   3
  -3  -1   0 1000.69 59.1719   1
   3  -1   0 976.768 57.2914   3
   3  -1   0 1017.96 57.0221   2
  -3   1   0 916.825 56.9105   2
  -3   1   0 815.276 59.7020   1
   3   1   0 1031.12 56.8942   3
  -3   1   0 859.884 57.1729   3
   3   1   0 1035.74 59.7192   1
   4  -1   0 107.711 6.94830   3
   4  -1   0 91.2162 6.40481   2
  -4  -1   0 80.8423 6.36055   2
  -4  -1   0 94.7893 6.74332   3
  -4  -1   0 92.6236 9.55538   1
  -4   1   0 93.4062 11.1040   1
   4   1   0 90.9504 6.62302   2
  -4   1   0 80.8092 6.19381   2
   4   1   0 87.0570 11.1408   1
  -4   1   0 97.5142 6.73372   3
   5  -1   0 147.660 9.75554   2
  -5  -1   0 129.996 9.47823   2
  -5  -1   0 144.388 9.66385   3
  -5  -1   0 136.355 13.2321   1
   5   1   0 172.328 16.4052   1
   5   1   0 146.049 9.33375   3
   5   1   0 140.675 9.87478   2
  -5   1   0 137.307 9.35921   2
  -6  -1   0 49.5374 5.44741   3
  -6  -1   0 45.6040 5.01743   2
   6  -1   0 40.5946 5.47993   2
  -6   1   0 42.4116 9.01875   1
   6   1   0 44.6023 5.83271   2
   6   1   0 33.3251 10.3544   1
  -6   1   0 56.1940 6.31718   3
  -6   1   0 43.0113 4.57830   2
   6   1   0 48.5959 4.71838   3
   7  -1   0 219.281 27.7021   1
  -7  -1   0 235.256 23.1684   1
   7  -1   0 284.963 18.2371   2
  -7  -1   0 279.767 17.5369   2
  -7  -1   0 314.986 18.1902   3
   7   1   0 269.335 17.3125   3
   7   1   0 264.723 28.8184   1
  -7   1   0 261.725 17.3430   2
   8  -1   0 19.8731 16.9017   1
  -8  -1   0 33.2169 4.62056   2
  -8  -1   0 13.0918 8.34594   1
  -8   1   0 25.4016 4.19655   2
   8   1   0 28.0810 4.42514   3
   8   1   0 24.2163 13.7627   1
  -8   1   0 13.0738 9.61299   1
  -9  -1   0 877.651 53.6111   2
  -9   1   0 866.598 53.4771   2
   9   1   0 890.203 53.5776   3
 -10  -1   0 27.9169 4.73376   2
 -10   1   0 38.7392 5.80009   2
 -11  -1   0 108.007 9.37289   2
 -11   1   0 96.2800 10.9506   2
 -12  -1   0 79.1814 9.97955   2
 -12   1   0 62.7175 9.52412   2
   0  -2   0 9652.97 569.830   1
   1  -2   0 1013.80 58.5539   1
  -1  -2   0 1020.39 59.0620   1
  -1  -2   0 935.005 58.0797   3
  -1   2   0 984.136 58.5296   1
   1   2   0 1007.17 59.0483   1
   1   2   0 933.876 58.0726   3
   2  -2   0 1713.80 103.124   1
  -2  -2   0 1878.62 103.707   1
  -2  -2   0 1667.98 102.022   3
   2   2   0 1796.34 103.704   1
  -2   2   0 1634.55 102.028   2
  -2   2   0 1806.89 102.992   1
   2   2   0 1592.84 101.996   3
  -3  -2   0 2035.77 117.291   3
  -3  -2   0 1983.35 119.457   1
  -3   2   0 2067.39 119.446   1
   3   2   0 2066.94 119.880   1
   3   2   0 1920.30 117.232   3
  -3   2   0 1827.31 117.293   2
  -4  -2   0 1047.87 60.7748   1
   4  -2   0 1074.65 61.6310   1
  -4  -2   0 895.181 57.8384   2
  -4  -2   0 855.061 58.3100   3
   4  -2   0 1040.37 58.1386   2
  -4   2   0 971.211 58.1567   3
   4   2   0 874.135 57.8971   2
  -4   2   0 961.630 57.7069   2
   4   2   0 1087.85 61.6941   1
  -4   2   0 953.153 60.9913   1
   4   2   0 902.624 58.3457   3
  -5  -2   0 225.490 18.1868   1
  -5  -2   0 213.158 14.3914   2
   5  -2   0 232.064 14.4185   2
  -5  -2   0 234.209 14.2750   3
   5  -2   0 265.607 20.3673   1
  -5   2   0 202.823 14.0802   2
   5   2   0 218.439 19.7105   1
  -5   2   0 241.625 19.6133   1
   5   2   0 198.075 14.6159   2
  -5   2   0 244.157 14.8973   3
   5   2   0 221.181 14.0249   3
   6  -2   0 2581.48 147.448   2
  -6  -2   0 2343.24 151.247   1
  -6  -2   0 2527.61 147.395   2
  -6  -2   0 2684.12 147.381   3
   6   2   0 2541.40 147.640   2
   6   2   0 2425.72 147.013   3
  -6   2   0 2238.08 147.037   2
   6   2   0 2484.64 153.254   1
  -7  -2   0 89.7547 14.4052   1
   7  -2   0 118.724 19.2691   1
  -7  -2   0 107.386 9.16429   3
  -7  -2   0 115.786 8.57837   2
   7  -2   0 109.850 9.48492   2
  -7   2   0 137.421 10.9664   3
  -7   2   0 127.139 17.2086   1
  -7   2   0 102.942 8.04139   2
   7   2   0 101.234 7.91864   3
  -8  -2   0 150.945 19.8465   1
  -8  -2   0 177.646 11.9465   2
   8  -2   0 199.418 26.2938   1
  -8   2   0 161.198 11.4626   2
   8   2   0 151.530 11.3448   3
   8   2   0 216.804 29.9667   1
  -9  -2   0 201.886 13.4432   2
   9   2   0 152.670 12.7467   3
  -9   2   0 180.878 12.9527   2
 -10  -2   0 91.0546 8.67039   2
 -10   2   0 84.3583 7.92518   2
  10   2   0 77.3577 8.08666   3
 -11  -2   0 15.0979 4.13382   2
 -11   2   0 21.4955 5.89219   2
 -12  -2   0 98.6715 11.2146   2
 -12   2   0 103.768 10.6635   2
   0  -3   0 2.82279 0.68193   3
   0  -3   0 2.99129 1.27019   1
  -1  -3   0 30.9019 2.18227   2
  -1  -3   0 31.7366 2.24955   3
  -1  -3   0 32.2989 3.67894   1
   1  -3   0 27.4708 2.93624   1
   1   3   0 30.6332 3.79011   1
   1   3   0 29.8593 2.18221   3
  -1   3   0 30.2256 1.93308   2
  -1   3   0 32.1210 2.38883   3
   2  -3   0 10.5944 2.01196   1
  -2  -3   0 7.92323 1.27106   2
   2   3   0 9.19586 1.15103   3
  -2   3   0 11.3258 1.85337   1
   2   3   0 10.2354 2.81933   1
  -3  -3   0 233.274 16.3290   1
   3  -3   0 210.746 15.6614   1
  -3  -3   0 225.743 13.6928   3
   3   3   0 216.693 13.6300   3
   3   3   0 242.004 16.8117   1
  -3   3   0 236.674 15.2754   1
  -3   3   0 211.523 13.6693   2
  -4  -3   0 133.816 7.92874   3
  -4  -3   0 120.337 8.33322   2
  -4  -3   0 110.960 11.3245   1
   4  -3   0 104.005 11.8829   1
  -4   3   0 118.994 8.78281   3
  -4   3   0 106.837 8.14469   2
   4   3   0 133.488 7.82233   3
   4   3   0 145.701 13.0229   1
  -4   3   0 133.389 11.1086   1
   4   3   0 107.883 8.43841   2
  -5  -3   0 155.448 14.3042   1
  -5  -3   0 147.707 10.3699   2
   5  -3   0 186.522 16.6116   1
  -5  -3   0 161.385 10.0643   3
  -5   3   0 147.773 10.9468   3
  -5   3   0 136.099 9.86395   2
   5   3   0 147.573 10.7560   2
   5   3   0 155.359 9.81260   3
   5   3   0 154.538 16.6394   1
  -5   3   0 162.923 14.9219   1
  -6  -3   0 473.063 29.3170   3
   6  -3   0 568.843 36.2985   1
  -6  -3   0 416.741 33.6721   1
  -6  -3   0 511.594 29.6884   2
  -6   3   0 503.896 30.1087   3
   6   3   0 439.834 36.5308   1
   6   3   0 481.867 29.9857   2
  -6   3   0 493.438 34.7975   1
   6   3   0 477.503 29.0046   3
  -6   3   0 411.387 29.0322   2
  -7  -3   0 193.947 20.1076   1
  -7  -3   0 206.702 14.2060   3
  -7  -3   0 236.785 14.2558   2
   7   3   0 204.969 27.5038   1
  -7   3   0 185.100 13.4393   2
  -7   3   0 221.936 22.4519   1
   7   3   0 199.976 13.3962   3
  -8  -3   0 70.0929 6.51775   2
   8  -3   0 61.6059 17.9137   1
  -8  -3   0 40.1485 11.2196   1
   8   3   0 49.4348 17.7094   1
  -8   3   0 57.2232 5.52744   2
   8   3   0 47.6325 5.39037   3
  -8   3   0 83.2378 14.0696   1
  -9  -3   0 411.173 23.5604   2
  -9   3   0 343.871 22.6683   2
   9   3   0 308.866 22.4962   3
 -10  -3   0 111.993 9.66378   2
 -10   3   0 95.2783 8.58021   2
  10   3   0 85.4869 8.64330   3
 -11  -3   0 53.8372 7.62221   2
  11   3   0 57.6875 7.70417   3
 -12  -3   0 224.438 15.9718   2
 -12   3   0 158.208 14.6759   2
   0  -4   0 4069.23 218.955   1
   0  -4   0 3776.32 217.812   3
   0   4   0 3414.56 217.830   3
   0   4   0 3990.30 218.840   1
   0   4   0 3191.48 217.575   2
   1  -4   0 513.946 31.6841   1
  -1  -4   0 536.110 30.8504   3
  -1  -4   0 508.860 30.6819   2
  -1  -4   0 544.619 32.4245   1
   1  -4   0 508.159 31.6273   1
   1   4   0 511.971 30.8062   3
  -1   4   0 496.372 31.0057   3
   1   4   0 514.350 32.2743   1
  -1   4   0 512.142 30.5413   2
   2  -4   0 142.048 9.70788   1
  -2  -4   0 122.157 8.61150   2
  -2  -4   0 142.481 8.56921   3
  -2  -4   0 142.539 10.7870   1
   2   4   0 119.964 8.52122   3
   2   4   0 142.925 11.0932   1
  -2   4   0 143.539 8.34852   2
  -2   4   0 136.789 8.87813   3
  -2   4   0 141.877 8.26594   2
  -3  -4   0 5455.78 304.485   1
  -3  -4   0 4900.15 301.870   3
   3  -4   0 5304.55 303.271   1
  -3   4   0 5303.55 302.935   1
  -3   4   0 4691.20 301.603   2
   3   4   0 5351.32 304.529   1
   3   4   0 4770.60 301.653   3
  -4  -4   0 132.470 10.1071   2
   4  -4   0 137.378 13.2176   1
  -4  -4   0 157.839 9.75212   3
  -4  -4   0 176.121 13.9140   1
  -4   4   0 168.611 10.7433   3
   4   4   0 159.135 9.63078   3
   4   4   0 130.520 10.3369   2
   4   4   0 154.820 14.7964   1
  -4   4   0 159.316 12.1280   1
  -5  -4   0 387.776 23.3672   2
  -5  -4   0 384.373 27.4187   1
   5  -4   0 350.919 27.4399   1
  -5  -4   0 385.182 22.8996   3
  -5   4   0 342.644 22.7524   2
   5   4   0 402.526 29.5770   1
  -5   4   0 363.274 23.7135   3
   5   4   0 404.676 22.7415   3
  -5   4   0 384.110 26.1906   1
   5   4   0 331.991 23.5107   2
  -6  -4   0 901.322 54.3508   3
  -6  -4   0 969.117 54.8366   2
   6  -4   0 997.299 60.1854   1
  -6  -4   0 841.394 59.0422   1
   6   4   0 877.219 61.4006   1
   6   4   0 885.014 55.0414   2
   6   4   0 907.259 54.0773   3
  -6   4   0 836.163 54.1192   2
  -6   4   0 911.920 58.6543   1
  -7  -4   0 180.925 13.1860   3
  -7  -4   0 199.572 26.3364   1
  -7   4   0 193.212 21.1673   1
   7   4   0 197.602 12.3593   3
  -7   4   0 179.053 12.3738   2
   7   4   0 176.452 26.2306   1
  -8  -4   0 48.9203 6.02834   2
  -8  -4   0 32.2315 11.7442   1
  -8   4   0 33.9733 4.60314   2
   8   4   0 26.7255 18.4615   1
  -8   4   0 31.7487 14.9028   1
   8   4   0 32.6714 4.51666   3
  -9   4   0 383.839 23.6837   2
   9   4   0 354.114 23.5279   3
 -10  -4   0 24.7956 6.08504   2
  10   4   0 12.5817 3.63030   3
 -10   4   0 21.6909 3.99488   2
 -11  -4   0 42.6438 6.25353   2
 -11   4   0 36.2206 5.59194   2
  11   4   0 24.0650 4.91461   3
 -12  -4   0 26.4847 6.43522   2
 -12   4   0 27.6861 5.32675   2
   0  -5   0 2.38605 1.23397   3
   0  -5   0 -1.1610 2.21509   1
   0   5   0 3.04179 2.19592   1
   0   5   0 4.27972 1.20389   3
  -1  -5   0 0.93205 0.60707   2
  -1  -5   0 0.57920 2.61023   1
  -1  -5   0 -0.5370 0.97500   3
   1  -5   0 -0.0475 1.81985   1
   1  -5   0 0.84434 2.37586   1
   1   5   0 -0.8423 0.91810   3
  -1   5   0 0.87207 0.46388   2
  -1   5   0 3.12643 1.17321   3
   1   5   0 2.13910 2.58026   1
   1   5   0 1.67520 1.03180   2
   2  -5   0 1.78223 2.07185   1
  -2  -5   0 5.28875 3.41752   1
   2  -5   0 2.56372 2.12929   1
  -2  -5   0 2.19131 1.05514   3
   2   5   0 1.53180 1.37022   2
  -2   5   0 2.48959 0.67998   2
   2   5   0 1.75842 0.92337   3
  -2   5   0 1.10226 1.23040   3
   2   5   0 2.78108 3.24595   1
  -3  -5   0 51.9050 3.79733   3
  -3  -5   0 36.7198 7.09337   1
  -3  -5   0 44.2516 4.07727   2
   3  -5   0 54.2823 6.31785   1
   3   5   0 37.2412 3.48968   3
   3   5   0 47.8208 8.40749   1
  -3   5   0 41.0345 3.30898   2
  -3   5   0 45.5809 4.45160   3
  -4  -5   0 175.512 10.6181   3
  -4  -5   0 165.251 17.1300   1
  -4  -5   0 162.015 10.9716   2
   4  -5   0 162.521 14.0929   1
   4   5   0 175.833 15.9317   1
  -4   5   0 153.266 10.7244   2
   4   5   0 186.413 10.4750   3
  -4   5   0 169.723 12.6840   1
   4   5   0 134.397 11.2066   2
   5  -5   0 14.0741 6.49471   1
  -5  -5   0 13.3116 2.23019   3
  -5  -5   0 8.86155 2.38843   2
  -5  -5   0 11.5052 6.59534   1
   5   5   0 9.71189 1.70884   3
   5   5   0 8.57646 8.07574   1
  -5   5   0 4.58856 3.22104   3
   5   5   0 11.3420 3.21542   2
  -5   5   0 9.09610 4.49310   1
  -5   5   0 7.06566 1.68167   2
  -6  -5   0 561.721 35.9673   3
  -6  -5   0 656.331 36.6157   2
   6  -5   0 645.016 42.2535   1
  -6  -5   0 572.986 41.5970   1
   6   5   0 603.054 37.6720   2
   6   5   0 596.414 35.6998   3
  -6   5   0 595.927 39.8143   1
  -6   5   0 503.973 35.6509   2
  -7  -5   0 11.5209 9.17316   1
  -7  -5   0 15.2071 3.46799   2
  -7  -5   0 11.4904 3.91510   3
   7  -5   0 5.47638 10.3196   1
   7   5   0 14.9187 2.59645   3
  -7   5   0 9.72835 8.70365   1
  -7   5   0 18.8334 2.81595   2
   7   5   0 18.2843 15.1219   1
  -8  -5   0 61.4288 13.7916   1
   8   5   0 63.6673 6.11492   3
  -8   5   0 75.3606 6.24945   2
   8   5   0 59.5360 21.9804   1
  -9   5   0 62.5357 6.95168   2
   9   5   0 55.5343 6.69350   3
 -10  -5   0 158.218 13.6134   2
  10   5   0 121.043 11.0962   3
 -10   5   0 155.944 11.2702   2
 -11  -5   0 9.39226 4.62842   2
 -11   5   0 10.1834 3.93925   2
  11   5   0 14.7947 7.12942   3
   0  -6   0 48.3450 3.13341   2
   0  -6   0 49.8590 6.75248   1
   0   6   0 47.9555 4.12023   3
   1  -6   0 919.027 55.4495   1
  -1  -6   0 923.898 53.5342   2
  -1  -6   0 968.893 56.2856   1
   1  -6   0 885.925 55.1524   1
  -1  -6   0 965.976 53.9880   3
  -1   6   0 775.815 53.4319   2
   1   6   0 935.646 53.8948   3
  -1   6   0 943.027 54.0478   3
   1   6   0 812.528 57.0522   1
  -2  -6   0 3.87066 1.11561   2
  -2  -6   0 3.40449 3.79483   1
   2  -6   0 -2.7063 2.51351   1
   2  -6   0 0.18525 2.69017   1
  -2  -6   0 1.80857 1.48779   3
  -2   6   0 3.19778 1.70730   3
  -2   6   0 1.73934 0.69911   2
   2   6   0 2.17168 1.20430   3
   2   6   0 -2.1594 3.83743   1
  -3  -6   0 3456.22 200.631   1
   3  -6   0 3400.20 198.675   1
   3  -6   0 3543.52 198.926   1
  -3  -6   0 3288.96 197.291   2
  -3  -6   0 3557.55 197.322   3
   3   6   0 3411.92 200.574   1
  -3   6   0 2965.41 196.910   2
  -3   6   0 3332.82 197.695   3
   3   6   0 3227.23 197.149   3
  -3   6   0 3169.00 196.807   2
   4  -6   0 6.42545 4.73446   1
  -4  -6   0 9.79623 2.07357   3
  -4  -6   0 11.0259 2.29681   2
  -4  -6   0 0.35240 5.60956   1
  -4   6   0 9.65462 1.34296   2
  -4   6   0 2.37300 2.37408   3
   4   6   0 2.53543 2.63695   2
   4   6   0 5.32752 1.54906   3
  -4   6   0 6.03274 1.48461   2
   4   6   0 7.06230 6.88206   1
  -5  -6   0 479.121 34.5047   1
   5  -6   0 419.942 32.8889   1
  -5  -6   0 487.104 29.2046   2
  -5  -6   0 494.287 28.8258   3
   5   6   0 531.877 28.5864   3
   5   6   0 444.492 29.5485   2
   5   6   0 448.628 35.3811   1
  -5   6   0 479.064 31.1422   1
  -5   6   0 428.742 28.4349   2
   6  -6   0 2.32470 8.83183   1
  -6  -6   0 7.51924 3.32672   3
  -6  -6   0 3.42182 8.00344   1
  -6   6   0 15.9732 2.58069   2
  -6   6   0 3.55950 5.99259   1
   6   6   0 18.2341 12.9350   1
   6   6   0 19.0231 2.80244   3
  -7  -6   0 205.958 25.1235   1
  -7   6   0 207.799 13.9052   2
  -7   6   0 206.054 21.1366   1
   7   6   0 179.780 31.9383   1
   7   6   0 229.682 13.9487   3
  -8  -6   0 -9.6488 12.5188   1
  -8  -6   0 5.54626 3.59268   2
   8   6   0 1.35615 2.37857   3
  -8   6   0 -0.3863 2.31049   2
  -9   6   0 337.487 20.6577   2
   9   6   0 295.121 20.5523   3
 -10  -6   0 2.18702 4.13599   2
 -10   6   0 0.07478 3.15139   2
  10   6   0 1.42522 3.74043   3
 -11  -6   0 69.3477 10.0772   2
 -11   6   0 70.7373 8.53985   2
   0  -7   0 20.3722 4.81368   1
  -1  -7   0 9.79294 4.39613   1
   1  -7   0 11.4331 3.71399   1
  -1  -7   0 12.8882 2.22323   3
  -1  -7   0 12.9900 1.47565   2
   1  -7   0 10.9084 3.95938   1
   1   7   0 12.0463 1.71732   2
   1   7   0 9.92254 4.43676   1
   1   7   0 10.4371 1.88267   3
  -1   7   0 10.3752 2.06107   3
   2  -7   0 6.26306 3.65422   1
  -2  -7   0 1.82484 1.90474   3
  -2  -7   0 -2.0790 4.40426   1
   2  -7   0 0.19700 3.56030   1
   2   7   0 1.20349 4.65057   1
  -2   7   0 0.88592 1.65484   3
   2   7   0 -0.3827 1.25038   3
   2   7   0 3.06367 1.93945   2
  -3  -7   0 4.88994 1.65533   2
   3  -7   0 4.56037 3.87767   1
  -3  -7   0 -0.1907 5.61815   1
   3  -7   0 2.34988 4.09959   1
  -3  -7   0 8.28734 2.38521   3
  -3   7   0 4.81444 1.09995   2
  -3   7   0 5.78110 2.38318   3
  -3   7   0 4.49344 0.87709   2
   3   7   0 0.64705 5.52452   1
   3   7   0 4.50663 2.47186   2
   3   7   0 1.59168 1.71812   3
   4  -7   0 173.433 15.4945   1
   4  -7   0 156.876 13.9956   1
  -4  -7   0 165.029 11.2374   3
  -4  -7   0 184.077 11.1654   2
  -4  -7   0 176.598 17.8498   1
  -4   7   0 139.696 10.3880   2
   4   7   0 151.889 11.8782   2
   4   7   0 185.553 18.7267   1
  -4   7   0 167.314 10.2121   2
  -4   7   0 169.118 11.7023   3
   4   7   0 175.511 10.7619   3
  -5  -7   0 -3.6580 2.01720   2
   5  -7   0 -2.4167 5.77606   1
  -5  -7   0 -2.8376 2.68376   3
  -5  -7   0 6.28280 7.89285   1
   5  -7   0 -7.1709 7.28877   1
  -5   7   0 3.01194 1.56362   2
  -5   7   0 0.32450 1.38913   2
   5   7   0 -4.6108 3.66594   2
   5   7   0 10.7292 10.0162   1
  -5   7   0 5.32048 2.92296   3
   5   7   0 -0.6220 1.55900   3
  -6  -7   0 316.306 19.9907   2
  -6  -7   0 249.364 27.3778   1
   6   7   0 317.636 33.2548   1
  -6   7   0 301.946 18.8459   2
  -6   7   0 301.441 20.5856   3
   6   7   0 306.912 18.9655   3
  -7  -7   0 6.53518 12.2790   1
  -7  -7   0 16.8991 4.20688   2
  -7   7   0 12.7569 2.68852   2
   7   7   0 12.0862 2.72774   3
  -7   7   0 9.45307 4.26230   3
   7   7   0 33.0705 19.7219   1
  -8  -7   0 62.2963 8.02417   2
  -8   7   0 58.3608 5.91814   2
   8   7   0 50.6169 5.80607   3
  -9  -7   0 26.3581 6.66010   2
   9   7   0 8.28174 3.88867   3
  -9   7   0 17.8969 3.72215   2
 -10  -7   0 127.018 12.5511   2
  10   7   0 114.797 10.7085   3
 -10   7   0 131.910 10.5323   2
   0  -8   0 272.017 20.1762   1
   0  -8   0 244.007 19.3311   1
   0   8   0 257.020 16.3976   3
  -1  -8   0 446.735 31.4072   1
   1  -8   0 459.630 30.6489   1
   1  -8   0 447.900 29.9219   1
  -1  -8   0 444.668 26.9063   2
   1   8   0 463.520 27.6213   3
   1   8   0 466.055 27.1350   2
  -1   8   0 448.534 27.7588   3
   1   8   0 437.061 30.9029   1
   2  -8   0 123.611 12.0616   1
   2  -8   0 138.059 12.5280   1
  -2  -8   0 123.190 9.15459   3
  -2  -8   0 112.364 14.0402   1
   2   8   0 114.211 13.9389   1
   2   8   0 128.015 8.49438   3
  -2   8   0 118.627 8.83676   3
   3  -8   0 1262.30 78.5228   1
  -3  -8   0 1321.03 75.9798   2
   3  -8   0 1325.24 78.5405   1
  -3  -8   0 1285.91 81.0561   1
  -3  -8   0 1221.07 76.4108   3
   3   8   0 1250.00 76.3758   2
   3   8   0 1286.76 76.1699   3
  -3   8   0 1292.43 76.7966   3
   3   8   0 1251.13 80.5889   1
  -4  -8   0 41.9500 5.46539   3
  -4  -8   0 50.8737 4.69819   2
   4  -8   0 40.9760 9.56143   1
  -4  -8   0 25.1578 9.85778   1
  -4   8   0 45.5225 3.63966   2
   4   8   0 47.2675 11.0635   1
   4   8   0 52.3070 6.84127   2
  -4   8   0 45.2189 5.66730   3
   4   8   0 53.3359 4.53291   3
  -4   8   0 46.6722 3.33274   2
  -5  -8   0 298.403 17.5705   2
   5  -8   0 237.885 24.7113   1
  -5  -8   0 234.421 26.9864   1
  -5   8   0 271.914 18.4676   3
   5   8   0 287.590 17.0225   3
   5   8   0 229.157 28.2467   1
   5   8   0 216.523 18.8296   2
  -5   8   0 267.217 16.5544   2
  -5   8   0 308.602 17.3621   2
  -6  -8   0 124.060 9.76793   2
   6   8   0 103.599 8.56213   3
  -6   8   0 124.207 8.36561   2
  -6   8   0 133.717 11.3008   3
  -6   8   0 109.265 8.12256   2
   6   8   0 65.2130 19.6803   1
  -7  -8   0 115.975 9.99840   2
  -7   8   0 98.0906 11.1060   3
   7   8   0 105.754 8.43649   3
  -7   8   0 118.833 8.36175   2
  -8  -8   0 22.7977 5.13152   2
  -8   8   0 20.2995 5.83960   3
  -8   8   0 24.7471 3.70197   2
  -9  -8   0 176.832 14.6141   2
   9   8   0 143.943 12.3408   3
  -9   8   0 172.735 12.3080   2
  -9   8   0 162.936 15.3754   3
 -10  -8   0 1.73595 5.35498   2
 -10   8   0 -0.2348 5.51854   3
 -10   8   0 6.10934 4.17287   2
  10   8   0 7.30974 7.48995   3
   0  -9   0 -2.5452 6.18826   1
   0   9   0 -0.6236 2.00934   3
   1  -9   0 33.5869 7.24327   1
  -1   9   0 46.3849 4.53698   3
   1   9   0 37.4578 4.33200   3
   2  -9   0 -6.2025 5.74068   1
  -2   9   0 -1.8122 2.18011   3
   2   9   0 -1.3775 1.69258   3
   2   9   0 0.08189 2.14105   2
   2   9   0 -8.9150 7.44478   1
  -3  -9   0 19.0202 3.00373   2
   3   9   0 -2.9191 11.4657   1
   3   9   0 24.3295 3.50743   2
   3   9   0 29.8532 4.08918   3
  -3   9   0 29.0151 4.10016   3
  -4  -9   0 77.0386 6.08599   2
   4   9   0 82.6677 6.29495   3
  -4   9   0 78.5727 7.50852   3
   4   9   0 65.4764 8.38776   2
  -5  -9   0 -1.2510 2.15990   2
  -5   9   0 2.25654 3.33134   3
   5   9   0 0.79157 2.06209   3
  -6  -9   0 73.6749 7.56466   2
   6   9   0 68.1208 6.51324   3
  -6   9   0 70.6683 9.50696   3
  -7  -9   0 55.6381 7.87660   2
  -7   9   0 64.0788 9.68563   3
   7   9   0 56.9847 6.09949   3
  -7   9   0 67.3470 6.08941   2
  -8  -9   0 17.7295 5.13417   2
   8   9   0 9.64194 3.37929   3
  -8   9   0 20.3595 5.87087   3
  -9  -9   0 41.6764 7.17646   2
   9   9   0 42.3875 6.77364   3
  -9   9   0 70.4329 9.59851   3
   0  10   0 684.790 41.7232   3
  -1  10   0 90.3038 7.69576   3
   1  10   0 97.8914 7.53264   3
  -2 -10   0 93.7488 6.36187   2
   2  10   0 101.256 7.62030   3
  -2  10   0 101.325 8.27100   3
  -3 -10   0 250.347 15.9984   2
   3  10   0 268.268 16.9055   3
  -3  10   0 263.955 17.6623   3
  -4 -10   0 36.7137 4.12676   2
  -4  10   0 45.0793 6.82558   3
   4  10   0 36.4596 4.74127   3
  -5 -10   0 60.1239 5.88248   2
   5  10   0 56.1819 5.78144   3
  -5  10   0 59.1194 9.20620   3
  -6 -10   0 232.791 15.7832   2
  -6  10   0 211.674 17.8262   3
   6  10   0 233.557 15.3368   3
  -7 -10   0 13.9124 4.51532   2
   7  10   0 12.6170 3.39966   3
  -7  10   0 18.3684 5.91870   3
  -8 -10   0 41.9065 8.81747   2
  -8  10   0 58.8684 8.91290   3
   8  10   0 52.7164 8.03952   3
   0  11   0 -2.4218 2.41651   3
  -1  11   0 47.4076 5.82473   3
   1  11   0 41.9170 5.32808   3
  -2  11   0 1.85757 2.84633   3
   2  11   0 -1.0273 2.29703   3
   3  11   0 27.6391 3.79837   3
  -3  11   0 23.4727 4.72511   3
  -4 -11   0 1.07290 1.90160   2
  -4  11   0 3.65390 3.95830   3
   4  11   0 0.58504 2.59480   3
  -5 -11   0 -3.2463 2.37036   2
  -5  11   0 -5.9007 4.22683   3
   5  11   0 0.11788 2.70426   3
  -6 -11   0 15.3646 3.81104   2
   6  11   0 17.6389 3.91998   3
  -6  11   0 10.4169 5.59765   3
  -7 -11   0 62.4224 8.71923   2
  -7  11   0 58.5783 8.70391   3
   0  12   0 274.414 19.0398   3
   1  12   0 -3.7813 3.00554   3
  -2  12   0 152.590 12.0318   3
   2  12   0 148.064 11.2420   3
  -3  12   0 2.65360 4.06677   3
   3  12   0 -0.2614 3.46051   3
  -4  12   0 62.1205 9.16464   3
   4  12   0 75.0544 10.2762   3
  -5  12   0 2.27790 4.97311   3
   5  12   0 5.56058 4.25761   3
   0  13   0 -6.7308 3.50571   3
   1  13   0 29.1939 4.44241   3
  -1  13   0 28.9627 5.10129   3
   2  13   0 -1.0393 3.36492   3
  -2  13   0 6.41897 4.00117   3
 -12   0   1 0.65722 4.67947   2
 -11   0   1 4.05324 3.64722   2
 -10   0   1 1.93497 3.34523   2
  -9   0   1 524.511 32.8658   2
  -8   0   1 0.09001 2.03926   2
   8   0  -1 2.68431 13.4206   1
  -8   0   1 10.5751 8.63375   1
  -7   0   1 90.9728 7.72250   3
   7   0  -1 74.8237 14.7396   1
  -7   0   1 90.9943 14.1324   1
  -7   0   1 79.8015 6.90639   2
   7   0  -1 76.6992 8.33065   2
   6   0  -1 13.3307 8.97308   1
  -6   0   1 3.12098 5.84035   1
   6   0  -1 14.8194 3.38398   2
  -6   0   1 13.9389 2.99377   3
   5   0  -1 3.10755 1.86213   2
   5   0  -1 0.90611 1.50697   3
  -5   0   1 1.78063 1.44160   2
  -5   0   1 1.80492 4.81775   1
   5   0  -1 1.18141 6.57438   1
  -5   0   1 1.17403 1.69707   3
  -4   0   1 9.42228 1.78098   2
   4   0  -1 1.98537 5.30587   1
   4   0  -1 4.99157 1.70074   2
  -4   0   1 5.35699 4.27738   1
  -4   0   1 10.5820 1.83883   3
   4   0  -1 4.87937 1.64703   3
   3   0  -1 9681.28 550.287   1
  -3   0   1 9358.47 549.945   1
   3   0  -1 8762.67 546.904   2
   2   0  -1 2.48429 0.79619   3
   2   0  -1 -0.9180 2.39926   1
  -2   0   1 2.02209 2.35846   1
  -2   0   1 0.22741 0.67540   3
  -2   0   1 0.38005 0.69806   2
   2   0  -1 0.93427 0.77119   2
  -1   0   1 1248.47 75.9727   1
  -1   0   1 1281.48 74.7911   2
   0   0  -1 0.09951 0.24372   1
   0   0   1 0.13245 0.23708   1
   0   0  -1 0.14538 0.08539   2
   0   0  -1 -0.0269 0.06578   3
  -1   0  -1 796.708 46.9793   2
  -1   0  -1 799.514 47.3800   1
   1   0   1 786.093 47.0265   3
  -2   0  -1 1.04330 0.73242   3
   2   0   1 2.48911 1.57167   1
  -2   0  -1 1.28760 1.46082   1
   2   0   1 2.42581 0.67528   2
   2   0   1 0.56348 0.65949   3
  -3   0  -1 9999.99 580.582   1
  -3   0  -1 9614.27 578.868   3
  -4   0  -1 -1.0569 3.10716   1
   4   0   1 -2.5507 3.97762   1
  -4   0  -1 5.15244 1.58881   3
  -4   0  -1 3.46560 1.26577   2
   4   0   1 8.10024 1.52090   3
  -5   0  -1 1957.85 119.406   2
   5   0   1 1943.12 119.501   3
   5   0   1 2229.77 119.746   2
  -5   0  -1 1899.91 122.665   1
  -5   0  -1 2021.07 119.736   3
  -6   0  -1 38.3094 4.56993   2
   6   0   1 42.2602 5.50278   2
  -6   0  -1 39.5628 5.60012   3
   6   0   1 48.1673 4.87267   3
  -7   0  -1 440.404 28.7082   2
   7   0   1 511.724 38.2507   1
   7   0   1 489.220 28.9814   3
  -7   0  -1 434.927 34.0451   1
   8   0   1 5.55539 12.5591   1
  -8   0  -1 12.1883 8.39595   1
  -8   0  -1 3.95038 2.39400   2
   8   0   1 4.74566 2.73139   3
  -9   0  -1 1291.72 85.6352   2
   9   0   1 1564.36 86.1274   3
 -10   0  -1 2.20050 2.95526   2
 -11   0  -1 174.249 13.2253   2
 -12   0  -1 16.7408 5.41798   2
 -12  -1   1 460.002 31.1603   2
 -12   1   1 492.583 31.0611   2
 -11  -1   1 9.28437 3.76529   2
 -10  -1   1 574.243 35.3882   2
 -10   1   1 548.624 35.1063   2
  -9  -1   1 130.533 10.3672   2
  -9   1   1 122.425 10.4150   2
  -8  -1   1 260.795 17.5357   2
   8  -1  -1 325.905 31.0752   1
  -8  -1   1 270.889 18.6534   3
  -8  -1   1 251.616 24.9984   1
   8   1  -1 269.403 32.5658   1
  -8   1   1 308.773 26.8653   1
  -8   1   1 252.932 17.4031   2
   8   1  -1 261.138 17.4178   3
   7  -1  -1 87.3294 9.00499   2
  -7  -1   1 90.4175 8.34313   3
  -7  -1   1 96.6203 14.9984   1
  -7  -1   1 104.699 8.07533   2
   7  -1  -1 138.155 20.9291   1
  -7   1   1 112.836 8.98731   3
  -7   1   1 115.141 16.1148   1
   7   1  -1 104.808 7.66146   3
  -7   1   1 96.3118 7.69326   2
   7   1  -1 59.4519 14.8691   1
   7   1  -1 95.0008 10.1113   2
  -6  -1   1 1945.32 110.552   2
  -6  -1   1 1864.92 110.488   3
   6  -1  -1 2243.55 117.816   1
   6  -1  -1 1846.54 110.612   2
  -6  -1   1 1604.06 114.502   1
   6   1  -1 1995.43 110.785   2
   6   1  -1 1676.85 110.198   3
  -6   1   1 1816.95 110.361   2
   6   1  -1 1707.65 116.596   1
   5  -1  -1 20.6541 2.83600   2
   5  -1  -1 6.43396 8.19651   1
  -5  -1   1 21.9315 3.03982   2
  -5  -1   1 20.4725 3.11351   3
  -5  -1   1 11.3056 5.30408   1
   5   1  -1 18.6143 2.60068   3
   5   1  -1 20.0270 2.96879   2
  -5   1   1 25.7940 3.62999   3
  -5   1   1 19.2879 2.78611   2
  -5   1   1 16.8337 6.30939   1
   5   1  -1 7.25851 7.15893   1
  -4  -1   1 2265.31 134.550   2
   4  -1  -1 1953.97 134.692   2
  -4  -1   1 2164.20 137.639   1
  -4  -1   1 2565.41 134.477   3
  -4   1   1 2466.01 138.716   1
  -4   1   1 2403.51 134.767   3
   4   1  -1 2317.11 134.621   2
  -4   1   1 2040.59 134.382   2
   4   1  -1 2255.62 138.666   1
   4   1  -1 2252.30 134.306   3
  -3  -1   1 284.659 19.3577   1
  -3  -1   1 272.789 16.4870   2
   3  -1  -1 247.143 16.3486   2
   3   1  -1 249.982 16.4379   2
  -3   1   1 257.175 19.3631   1
  -3   1   1 247.111 16.3106   2
  -3   1   1 259.221 16.4989   3
   3   1  -1 305.767 16.2447   3
   3   1  -1 287.380 20.1457   1
  -2  -1   1 1365.52 96.1818   2
  -2  -1   1 1712.79 98.2196   1
   2   1  -1 1719.15 98.4742   1
   2   1  -1 1709.62 96.0386   3
  -1  -1   1 10.7140 1.99686   1
  -1  -1   1 13.0395 0.84683   3
  -1  -1   1 12.9186 1.08726   2
  -1   1   1 14.8427 1.03676   2
   1   1  -1 12.4282 0.84621   3
  -1   1   1 11.4396 1.80123   1
   1   1  -1 10.9846 1.03905   2
   1   1  -1 8.95356 1.95151   1
   0  -1  -1 248.019 15.9605   1
   0  -1   1 261.467 15.8921   1
   0  -1   1 266.559 15.5500   2
   0   1   1 272.223 15.5951   3
  -1  -1  -1 9.85918 1.77161   1
   1  -1   1 8.71980 1.34542   3
  -1  -1  -1 11.9056 0.92598   3
  -1  -1  -1 12.4017 1.02159   2
  -1   1  -1 10.6533 1.68890   1
   1   1   1 10.5139 0.92117   3
   1   1   1 11.8548 1.82051   1
   2  -1   1 700.690 46.8772   1
  -2  -1  -1 704.649 45.7656   2
  -2  -1  -1 802.439 45.7402   3
  -2  -1  -1 818.604 46.9303   1
   2   1   1 772.934 45.8152   2
   2   1   1 773.323 45.7017   3
  -2   1  -1 794.671 45.7040   2
   2   1   1 794.334 46.9831   1
   3  -1   1 47.2106 3.31921   2
   3  -1   1 43.9004 6.37166   1
  -3  -1  -1 41.4321 5.10191   1
  -3  -1  -1 36.0370 3.25721   2
  -3  -1  -1 43.7899 3.22027   3
   3  -1   1 41.6899 3.67373   3
  -3   1  -1 39.9689 3.13223   2
  -3   1  -1 38.9405 3.77861   3
   3   1   1 45.9665 3.47277   2
   3   1   1 32.2236 5.51688   1
   3   1   1 41.5851 3.14598   3
   4  -1   1 22.2152 3.25026   3
  -4  -1  -1 23.1365 2.59576   2
  -4  -1  -1 29.5329 2.91149   3
  -4  -1  -1 21.6840 4.39908   1
   4   1   1 33.5452 5.59688   1
  -4   1  -1 28.5637 3.39369   3
   4   1   1 29.1124 3.12257   2
  -4   1  -1 22.8897 2.54559   2
  -4   1  -1 19.0575 4.83384   1
   5  -1   1 4.63941 1.90413   3
  -5  -1  -1 0.96771 1.40332   2
  -5  -1  -1 1.94560 1.77275   3
   5  -1   1 3.18237 5.86741   1
  -5  -1  -1 2.30523 3.98371   1
   5  -1   1 8.63663 2.08294   2
  -5   1  -1 4.24427 5.65005   1
   5   1   1 3.61050 5.56075   1
   5   1   1 2.85956 1.45229   3
  -5   1  -1 -0.9343 2.09983   3
   5   1   1 1.82979 2.07606   2
  -5   1  -1 2.68945 1.42395   2
   6  -1   1 191.531 12.3527   2
  -6  -1  -1 182.280 12.3744   3
  -6  -1  -1 176.060 16.6022   1
  -6  -1  -1 165.304 11.8127   2
   6   1   1 174.284 11.7275   3
   6   1   1 166.322 18.4969   1
   6   1   1 183.411 12.5441   2
  -6   1  -1 169.107 11.6407   2
   7  -1   1 3.22795 2.41413   3
   7  -1   1 2.17271 10.2114   1
  -7  -1  -1 -2.3332 5.80752   1
   7  -1   1 -2.2171 3.19203   2
  -7  -1  -1 5.88220 2.19894   2
  -7  -1  -1 1.71976 3.34333   3
   7   1   1 11.4484 10.2808   1
  -7   1  -1 1.70861 1.75788   2
   7   1   1 2.53659 1.88584   3
  -7   1  -1 7.14836 3.91715   3
  -7   1  -1 5.82951 8.15637   1
  -8  -1  -1 86.4524 7.49914   2
  -8  -1  -1 122.352 16.1940   1
  -8   1  -1 92.4046 7.40828   2
   8   1   1 94.0158 7.60678   3
  -8   1  -1 113.267 21.3333   1
   8   1   1 63.8684 16.4979   1
  -9  -1  -1 26.5794 4.43806   2
   9   1   1 22.5229 4.13450   3
  -9   1  -1 34.9283 5.59412   2
 -10  -1  -1 57.8956 6.89764   2
 -10   1  -1 57.4727 6.53156   2
  10   1   1 65.6159 7.14416   3
 -11  -1  -1 7.89676 3.82315   2
 -11   1  -1 6.32956 3.55409   2
 -12  -1  -1 218.412 16.3875   2
 -12   1  -1 203.567 16.0863   2
 -12  -2   1 0.69878 4.62459   2
 -12   2   1 -1.2917 4.46540   2
 -11  -2   1 6.55066 3.81943   2
 -10  -2   1 7.29463 3.90449   2
 -10   2   1 3.01938 3.09671   2
  -9  -2   1 233.785 15.3377   2
   9   2  -1 201.185 14.6369   3
  -9   2   1 204.325 14.7585   2
  -8  -2   1 31.3463 4.64605   2
   8  -2  -1 -7.4088 12.7591   1
  -8  -2   1 18.3844 4.63304   3
  -8  -2   1 20.8202 9.14508   1
  -8   2   1 20.5467 3.10309   2
   8   2  -1 15.6846 2.88818   3
  -8   2   1 41.0890 11.3984   1
   8   2  -1 25.5538 15.6158   1
  -7  -2   1 262.830 15.8553   2
   7  -2  -1 232.406 16.1772   2
  -7  -2   1 232.095 15.7362   3
  -7  -2   1 180.925 21.3405   1
  -7   2   1 227.864 15.3208   2
  -7   2   1 261.338 16.5573   3
  -7   2   1 287.076 24.5095   1
   7   2  -1 235.240 28.1801   1
   7   2  -1 214.112 15.0853   3
  -6  -2   1 328.934 20.4379   3
  -6  -2   1 358.686 20.7792   2
  -6  -2   1 277.119 24.8129   1
   6  -2  -1 310.018 20.6058   2
  -6   2   1 301.044 20.2291   2
   6   2  -1 334.143 20.8816   2
   6   2  -1 300.111 20.0496   3
  -6   2   1 346.932 20.9775   3
  -6   2   1 363.766 27.4842   1
   6   2  -1 326.838 28.8031   1
   5  -2  -1 171.764 12.0150   2
  -5  -2   1 202.383 11.8964   3
  -5  -2   1 170.517 16.2938   1
  -5  -2   1 188.165 12.1668   2
  -5   2   1 191.553 17.9736   1
   5   2  -1 201.692 19.6361   1
   5   2  -1 183.258 12.3883   2
   5   2  -1 185.730 11.6489   3
  -5   2   1 193.566 12.4251   3
  -5   2   1 165.765 11.7640   2
  -4  -2   1 383.386 24.0367   2
  -4  -2   1 438.391 23.7266   3
  -4  -2   1 363.122 26.9799   1
  -4   2   1 375.525 24.1493   3
   4   2  -1 402.384 23.6113   3
   4   2  -1 385.890 24.1181   2
  -4   2   1 379.371 29.1855   1
   4   2  -1 391.509 28.4543   1
  -3  -2   1 4961.67 265.767   1
  -3  -2   1 4923.01 262.829   3
   3  -2  -1 4534.98 262.969   2
   3  -2  -1 3875.52 264.698   1
   3   2  -1 4624.80 262.785   3
  -3   2   1 4512.69 268.448   1
   3   2  -1 3729.97 263.044   2
  -2  -2   1 284.768 18.0141   1
  -2  -2   1 288.216 15.8569   3
  -2  -2   1 244.367 16.0869   2
   2  -2  -1 229.685 16.9902   1
   2  -2  -1 267.370 15.9441   2
   2   2  -1 277.686 15.8373   3
   2   2  -1 261.482 17.9126   1
  -1  -2   1 2473.86 153.554   2
  -1  -2   1 2838.70 154.748   1
  -1  -2   1 2475.26 153.478   3
   1   2  -1 2843.25 154.646   1
  -1   2   1 2524.42 153.621   3
   1   2  -1 2356.60 153.564   2
  -1   2   1 2793.95 154.300   1
   1   2  -1 2507.46 153.469   3
   0  -2   1 2910.69 166.966   1
   0  -2  -1 2849.07 167.182   1
   0  -2  -1 2761.31 166.553   3
   0   2   1 2715.47 166.556   3
   0   2   1 2838.58 167.173   1
   0   2  -1 2852.40 166.881   1
  -1  -2  -1 994.877 59.8291   3
  -1  -2  -1 1070.42 60.8003   1
   1  -2   1 1047.42 60.0018   1
   1   2   1 984.037 59.8371   2
   1   2   1 1060.18 60.8364   1
   1   2   1 961.037 59.8177   3
  -1   2  -1 961.548 59.7304   2
  -2  -2  -1 808.694 46.8322   1
  -2  -2  -1 770.878 45.3934   3
   2   2   1 782.117 46.8794   1
  -2   2  -1 789.109 45.3512   2
   2   2   1 767.035 45.5355   2
  -2   2  -1 656.639 45.7299   3
   2   2   1 744.204 45.3609   3
  -2   2  -1 799.342 46.0973   1
   3  -2   1 6622.99 403.435   1
  -3   2  -1 7136.75 403.330   1
   3   2   1 6636.18 401.493   2
   4  -2   1 179.799 15.7117   1
  -4  -2  -1 205.889 14.9221   1
  -4  -2  -1 204.642 12.1379   3
  -4   2  -1 185.570 12.7389   3
  -4   2  -1 191.718 11.9639   2
   4   2   1 177.778 12.2760   2
   4   2   1 198.080 11.9417   3
  -4   2  -1 176.690 15.5960   1
   4   2   1 200.338 15.8741   1
  -5  -2  -1 1296.24 75.3862   3
   5  -2   1 1248.57 79.3174   1
  -5  -2  -1 1246.79 78.5272   1
   5   2   1 1230.47 79.4498   1
  -5   2  -1 1413.43 76.0644   3
  -5   2  -1 1207.16 75.1835   2
  -5   2  -1 1371.58 79.8020   1
   5   2   1 1238.26 75.1620   3
   5   2   1 1119.99 75.5128   2
  -6  -2  -1 910.148 61.0506   1
  -6  -2  -1 964.782 57.1866   3
   6  -2   1 1038.71 62.7444   1
  -6  -2  -1 860.394 56.9873   2
   6   2   1 958.783 56.8218   3
  -6   2  -1 1111.42 62.8929   1
   6   2   1 927.781 62.7904   1
   6   2   1 904.286 57.3885   2
  -6   2  -1 880.720 56.7764   2
  -7  -2  -1 257.029 17.1475   2
  -7  -2  -1 246.063 22.8716   1
   7  -2   1 298.084 26.5377   1
  -7  -2  -1 272.213 17.8554   3
   7   2   1 298.757 28.6937   1
  -7   2  -1 243.696 16.8816   2
   7   2   1 275.730 16.9986   3
  -8  -2  -1 173.308 11.3402   2
   8  -2   1 150.017 24.9125   1
  -8  -2  -1 141.791 19.4332   1
   8   2   1 102.320 20.1534   1
   8   2   1 151.450 10.8815   3
  -8   2  -1 150.426 10.8942   2
  -8   2  -1 200.756 21.9884   1
  -9  -2  -1 1089.65 60.5293   2
   9   2   1 918.749 60.1439   3
  -9   2  -1 971.414 60.1533   2
 -10  -2  -1 49.0023 6.56981   2
  10   2   1 36.6297 6.06159   3
 -10   2  -1 39.8495 5.83774   2
 -11  -2  -1 114.360 10.2600   2
  11   2   1 103.415 10.1054   3
 -11   2  -1 108.375 9.97832   2
 -12  -2  -1 55.3409 9.15855   2
 -12   2  -1 59.4211 8.83264   2
 -12  -3   1 199.243 16.7769   2
 -12   3   1 225.496 16.3868   2
 -11  -3   1 27.3409 5.03091   2
 -10  -3   1 328.745 20.8534   2
  10   3  -1 271.424 19.8137   3
 -10   3   1 306.061 20.0453   2
  -9  -3   1 633.804 37.2365   2
  -9   3   1 550.586 36.5056   2
  -8  -3   1 107.210 19.7203   1
  -8  -3   1 98.5670 10.3682   3
  -8  -3   1 136.555 9.51049   2
   8  -3  -1 112.862 22.7961   1
  -8   3   1 137.941 21.8868   1
   8   3  -1 108.412 8.35425   3
   8   3  -1 74.0956 20.1207   1
  -8   3   1 116.681 8.56197   2
  -7  -3   1 537.131 29.1879   2
   7  -3  -1 556.725 37.9100   1
   7  -3  -1 443.818 29.1105   2
  -7  -3   1 447.019 28.8016   3
  -7  -3   1 385.761 34.2953   1
  -7   3   1 499.785 36.6120   1
   7   3  -1 430.971 28.3018   3
  -7   3   1 454.264 28.5396   2
   7   3  -1 419.251 40.2770   1
  -6  -3   1 1018.27 57.6180   3
   6  -3  -1 1083.74 63.8821   1
  -6  -3   1 824.635 61.7855   1
  -6  -3   1 1091.47 58.1504   2
   6  -3  -1 905.961 57.7527   2
   6   3  -1 1011.15 58.2701   2
   6   3  -1 926.315 57.3258   3
  -6   3   1 942.353 62.8639   1
  -6   3   1 903.799 57.5023   2
  -6   3   1 968.045 58.1659   3
   6   3  -1 858.781 64.6848   1
   5  -3  -1 144.697 15.8356   1
  -5  -3   1 156.658 14.6632   1
   5  -3  -1 161.770 10.3392   2
  -5  -3   1 169.359 10.5987   2
  -5  -3   1 164.701 10.0447   3
  -5   3   1 160.144 14.9666   1
  -5   3   1 133.190 9.96303   2
   5   3  -1 151.149 16.8581   1
   5   3  -1 157.719 9.83119   3
  -5   3   1 143.637 10.6657   3
   5   3  -1 150.625 10.7626   2
   4  -3  -1 645.231 47.5350   1
  -4  -3   1 689.758 45.2346   2
  -4  -3   1 779.199 48.5699   1
  -4  -3   1 811.879 44.8712   3
   4  -3  -1 841.946 45.0806   2
  -4   3   1 811.744 45.5438   3
   4   3  -1 646.202 44.9844   3
  -4   3   1 840.514 47.9901   1
   4   3  -1 688.271 45.2760   2
   4   3  -1 765.412 49.2633   1
   3  -3  -1 1026.55 56.4791   2
   3  -3  -1 917.464 58.1934   1
  -3  -3   1 936.240 56.3672   3
  -3  -3   1 934.234 59.1000   1
   3   3  -1 907.522 59.2113   1
   3   3  -1 941.547 56.3356   3
  -3   3   1 980.519 58.1790   1
  -2  -3   1 222.000 13.4278   3
  -2  -3   1 213.790 13.6293   2
  -2  -3   1 229.017 15.5153   1
   2  -3  -1 225.929 14.6984   1
   2   3  -1 216.921 13.3913   3
  -2   3   1 221.939 14.6495   1
   2   3  -1 234.755 15.6517   1
   1  -3  -1 632.819 38.8516   1
  -1  -3   1 637.285 37.9657   2
  -1  -3   1 672.668 37.9844   3
   1  -3  -1 630.965 38.8544   1
  -1  -3   1 677.159 39.3620   1
   1   3  -1 632.380 37.9462   3
  -1   3   1 630.685 38.1126   3
   1   3  -1 651.770 39.1643   1
   1   3  -1 593.480 38.0155   2
   0  -3   1 623.679 36.2385   1
   0  -3   1 574.005 35.3602   2
   0  -3  -1 573.550 35.2729   2
   0  -3  -1 631.884 35.5639   3
   0  -3  -1 594.354 36.4189   1
   0   3   1 602.345 35.5548   3
   0   3   1 615.567 35.2959   2
   0   3  -1 591.246 35.4948   3
   0   3   1 566.577 36.3563   1
   0   3  -1 594.510 36.0848   1
   0   3  -1 602.477 35.3896   2
   1  -3   1 55.4337 4.18443   1
  -1  -3  -1 55.5867 5.10317   1
   1  -3   1 65.3684 4.25653   1
  -1  -3  -1 63.1295 3.83867   3
   1   3   1 56.7781 5.29423   1
  -1   3  -1 56.9355 3.58344   2
   1   3   1 52.1192 3.75339   2
   1   3   1 55.9416 3.75936   3
   2  -3   1 65.9758 5.17893   1
  -2  -3  -1 62.9610 4.17821   3
  -2  -3  -1 64.1806 6.26963   1
   2   3   1 62.1001 4.13152   3
   2   3   1 67.5861 6.45046   1
  -2   3  -1 61.2118 4.67403   1
   2   3   1 57.1305 4.35439   2
  -3  -3  -1 23.0682 4.01806   1
   3   3   1 18.6549 4.40677   1
  -3   3  -1 20.1537 3.70328   1
  -3   3  -1 24.1946 3.27358   3
  -3   3  -1 20.8876 2.12431   2
  -4  -3  -1 4.23571 1.27652   3
   4  -3   1 2.89172 4.36581   1
  -4  -3  -1 1.64656 3.32390   1
  -4  -3  -1 5.49639 1.54156   2
  -4   3  -1 4.43040 1.19817   2
   4   3   1 6.86626 1.25229   3
  -4   3  -1 6.29802 3.35684   1
  -4   3  -1 7.42280 2.21116   3
   4   3   1 10.4413 4.77352   1
  -5  -3  -1 -0.3285 1.66615   3
  -5  -3  -1 0.47595 1.57920   2
   5  -3   1 2.16316 5.67069   1
  -5  -3  -1 14.6370 5.24469   1
  -5   3  -1 -0.4787 2.41443   3
   5   3   1 0.84887 1.18737   3
   5   3   1 4.54179 2.48524   2
   5   3   1 3.46975 6.19362   1
  -5   3  -1 -0.5798 4.77908   1
   6  -3   1 58.3863 10.4378   1
  -6  -3  -1 58.7473 5.84623   2
  -6  -3  -1 59.0753 5.95544   3
  -6  -3  -1 68.6221 11.3091   1
  -6   3  -1 70.5597 7.29412   3
  -6   3  -1 69.3111 10.2254   1
  -6   3  -1 48.7021 5.16271   2
   6   3   1 52.7175 6.90867   2
   6   3   1 73.3327 5.36525   3
   6   3   1 51.3275 11.0339   1
  -7  -3  -1 37.2932 4.78617   3
  -7  -3  -1 22.1553 8.34544   1
  -7  -3  -1 37.2727 4.50376   2
   7  -3   1 29.0903 11.0005   1
   7   3   1 42.8117 13.4610   1
  -7   3  -1 47.3246 10.0430   1
  -7   3  -1 25.3320 3.75529   2
   7   3   1 31.1977 3.80843   3
  -8  -3  -1 45.2537 11.1667   1
   8  -3   1 45.0924 20.4469   1
  -8  -3  -1 58.3785 6.17129   2
  -8   3  -1 50.4349 5.29982   2
   8   3   1 16.8897 16.6067   1
  -8   3  -1 77.1228 13.2710   1
   8   3   1 56.7824 5.44858   3
  -9  -3  -1 125.158 9.75378   2
  -9   3  -1 92.6110 8.63812   2
   9   3   1 90.5130 8.68109   3
 -10  -3  -1 32.2400 4.85973   2
  10   3   1 31.9846 4.67672   3
 -10   3  -1 33.8559 5.54058   2
 -11  -3  -1 41.8645 6.06004   2
  11   3   1 32.9981 6.10219   3
 -11   3  -1 32.4135 5.11442   2
 -12  -3  -1 101.734 11.4386   2
 -12   3  -1 100.790 10.5994   2
 -12  -4   1 12.7286 5.68440   2
 -12   4   1 12.0264 4.63474   2
 -11  -4   1 -0.5513 3.65267   2
  11   4  -1 1.81622 3.93629   3
 -10  -4   1 3.30191 4.25514   2
 -10   4   1 7.08244 3.52288   2
  10   4  -1 6.53539 3.33454   3
  -9  -4   1 96.7753 9.44151   2
   9   4  -1 74.5721 7.71546   3
  -9   4   1 92.6531 8.19484   2
  -8  -4   1 -0.3057 10.1547   1
  -8  -4   1 26.8307 4.28135   2
  -8  -4   1 19.7891 7.24996   3
  -8   4   1 20.9959 3.22043   2
   8   4  -1 19.3415 2.82892   3
  -7  -4   1 48.8537 5.77786   2
  -7  -4   1 36.7035 5.86316   3
   7  -4  -1 37.1104 10.9021   1
  -7   4   1 34.4791 10.3758   1
   7   4  -1 53.3466 4.52175   3
   7   4  -1 16.2194 14.1201   1
  -7   4   1 41.9204 4.79160   2
  -6  -4   1 1143.03 65.5626   3
  -6  -4   1 973.753 72.8498   1
  -6  -4   1 1198.29 66.1701   2
   6  -4  -1 1079.94 70.7209   1
  -6   4   1 1101.56 70.2929   1
   6   4  -1 994.978 72.7038   1
   6   4  -1 1116.98 66.3829   2
  -6   4   1 1076.47 65.5245   2
   6   4  -1 1101.31 65.3352   3
  -6   4   1 1124.19 67.2913   3
  -5  -4   1 12.8208 6.16243   1
  -5  -4   1 19.3367 2.83258   3
   5  -4  -1 17.5958 6.53436   1
  -5  -4   1 22.5835 3.06011   2
   5   4  -1 18.5232 2.36601   3
   5   4  -1 9.30433 7.81712   1
  -5   4   1 15.2158 5.40348   1
   5   4  -1 18.5020 3.34322   2
  -5   4   1 20.0224 3.36610   3
  -5   4   1 16.6981 2.76311   2
   4  -4  -1 380.318 25.6064   1
  -4  -4   1 341.718 22.8822   2
  -4  -4   1 395.531 26.5890   1
  -4  -4   1 397.693 22.4727   3
   4   4  -1 391.245 27.4499   1
  -4   4   1 313.395 22.4297   2
   4   4  -1 337.662 23.0235   2
  -4   4   1 396.693 25.0941   1
   4   4  -1 397.421 22.3891   3
  -3  -4   1 1705.91 104.664   2
  -3  -4   1 1759.49 104.370   3
   3  -4  -1 1793.23 106.133   1
  -3  -4   1 1805.86 107.348   1
   3   4  -1 1679.97 104.312   3
   3   4  -1 1775.00 107.305   1
  -3   4   1 1826.13 106.030   1
   2  -4  -1 236.518 15.7963   1
  -2  -4   1 244.504 14.4445   3
  -2  -4   1 238.110 16.8868   1
  -2  -4   1 234.768 14.5334   2
   2   4  -1 232.622 14.3722   3
  -2   4   1 242.678 14.7657   3
   2   4  -1 235.765 16.7624   1
   1  -4  -1 327.345 21.9173   1
  -1  -4   1 364.704 20.8570   3
   1  -4  -1 343.203 21.9505   1
  -1  -4   1 343.919 20.7292   2
  -1  -4   1 361.963 22.5047   1
   1   4  -1 344.205 22.2528   1
   1   4  -1 320.692 20.8497   2
  -1   4   1 337.186 20.9776   3
   1   4  -1 377.806 20.8274   3
   0  -4  -1 5778.06 342.588   1
   0  -4   1 5971.80 342.419   1
   0   4  -1 5678.35 342.195   1
   0   4   1 5707.70 342.535   1
   1  -4   1 99.2482 6.93794   1
   1  -4   1 105.220 7.11175   1
  -1  -4  -1 102.239 8.06860   1
  -1  -4  -1 96.9747 6.13222   2
   1   4   1 83.7061 6.95840   3
  -1   4  -1 101.735 6.01126   2
   1   4   1 99.2409 8.24917   1
   1   4   1 97.1594 6.20738   2
   2  -4   1 1659.11 95.4917   1
  -2  -4  -1 1694.96 96.8439   1
  -2  -4  -1 1614.88 94.8676   3
   2  -4   1 1589.31 95.3112   1
   2   4   1 1494.19 94.8661   2
  -2   4  -1 1569.23 94.5737   2
   2   4   1 1542.97 94.7788   3
   2   4   1 1643.01 96.8457   1
   3  -4   1 2142.67 132.826   1
  -3  -4  -1 2245.41 131.483   3
  -3  -4  -1 2344.66 134.037   1
   3   4   1 2098.68 131.753   2
  -3   4  -1 2171.81 132.207   1
   3   4   1 2289.64 134.178   1
   3   4   1 2193.88 131.419   3
  -3   4  -1 2283.73 131.353   2
  -4  -4  -1 547.625 34.7015   1
   4  -4   1 475.496 34.1000   1
  -4  -4  -1 477.256 31.6750   2
  -4  -4  -1 550.167 31.4397   3
  -4   4  -1 537.758 31.3053   2
  -4   4  -1 547.349 32.9615   1
   4   4   1 490.888 31.7764   2
   4   4   1 530.706 35.3151   1
  -4   4  -1 504.437 32.2252   3
   4   4   1 543.631 31.3111   3
  -5  -4  -1 354.360 25.4480   1
  -5  -4  -1 343.288 21.3189   3
   5  -4   1 388.158 26.3144   1
  -5  -4  -1 333.125 21.6255   2
   5   4   1 302.711 21.7842   2
  -5   4  -1 336.505 21.1008   2
   5   4   1 357.739 26.9612   1
  -5   4  -1 354.138 24.2053   1
  -5   4  -1 342.816 22.2205   3
   5   4   1 350.661 21.0909   3
  -6  -4  -1 2062.75 115.865   2
  -6  -4  -1 1998.56 115.550   3
  -6  -4  -1 1883.02 119.845   1
   6   4   1 1995.94 115.259   3
   6   4   1 1945.98 121.629   1
   6   4   1 1783.65 115.941   2
  -6   4  -1 2027.40 119.213   1
  -6   4  -1 1821.57 115.244   2
  -7  -4  -1 71.6363 12.3788   1
  -7  -4  -1 102.452 7.93007   2
  -7  -4  -1 92.9021 8.81278   3
   7  -4   1 116.143 19.0015   1
  -7   4  -1 83.6737 6.91072   2
   7   4   1 93.7233 6.96611   3
   7   4   1 90.1051 16.8004   1
  -7   4  -1 108.725 16.6229   1
  -8   4  -1 389.852 35.2613   1
  -8   4  -1 331.494 22.0265   2
   8   4   1 361.948 22.1132   3
   8   4   1 315.514 39.6370   1
  -9   4  -1 287.381 18.6280   2
   9   4   1 273.091 18.6614   3
 -10  -4  -1 91.1985 12.0572   2
 -10   4  -1 71.4045 7.14053   2
  10   4   1 54.1086 7.24959   3
 -11  -4  -1 33.5819 5.51166   2
 -11   4  -1 33.5880 5.07496   2
  12   4   1 126.577 12.5029   3
 -11  -5   1 40.5808 6.24892   2
  11   5  -1 23.4744 4.89752   3
 -11   5   1 31.2863 7.86533   2
 -10  -5   1 40.1481 6.76222   2
  10   5  -1 28.9764 4.70801   3
  -9  -5   1 800.559 47.0201   2
  -9   5   1 707.521 45.9369   2
  -8  -5   1 23.8287 12.0699   1
   8   5  -1 -15.714 19.8198   1
  -8   5   1 26.8508 4.27666   2
   8   5  -1 16.0698 2.84907   3
   7  -5  -1 693.129 47.0740   1
  -7  -5   1 511.525 44.4313   1
  -7  -5   1 582.338 38.4845   3
  -7  -5   1 735.115 39.3211   2
   7   5  -1 574.277 50.1658   1
  -7   5   1 671.217 38.3523   2
  -7   5   1 584.220 44.4758   1
   7   5  -1 645.604 38.1451   3
   6  -5  -1 89.4798 17.2629   1
  -6  -5   1 106.522 8.35483   3
  -6  -5   1 117.757 9.30998   2
  -6  -5   1 102.166 15.5009   1
   6   5  -1 108.057 20.7049   1
   6   5  -1 116.758 14.7406   2
  -6   5   1 113.601 14.4895   1
  -6   5   1 122.267 8.21527   2
   6   5  -1 110.605 7.89869   3
   5  -5  -1 136.308 16.5849   1
  -5  -5   1 182.815 11.2416   3
  -5  -5   1 188.589 17.4227   1
  -5  -5   1 163.374 11.7335   2
  -5   5   1 165.958 11.1407   2
   5   5  -1 176.849 25.4616   1
   5   5  -1 184.845 11.0062   3
   5   5  -1 165.263 12.3717   2
  -5   5   1 186.554 15.3030   1
  -5   5   1 175.913 12.5050   3
  -4  -5   1 129.778 9.07217   2
  -4  -5   1 141.613 13.6546   1
   4  -5  -1 121.073 12.1798   1
  -4  -5   1 129.247 8.54145   3
  -4   5   1 153.267 11.5654   1
   4   5  -1 136.040 14.8178   1
  -4   5   1 114.476 8.42453   2
   4   5  -1 141.061 8.41424   3
   4   5  -1 119.850 9.46637   2
   3  -5  -1 991.925 58.9645   1
  -3  -5   1 919.720 61.9099   1
  -3  -5   1 1000.54 57.1020   3
  -3  -5   1 952.025 57.2777   2
  -3   5   1 949.843 57.5501   3
   3   5  -1 970.944 56.9921   3
   3   5  -1 965.638 60.3205   1
  -3   5   1 913.715 58.6679   1
  -2  -5   1 74.0789 12.2178   1
  -2  -5   1 78.9690 5.31953   3
  -2  -5   1 77.9181 5.25913   2
   2  -5  -1 72.1992 7.07343   1
   2  -5  -1 77.7748 7.15995   1
   2   5  -1 82.3288 8.38473   1
   2   5  -1 78.4838 5.16282   3
  -2   5   1 76.6844 4.68541   2
  -2   5   1 78.5730 5.55951   3
  -1  -5   1 949.013 55.0590   2
  -1  -5   1 956.927 55.3420   3
  -1  -5   1 962.107 57.3934   1
   1  -5  -1 902.758 56.7993   1
   1  -5  -1 949.218 56.5875   1
   1   5  -1 805.203 55.2065   2
   1   5  -1 970.395 56.9388   1
  -1   5   1 931.769 55.4026   3
   1   5  -1 936.273 55.2265   3
   0  -5  -1 15.8913 3.28692   1
   0  -5  -1 18.7413 1.21275   2
   0  -5   1 15.8675 3.07471   1
   0  -5  -1 19.3772 2.47086   3
   0  -5   1 19.6196 1.52675   2
   0   5   1 14.4322 2.23869   3
   0   5  -1 16.8256 2.92289   1
   0   5  -1 17.2670 1.75095   2
   0   5   1 17.2367 1.30896   2
   0   5  -1 16.4074 2.10220   3
  -1  -5  -1 64.9659 4.32745   2
   1  -5   1 68.0860 5.78904   1
   1  -5   1 62.7838 7.82049   1
  -1  -5  -1 70.9216 7.15816   1
  -1  -5  -1 69.6245 4.75337   3
   1   5   1 70.4865 4.73801   3
   1   5   1 66.6194 4.51142   2
  -1   5  -1 67.3376 4.29628   2
   1   5   1 67.8385 7.28462   1
  -1   5  -1 71.5192 4.78942   3
  -2  -5  -1 28.2914 2.55768   2
  -2  -5  -1 18.3124 4.39384   1
   2  -5   1 29.4351 3.97920   1
   2  -5   1 28.4990 4.06578   1
  -2  -5  -1 27.5994 2.59608   3
   2   5   1 24.3277 2.73870   2
   2   5   1 23.7525 4.63420   1
  -2   5  -1 25.1020 2.94999   3
  -2   5  -1 25.0323 1.97039   2
   2   5   1 26.5850 2.43786   3
  -3  -5  -1 8.15444 4.05069   1
  -3  -5  -1 8.90349 1.95836   2
   3  -5   1 13.0952 3.17247   1
  -3  -5  -1 8.12464 1.65867   3
   3  -5   1 8.43457 2.43975   1
   3   5   1 6.62415 1.55401   3
   3   5   1 7.02515 1.98399   2
   3   5   1 5.52615 4.82961   1
  -3   5  -1 12.0599 1.83412   2
  -3   5  -1 10.2002 1.60387   2
   4  -5   1 -2.3046 4.24762   1
  -4  -5  -1 2.78482 5.37688   1
  -4  -5  -1 8.93429 2.05626   2
  -4  -5  -1 7.89302 1.77824   3
  -4   5  -1 13.0913 3.09356   3
   4   5   1 6.26513 1.39750   3
   4   5   1 7.42559 5.76728   1
   4   5   1 10.3500 2.48818   2
  -4   5  -1 4.19954 2.80715   1
  -4   5  -1 5.21010 1.32782   2
  -5  -5  -1 6.20403 7.18587   1
   5  -5   1 3.54505 6.16420   1
  -5  -5  -1 6.39615 2.19513   3
   5   5   1 -2.2494 2.81790   2
   5   5   1 1.92017 1.41517   3
  -5   5  -1 -4.3741 3.27542   3
  -5   5  -1 0.75680 1.35338   2
  -5   5  -1 0.60331 3.70738   1
   5   5   1 1.05248 7.57862   1
  -6  -5  -1 8.61093 3.15708   3
  -6  -5  -1 14.9346 7.47112   1
  -6  -5  -1 18.8042 3.43743   2
   6  -5   1 12.1858 8.34510   1
  -6   5  -1 10.7607 2.34754   2
   6   5   1 14.8562 2.46247   3
   6   5   1 19.4183 11.0901   1
   6   5   1 -0.5230 4.67731   2
  -6   5  -1 8.65400 5.62623   1
  -7  -5  -1 76.8377 6.93677   2
   7  -5   1 61.3152 12.6449   1
  -7  -5  -1 55.8559 11.8820   1
  -7   5  -1 62.5053 10.3728   1
  -7   5  -1 55.4197 5.43274   2
   7   5   1 64.4429 5.51445   3
  -8  -5  -1 8.71824 3.55663   2
  -8  -5  -1 5.60180 10.9224   1
  -8   5  -1 7.79715 2.56997   2
   8   5   1 2.21651 2.44715   3
   9   5   1 127.955 10.2841   3
  -9   5  -1 135.716 10.2243   2
 -10  -5  -1 5.22799 4.23722   2
  10   5   1 1.18745 3.39722   3
 -10   5  -1 3.19936 3.14017   2
 -11   5  -1 31.1929 4.76384   2
  11   5   1 30.3950 5.44890   3
 -11  -6   1 -2.2329 4.81249   2
  11   6  -1 3.10942 4.67854   3
 -10  -6   1 13.8826 5.13041   2
 -10   6   1 9.68551 3.64228   2
  10   6  -1 4.94779 3.59409   3
  -9  -6   1 14.9610 4.78087   2
   9   6  -1 2.62010 3.25153   3
  -9   6   1 7.58093 3.33118   2
  -8  -6   1 78.7617 8.11695   2
  -8   6   1 71.3248 6.46783   2
   8   6  -1 68.8030 6.27642   3
   8   6  -1 59.2217 25.6054   1
  -7  -6   1 3.30107 3.77786   3
  -7  -6   1 7.06170 3.30991   2
  -7  -6   1 12.1007 10.2919   1
  -7   6   1 -2.9849 12.5179   1
  -7   6   1 8.32111 2.40312   2
   7   6  -1 0.82913 2.02537   3
   7   6  -1 -18.830 16.3912   1
  -6  -6   1 726.271 53.8191   1
  -6  -6   1 797.944 48.1357   2
  -6  -6   1 777.050 47.5242   3
   6   6  -1 760.028 56.9776   1
  -6   6   1 848.410 47.4060   2
  -6   6   1 772.115 51.3650   1
   6   6  -1 799.550 47.2433   3
   5  -6  -1 9.04535 6.75959   1
  -5  -6   1 5.40066 6.83337   1
  -5  -6   1 1.25140 2.20860   2
  -5  -6   1 2.42116 2.04759   3
   5   6  -1 -6.6315 8.63065   1
  -5   6   1 0.29364 2.45691   3
  -5   6   1 4.24756 4.86125   1
   5   6  -1 -2.9367 3.29415   2
   5   6  -1 3.33192 1.41153   3
  -5   6   1 1.71831 1.58148   2
  -4  -6   1 494.605 33.5887   1
  -4  -6   1 527.815 28.8770   3
   4  -6  -1 470.924 31.7191   1
  -4  -6   1 485.091 29.1064   2
   4   6  -1 477.184 34.0138   1
   4   6  -1 488.403 28.6105   3
  -4   6   1 464.804 28.5603   2
   4   6  -1 400.183 29.3630   2
  -4   6   1 461.166 29.4561   3
   3  -6  -1 43.3281 7.21268   1
  -3  -6   1 34.8503 6.76514   1
  -3  -6   1 58.1813 4.37725   2
  -3  -6   1 46.7523 4.25599   3
   3   6  -1 44.1615 3.92327   3
   3   6  -1 38.5145 5.13771   2
  -3   6   1 59.9265 4.96884   3
  -3   6   1 50.6661 3.44433   2
  -3   6   1 42.8862 3.06639   2
   3   6  -1 31.8046 7.14589   1
  -2  -6   1 458.527 26.9218   3
  -2  -6   1 469.020 30.0975   1
   2  -6  -1 446.289 28.6374   1
  -2  -6   1 406.033 26.9168   2
   2  -6  -1 434.000 28.6476   1
   2   6  -1 458.870 29.7677   1
   2   6  -1 442.578 26.7674   3
  -2   6   1 447.872 27.1890   3
   1  -6  -1 6.44337 3.05660   1
  -1  -6   1 13.8367 3.97116   1
   1  -6  -1 6.22794 3.16291   1
  -1  -6   1 9.31374 1.46248   2
   1   6  -1 9.95043 1.63303   2
   1   6  -1 4.89743 3.28836   1
  -1   6   1 7.89256 1.77829   3
   1   6  -1 9.77961 1.57905   3
   0  -6  -1 3825.56 219.070   3
   0  -6   1 4045.65 220.831   1
   0  -6   1 3464.89 218.564   2
   0  -6  -1 3928.22 220.950   1
   0   6  -1 3851.30 220.391   1
   0   6  -1 3258.69 218.714   2
   0   6   1 3693.90 219.039   3
   0   6  -1 3572.70 218.952   3
   1  -6   1 4.13534 2.39227   1
  -1  -6  -1 7.75906 3.71953   1
   1  -6   1 4.21889 2.70139   1
  -1  -6  -1 5.81007 1.63012   3
   1   6   1 6.25366 1.48882   3
  -1   6  -1 3.95527 0.87495   2
  -1   6  -1 3.01923 1.37260   3
   1   6   1 6.34046 1.09402   2
  -2  -6  -1 1399.15 83.1355   2
  -2  -6  -1 1432.36 83.3914   3
   2  -6   1 1448.96 84.3689   1
  -2  -6  -1 1407.93 86.0009   1
   2  -6   1 1405.88 84.3959   1
   2   6   1 1410.34 83.3042   3
   2   6   1 1420.20 83.2774   2
  -2   6  -1 1354.92 83.5352   3
  -2   6  -1 1341.49 82.9120   2
   3  -6   1 28.1273 4.73883   1
  -3  -6  -1 39.9791 6.73563   1
   3  -6   1 39.7339 5.79753   1
  -3  -6  -1 32.6338 4.29025   3
  -3  -6  -1 43.7055 4.21396   2
   3   6   1 31.9066 7.64130   1
  -3   6  -1 40.2930 4.80693   3
   3   6   1 40.9196 3.95606   3
  -3   6  -1 40.1016 3.01395   2
  -4  -6  -1 475.150 28.1783   3
  -4  -6  -1 489.378 32.6444   1
  -4  -6  -1 419.068 28.2770   2
   4  -6   1 427.943 30.6244   1
   4  -6   1 464.125 29.4744   1
  -4   6  -1 471.241 28.2391   2
  -4   6  -1 467.690 29.2617   3
  -4   6  -1 444.723 27.8781   2
   4   6   1 448.042 28.5040   2
   4   6   1 468.238 27.9480   3
   4   6   1 512.955 33.6252   1
  -5  -6  -1 7.80881 6.57981   1
  -5  -6  -1 6.68221 2.57025   2
   5  -6   1 6.88947 6.98205   1
  -5  -6  -1 3.26687 2.50975   3
   5   6   1 3.23635 1.90120   3
  -5   6  -1 -1.1883 3.69120   1
  -5   6  -1 3.38278 1.62274   2
   5   6   1 2.14093 3.42249   2
   5   6   1 18.8787 9.56013   1
  -6  -6  -1 1907.07 104.254   2
   6  -6   1 1972.17 111.103   1
  -6  -6  -1 1603.73 108.657   1
  -6  -6  -1 1880.98 104.583   3
  -6   6  -1 1516.81 103.287   2
   6   6   1 1675.38 110.848   1
   6   6   1 1775.69 103.446   3
  -6   6  -1 1586.79 105.512   1
  -7  -6  -1 0.70581 3.05658   2
  -7  -6  -1 -0.5325 10.0349   1
   7   6   1 10.5499 16.2309   1
   7   6   1 5.20574 2.29536   3
  -7   6  -1 0.53025 1.93593   2
  -7   6  -1 6.41430 7.43026   1
  -8   6  -1 324.695 20.8895   2
   8   6   1 333.168 20.9906   3
  -9  -6  -1 62.1073 9.07483   2
  -9   6  -1 37.6248 6.24797   2
 -10  -6  -1 70.2908 8.91138   2
  10   6   1 48.0485 7.34820   3
 -10   6  -1 58.1338 7.06355   2
 -11  -6  -1 4.37094 5.04454   2
 -11   6  -1 -0.6122 3.73408   2
  11   6   1 -4.5322 4.47357   3
 -10  -7   1 16.0563 5.55254   2
 -10   7   1 13.4420 4.01175   2
 -10   7   1 3.28093 5.36477   3
  10   7  -1 6.15320 4.08827   3
  -9  -7   1 572.469 37.2480   2
  -9   7   1 530.055 35.8161   3
  -9   7   1 531.090 33.7705   2
  -8  -7   1 1.24594 3.79206   2
   8   7  -1 2.23768 2.47199   3
  -8   7   1 1.97285 4.09925   3
  -8   7   1 4.52056 2.59142   2
  -7  -7   1 354.253 23.1546   2
  -7   7   1 389.240 22.1221   2
   7   7  -1 352.993 21.9595   3
   7   7  -1 296.062 42.6372   1
  -7   7   1 318.287 23.7861   3
  -6  -7   1 40.0073 5.96030   2
  -6  -7   1 24.8494 4.44145   3
  -6  -7   1 19.2806 10.6549   1
   6   7  -1 40.5069 4.43418   3
  -6   7   1 32.9743 4.38394   2
   6   7  -1 18.3636 14.6366   1
  -6   7   1 16.6066 7.87606   1
  -6   7   1 41.1598 5.64295   3
   5  -7  -1 45.9054 9.05302   1
  -5  -7   1 16.9245 8.82861   1
  -5  -7   1 42.8150 5.11197   3
  -5  -7   1 38.6063 4.80824   2
   5   7  -1 39.2977 5.74110   2
   5   7  -1 35.3061 3.70867   3
   5   7  -1 49.2601 12.2066   1
  -5   7   1 35.6518 3.96871   2
  -5   7   1 41.8536 5.43740   3
   4  -7  -1 16.5717 5.91735   1
   4  -7  -1 20.9764 5.74257   1
  -4  -7   1 39.4403 8.20885   1
  -4  -7   1 23.6592 3.66789   2
  -4  -7   1 15.8165 2.86586   3
  -4   7   1 18.0326 3.39853   3
   4   7  -1 16.4053 3.88828   2
  -4   7   1 20.1944 1.97153   2
   4   7  -1 20.1141 3.00444   3
   4   7  -1 17.5371 8.58395   1
  -4   7   1 26.6109 2.53288   2
  -3  -7   1 791.310 46.3201   2
  -3  -7   1 782.381 50.7990   1
   3  -7  -1 760.158 48.6380   1
  -3  -7   1 764.944 46.4860   3
   3  -7  -1 769.056 48.7129   1
  -3   7   1 773.158 46.9425   3
   3   7  -1 767.586 50.4878   1
   3   7  -1 776.412 46.2669   3
   2  -7  -1 2.10141 3.91753   1
  -2  -7   1 4.87609 1.18444   2
   2  -7  -1 4.32615 3.82247   1
  -2  -7   1 7.02764 1.92069   3
  -2  -7   1 4.53551 5.12456   1
  -2   7   1 1.24366 1.64160   3
   2   7  -1 2.35776 4.89393   1
   2   7  -1 -1.0567 1.93032   2
   2   7  -1 3.68977 1.32154   3
  -1  -7   1 298.433 18.0306   2
  -1  -7   1 320.960 21.8256   1
   1  -7  -1 284.934 20.6725   1
   1  -7  -1 297.329 21.0008   1
  -1   7   1 303.885 18.7262   3
   1   7  -1 298.016 21.1495   1
   1   7  -1 298.544 18.4435   3
   0  -7  -1 12.0576 4.52565   1
   0  -7  -1 12.3661 4.49393   1
   0  -7   1 10.0032 4.05982   1
   0   7   1 11.5878 2.21822   3
   0   7  -1 15.3636 2.13732   3
   0   7  -1 15.5818 1.85913   2
   1  -7   1 5.11825 3.16404   1
  -1  -7  -1 11.4241 4.43889   1
  -1  -7  -1 2.53505 1.85389   3
   1  -7   1 10.3275 3.71126   1
  -1  -7  -1 6.76799 0.87289   2
   1   7   1 5.60709 4.46641   1
   1   7   1 5.80138 1.58684   3
   1   7   1 6.86846 1.10394   2
  -1   7  -1 8.34879 1.69032   3
  -1   7  -1 7.58509 1.17331   2
   2  -7   1 10.3796 3.57082   1
   2  -7   1 9.23574 3.76679   1
  -2  -7  -1 8.98582 2.32968   3
  -2  -7  -1 7.71842 1.30016   2
  -2  -7  -1 7.47454 5.09644   1
   2   7   1 7.80533 1.81615   3
  -2   7  -1 10.7867 1.49332   2
   2   7   1 6.60217 5.16956   1
  -2   7  -1 7.67834 2.14374   3
  -2   7  -1 10.9585 1.19310   2
   2   7   1 11.1876 1.78183   2
  -3  -7  -1 46.8436 4.02820   2
  -3  -7  -1 43.4314 4.79957   3
   3  -7   1 45.4664 7.70106   1
   3  -7   1 45.2058 6.97436   1
  -3  -7  -1 45.9169 7.73572   1
   3   7   1 43.0332 4.12941   3
  -3   7  -1 40.8720 3.12442   2
   3   7   1 26.8276 7.55616   1
  -3   7  -1 39.3914 3.32333   2
   3   7   1 45.8572 4.68136   2
  -3   7  -1 42.4194 4.84124   3
  -4  -7  -1 6.25395 2.51703   3
   4  -7   1 2.22658 5.91480   1
   4  -7   1 5.61962 4.11455   1
  -4  -7  -1 7.15183 6.58075   1
  -4  -7  -1 6.88700 2.11609   2
   4   7   1 4.86897 7.67170   1
   4   7   1 5.38463 1.85209   3
   4   7   1 6.81294 2.89069   2
  -4   7  -1 4.93716 2.60774   3
   5  -7   1 5.72165 7.46526   1
   5  -7   1 6.47735 5.42594   1
  -5  -7  -1 -4.3155 7.66636   1
  -5  -7  -1 1.10086 2.33655   2
   5   7   1 -4.7914 9.61131   1
   5   7   1 0.86413 1.69834   3
   5   7   1 3.15989 3.84551   2
  -5   7  -1 3.42945 1.63057   2
  -5   7  -1 3.69546 3.04505   3
  -5   7  -1 2.04496 1.56145   2
  -6  -7  -1 7.10427 9.70701   1
   6  -7   1 1.44421 9.59437   1
  -6  -7  -1 8.14759 3.35684   2
  -6   7  -1 5.13284 2.50038   2
   6   7   1 3.86831 12.7848   1
   6   7   1 1.71927 2.29199   3
  -6   7  -1 6.82249 2.12488   2
  -7  -7  -1 65.7165 14.7105   1
  -7  -7  -1 109.591 9.09609   2
   7   7   1 100.487 7.50142   3
  -7   7  -1 94.7523 7.30397   2
   7   7   1 54.0187 20.4589   1
  -8  -7  -1 2.90918 3.94597   2
  -8   7  -1 2.45742 2.42914   2
   8   7   1 -0.3299 2.57531   3
   9   7   1 46.0648 6.98062   3
  -9   7  -1 62.6572 6.77794   2
 -10  -7  -1 -0.5862 4.85358   2
 -10   7  -1 5.42712 3.70310   2
 -10  -8   1 9.31294 5.33889   2
 -10   8   1 3.08813 5.75267   3
 -10   8   1 2.18981 6.52646   2
  10   8  -1 -1.0302 4.39173   3
  -9  -8   1 10.0931 5.02978   2
  -9   8   1 10.0770 5.60271   3
   9   8  -1 7.05922 3.72720   3
  -9   8   1 12.4338 3.55617   2
  -8  -8   1 56.7589 8.45287   2
   8   8  -1 55.3549 6.39234   3
  -8   8   1 72.1284 9.87627   3
  -8   8   1 76.4401 6.67304   2
  -7  -8   1 9.23734 3.90974   2
  -7   8   1 6.33945 4.34471   3
   7   8  -1 7.29283 2.61135   3
  -7   8   1 7.94114 2.55806   2
  -6  -8   1 331.792 20.9901   2
  -6   8   1 291.546 21.6731   3
  -6   8   1 305.036 20.1296   2
  -6   8   1 373.576 20.1446   2
   6   8  -1 235.851 39.9722   1
   6   8  -1 310.608 19.9794   3
  -5  -8   1 52.4771 7.03792   3
  -5  -8   1 59.2416 5.57522   2
  -5  -8   1 38.9414 14.5738   1
  -5   8   1 59.2585 6.97151   3
   5   8  -1 55.6426 4.75690   3
  -5   8   1 51.7111 3.72693   2
   5   8  -1 30.3914 12.7280   1
   5   8  -1 43.1545 7.74978   2
  -5   8   1 48.6939 4.14656   2
  -4  -8   1 200.023 22.9900   1
   4  -8  -1 214.182 19.6299   1
  -4  -8   1 231.264 14.0777   2
  -4  -8   1 219.277 14.5864   3
   4   8  -1 189.258 15.3540   2
  -4   8   1 217.870 15.1099   3
   4   8  -1 208.496 22.4650   1
   4   8  -1 235.900 13.8848   3
   3  -8  -1 152.184 15.1275   1
   3  -8  -1 128.760 14.6637   1
  -3  -8   1 165.875 17.8532   1
  -3  -8   1 146.367 10.7887   3
  -3  -8   1 157.725 9.89689   2
   3   8  -1 168.050 17.8032   1
   3   8  -1 159.642 10.0994   3
  -3   8   1 160.854 11.1384   3
   3   8  -1 125.627 11.0115   2
  -2  -8   1 244.295 14.6743   2
  -2  -8   1 236.069 20.5628   1
   2  -8  -1 244.910 18.8296   1
   2  -8  -1 244.323 18.6057   1
  -2  -8   1 228.936 15.4936   3
  -2   8   1 244.242 15.6045   3
   2   8  -1 233.501 19.7033   1
   2   8  -1 239.509 15.0520   3
   1  -8  -1 80.5167 10.4534   1
   1  -8  -1 69.2006 9.99742   1
  -1  -8   1 74.4605 11.5284   1
  -1  -8   1 72.2781 4.75575   2
  -1   8   1 74.9854 6.09747   3
   1   8  -1 74.2379 10.6960   1
   1   8  -1 63.2505 5.62231   2
   1   8  -1 72.5776 5.61217   3
   0  -8   1 1634.92 96.1452   1
   0  -8  -1 1509.85 95.5313   1
   0  -8   1 1537.51 95.0580   1
   0  -8  -1 1591.20 96.1644   1
   0   8  -1 1547.35 93.2002   3
   0   8   1 1576.05 93.3115   3
   1  -8   1 47.0547 8.92829   1
  -1  -8  -1 40.5626 2.76804   2
   1  -8   1 40.9239 6.10522   1
  -1  -8  -1 34.6921 5.43223   3
  -1  -8  -1 44.7292 7.36836   1
  -1   8  -1 43.9700 4.45081   3
   1   8   1 37.2529 7.20102   1
   1   8   1 46.7545 4.33827   3
   2  -8   1 534.719 35.1021   1
  -2  -8  -1 550.395 37.8484   1
  -2  -8  -1 550.402 32.7754   2
   2  -8   1 540.811 35.6263   1
  -2  -8  -1 585.581 33.8616   3
  -2   8  -1 535.437 33.6180   3
   2   8   1 536.009 37.5839   1
   2   8   1 603.730 32.9879   2
  -2   8  -1 491.881 32.6390   2
  -2   8  -1 546.923 32.6019   2
   2   8   1 563.436 33.3422   3
  -3  -8  -1 343.817 20.5115   2
  -3  -8  -1 316.014 26.2436   1
   3  -8   1 331.490 23.5174   1
  -3   8  -1 311.552 20.1229   2
  -3   8  -1 341.402 20.0834   2
   3   8   1 335.796 20.8700   3
   3   8   1 363.506 20.9190   2
   3   8   1 314.306 26.6111   1
  -3   8  -1 340.364 21.5186   3
  -4  -8  -1 205.180 12.6548   2
  -4  -8  -1 204.235 20.8882   1
   4  -8   1 158.456 17.2348   1
   4   8   1 171.746 21.6058   1
  -4   8  -1 172.764 12.0202   2
  -4   8  -1 195.457 11.8905   2
   4   8   1 207.258 13.5009   2
  -4   8  -1 200.868 13.6873   3
   4   8   1 205.065 12.5990   3
   5  -8   1 34.3921 9.78672   1
  -5  -8  -1 56.6074 5.70446   2
  -5  -8  -1 37.6345 11.9162   1
  -5   8  -1 53.8874 4.52199   2
   5   8   1 45.7380 4.98742   3
  -5   8  -1 48.1551 4.19184   2
  -5   8  -1 43.9901 6.75625   3
   5   8   1 20.4764 12.9198   1
   5   8   1 48.2534 6.28237   2
  -6  -8  -1 765.921 45.7646   2
  -6  -8  -1 813.104 65.8992   1
  -6   8  -1 751.327 46.7583   3
  -6   8  -1 733.669 44.6944   2
   6   8   1 782.525 45.0937   3
   6   8   1 673.542 57.5905   1
  -6   8  -1 695.527 44.7271   2
  -7  -8  -1 1.50448 3.64764   2
   7   8   1 1.96432 2.57908   3
  -7   8  -1 2.60306 4.67156   3
  -7   8  -1 5.60455 2.39043   2
  -8  -8  -1 223.133 15.1706   2
  -8   8  -1 196.763 16.0034   3
  -8   8  -1 183.898 13.0612   2
   8   8   1 167.822 13.2163   3
  -9   8  -1 54.3260 7.21953   2
  -9   8  -1 60.9766 8.71626   3
   9   8   1 50.5845 7.61071   3
 -10  -8  -1 24.4864 6.30759   2
 -10   8  -1 30.1955 6.98340   3
  10   8   1 15.0517 4.81745   3
 -10   8  -1 28.0113 4.94302   2
  -9  -9   1 164.838 14.2260   2
  -9   9   1 159.732 15.9142   3
   9   9  -1 123.332 11.7192   3
  -8  -9   1 8.16749 4.38281   2
  -8   9   1 1.48042 4.96715   3
   8   9  -1 1.86610 3.17779   3
  -7  -9   1 130.504 11.0832   2
  -7   9   1 126.010 12.6932   3
   7   9  -1 126.436 9.55177   3
  -6  -9   1 127.836 10.4790   2
  -6   9   1 151.863 12.4457   3
   6   9  -1 121.682 9.46830   3
  -5  -9   1 9.86471 2.73464   2
   5   9  -1 7.51428 2.16182   3
  -5   9   1 14.2867 4.05332   3
  -4  -9   1 126.745 8.80198   2
  -4   9   1 128.493 10.3922   3
   4   9  -1 128.924 8.79737   3
   4   9  -1 115.146 11.2498   2
  -3  -9   1 228.992 13.7512   2
   3   9  -1 204.224 14.9900   2
  -3   9   1 218.036 15.1028   3
   3   9  -1 221.341 14.1162   3
  -2  -9   1 2.77531 1.16891   2
   2   9  -1 3.50406 2.39419   2
  -2   9   1 -2.2185 2.12079   3
   2   9  -1 1.31090 1.72848   3
   2   9  -1 1.70514 8.31849   1
  -1  -9   1 82.4254 5.51894   2
   1  -9  -1 69.1198 12.8684   1
   1   9  -1 85.3067 6.64974   3
  -1   9   1 104.120 7.29385   3
   1   9  -1 83.3617 6.19867   2
   0  -9   1 41.0302 7.72265   1
   0   9  -1 52.4921 3.59374   2
   0   9  -1 53.0324 5.11835   3
   0   9   1 54.1464 5.36991   3
   1  -9   1 6.24583 5.50440   1
  -1   9  -1 9.49134 2.25851   3
   1   9   1 8.30485 2.24895   3
  -2  -9  -1 37.5195 2.86452   2
   2   9   1 33.8100 4.33530   3
   2   9   1 27.9638 9.19021   1
  -2   9  -1 42.3905 4.81070   3
  -3  -9  -1 8.36792 1.72685   2
   3  -9   1 -1.8052 6.16354   1
   3   9   1 1.31015 10.4171   1
   3   9   1 13.0771 2.69746   3
  -3   9  -1 11.4728 3.09647   3
  -4  -9  -1 28.4416 3.62073   2
   4  -9   1 22.3890 10.0751   1
   4   9   1 24.3767 3.98774   3
  -4   9  -1 23.3848 4.16201   3
  -4   9  -1 24.0751 2.44919   2
  -4   9  -1 28.5117 2.64248   2
   4   9   1 27.9428 4.24729   2
  -5  -9  -1 1.54502 2.30827   2
   5   9   1 0.61506 2.18745   3
  -5   9  -1 0.37035 1.94589   2
  -5   9  -1 0.31939 2.78587   2
  -5   9  -1 -0.9570 3.24841   3
  -6  -9  -1 13.6190 3.61103   2
   6   9   1 9.88429 2.86657   3
  -6   9  -1 11.3850 4.84162   3
  -6   9  -1 7.43409 2.48647   2
  -7  -9  -1 29.2473 4.80769   2
  -7   9  -1 28.1683 4.62247   2
   7   9   1 22.5023 3.65651   3
  -7   9  -1 27.9293 6.16175   3
  -8  -9  -1 -2.4406 4.43480   2
  -8   9  -1 1.31445 3.29676   2
   8   9   1 -0.8750 3.06310   3
  -8   9  -1 -0.1848 5.14878   3
  -9  -9  -1 30.7839 6.74819   2
   9   9   1 22.4869 5.17247   3
  -9   9  -1 33.6650 7.91413   3
  -8 -10   1 16.6623 6.08710   2
  -8  10   1 16.4585 6.87009   3
   8  10  -1 10.3425 3.97953   3
  -7 -10   1 2.49660 4.06163   2
  -7  10   1 0.84405 5.23471   3
   7  10  -1 0.05377 2.86776   3
  -6 -10   1 66.4910 7.55176   2
  -6  10   1 75.1321 10.2689   3
   6  10  -1 66.4603 6.74401   3
  -5 -10   1 45.2180 5.38376   2
   5  10  -1 53.3871 5.26654   3
  -5  10   1 45.0650 8.07541   3
  -4 -10   1 50.2225 4.55781   2
   4  10  -1 44.6812 4.94333   3
  -4  10   1 35.6284 5.42612   3
  -3 -10   1 376.157 23.1172   2
   3  10  -1 385.037 23.7012   3
  -3  10   1 380.727 24.6722   3
  -2 -10   1 57.7844 4.71373   2
   2  10  -1 56.2690 5.30803   3
  -2  10   1 51.3610 5.94897   3
   1  10  -1 96.8866 7.38378   3
  -1  10   1 88.3372 7.82939   3
   0  10   1 312.968 19.9102   3
   0  10  -1 306.110 19.7387   3
   1  10   1 86.4094 7.15606   3
  -1  10  -1 91.3993 7.39842   3
  -2 -10  -1 91.2510 5.59427   2
   2  10   1 92.1336 7.44009   3
  -2  10  -1 84.6401 7.79800   3
  -3 -10  -1 467.895 28.5355   2
  -3  10  -1 477.972 30.0724   3
   3  10   1 480.660 29.4530   3
  -4 -10  -1 26.3457 3.79453   2
  -4  10  -1 44.8597 6.73366   3
   4  10   1 36.8879 4.75552   3
  -5 -10  -1 139.101 9.90729   2
   5  10   1 137.263 10.1413   3
  -5  10  -1 134.718 13.0687   3
  -6 -10  -1 192.176 13.3276   2
  -6  10  -1 175.500 15.4916   3
   6  10   1 172.613 12.8953   3
  -7 -10  -1 13.7083 4.55297   2
  -7  10  -1 12.0193 5.79479   3
   7  10   1 18.4573 3.73310   3
  -8 -10  -1 36.0216 10.1040   2
   8  10   1 35.9884 5.20445   3
  -8  10  -1 19.8727 7.47018   3
  -7 -11   1 11.2299 4.62542   2
  -7  11   1 0.95492 6.03257   3
   7  11  -1 6.30654 3.71610   3
  -6 -11   1 109.015 10.1028   2
  -6  11   1 123.592 12.9684   3
   6  11  -1 137.100 9.94175   3
  -5 -11   1 0.92482 2.47815   2
  -5  11   1 -5.4003 4.40209   3
   5  11  -1 -0.8952 2.54086   3
  -4 -11   1 112.083 8.49768   2
  -4  11   1 136.098 11.3560   3
   4  11  -1 128.214 9.24691   3
  -3 -11   1 19.5754 2.36194   2
  -3  11   1 26.9892 5.29812   3
   3  11  -1 21.2246 3.47603   3
  -2  11   1 7.17966 3.18289   3
   2  11  -1 3.14283 2.45993   3
   1  11  -1 8.18868 2.74600   3
  -1  11   1 13.1175 3.24369   3
   0  11   1 45.9314 6.04619   3
   0  11  -1 47.9560 5.73222   3
  -1  11  -1 2.12127 2.79927   3
   1  11   1 1.47088 2.55732   3
  -2  11  -1 48.4246 6.15509   3
   2  11   1 44.5842 5.62614   3
   3  11   1 0.04554 2.82631   3
  -3  11  -1 2.22473 3.55747   3
  -4 -11  -1 37.4588 4.94743   2
  -4  11  -1 37.9876 6.32304   3
   4  11   1 44.9856 5.65855   3
  -5 -11  -1 1.82500 2.44342   2
   5  11   1 -0.3538 2.99058   3
  -5  11  -1 3.98176 4.44652   3
  -6 -11  -1 4.99236 3.65132   2
  -6  11  -1 -4.1236 4.86537   3
  -7 -11  -1 -1.6695 6.84910   2
   7  11   1 2.75258 3.85688   3
  -7  11  -1 11.4881 6.22418   3
  -5  12   1 81.6885 10.9426   3
   5  12  -1 84.6593 8.58537   3
   4  12  -1 2.06497 3.07125   3
  -4  12   1 4.32039 4.51516   3
  -3  12   1 149.920 13.3873   3
   3  12  -1 179.865 12.0980   3
   2  12  -1 2.24020 2.88413   3
  -2  12   1 4.24584 3.79526   3
   1  12  -1 92.0641 8.40639   3
  -1  12   1 103.360 8.98460   3
   0  12  -1 3.10779 3.32077   3
  -1  12  -1 68.2143 10.4121   3
   1  12   1 74.1418 10.2193   3
  -2  12  -1 10.3219 4.00632   3
   2  12   1 15.1842 5.63879   3
  -3  12  -1 285.094 19.7670   3
   4  12   1 5.87549 3.66422   3
  -4  12  -1 8.37402 4.53487   3
  -5  12  -1 72.7232 10.6362   3
   5  12   1 80.7885 8.30332   3
   2  13  -1 15.3921 3.93139   3
  -2  13   1 10.4501 4.37262   3
  -1  13   1 4.36365 3.90003   3
   1  13  -1 -2.6461 3.34546   3
   0  13  -1 23.4766 4.41401   3
   0  13   1 27.8480 4.73198   3
  -1  13  -1 4.42064 3.55413   3
   1  13   1 1.28837 3.63852   3
  -2  13  -1 8.25477 4.00693   3
   2  13   1 14.5033 3.93150   3
 -12   0   2 10.2899 5.00602   2
 -11   0   2 0.29356 3.66533   2
 -10   0   2 15.9517 4.23196   2
  -9   0   2 -2.3379 3.38312   2
   8   0  -2 14.9389 14.0466   1
  -8   0   2 11.7829 9.06041   1
  -7   0   2 2.63765 2.44660   2
  -7   0   2 -4.9993 6.99710   1
  -7   0   2 -0.9862 2.80746   3
   7   0  -2 -1.5370 3.58526   2
  -6   0   2 578.525 33.3617   3
   6   0  -2 525.840 33.4256   2
  -6   0   2 515.752 33.2245   2
  -6   0   2 528.397 38.8102   1
   6   0  -2 571.963 41.2187   1
  -5   0   2 -1.3559 5.05829   1
   5   0  -2 1.75823 1.84621   2
  -5   0   2 2.29807 1.64102   3
  -5   0   2 -0.4666 1.30042   2
   5   0  -2 8.75376 7.03304   1
   4   0  -2 1089.45 71.0987   2
  -4   0   2 1225.84 71.1356   3
  -4   0   2 1194.47 71.1744   2
   4   0  -2 1262.89 75.9295   1
  -4   0   2 1200.99 75.3901   1
  -3   0   2 78.6588 5.37410   3
  -2   0   2 702.856 45.3684   3
  -2   0   2 836.210 45.4720   2
  -2   0   2 743.667 47.8090   1
   2   0  -2 725.641 47.6267   1
   2   0  -2 806.663 45.4233   2
  -1   0   2 1.14206 1.25361   1
   1   0  -2 4.01514 1.50781   1
  -1   0   2 3.50702 0.42566   3
   1   0   2 2.93245 0.52294   3
  -1   0  -2 1.78990 0.47442   3
   1   0   2 0.83831 0.68943   1
  -1   0  -2 1.43344 0.83689   1
  -2   0  -2 6081.51 329.468   3
  -2   0  -2 5823.10 330.504   1
   2   0   2 4834.08 329.958   1
   3   0   2 14.3334 2.14818   3
  -3   0  -2 22.2679 4.16434   1
  -3   0  -2 11.6438 1.79176   2
  -4   0  -2 582.331 33.5253   3
  -4   0  -2 552.113 33.1717   2
   4   0   2 518.987 33.2879   3
  -4   0  -2 552.770 35.5582   1
  -5   0  -2 4.33590 4.13439   1
   5   0   2 3.34166 1.79656   3
   5   0   2 9.53035 2.19503   2
   5   0   2 5.55104 4.88893   1
  -6   0  -2 3913.21 221.043   3
   6   0   2 3696.36 220.676   3
  -6   0  -2 3579.28 224.233   1
  -6   0  -2 3699.55 220.503   2
  -7   0  -2 1.89608 1.87716   2
  -7   0  -2 -2.1590 3.69033   3
   7   0   2 12.4465 10.1406   1
   7   0   2 0.10194 1.99305   3
  -7   0  -2 -3.3645 6.06080   1
   8   0   2 1081.00 58.2528   3
  -8   0  -2 938.023 57.8126   2
   8   0   2 837.484 73.0889   1
  -8   0  -2 921.764 64.0754   1
 -10   0  -2 81.6181 7.56298   2
 -11   0  -2 9.58026 3.81808   2
 -12   0  -2 430.128 28.2317   2
 -12  -1   2 63.4076 9.11882   2
 -12   1   2 58.1897 9.11938   2
 -11  -1   2 62.1608 7.69917   2
 -10  -1   2 101.920 10.0095   2
 -10   1   2 96.7188 9.62337   2
  -9  -1   2 1107.32 65.7284   2
  -9   1   2 1057.03 65.4915   2
  -8  -1   2 6.12919 2.73764   2
   8  -1  -2 9.75153 12.5946   1
  -8  -1   2 0.80802 3.67045   3
  -8   1   2 1.67326 2.15359   2
   8   1  -2 9.50974 14.8244   1
  -8   1   2 3.04823 9.49568   1
  -7  -1   2 2752.85 168.762   3
   7  -1  -2 3111.23 176.223   1
   7  -1  -2 2764.57 168.973   2
  -7  -1   2 2435.21 173.604   1
  -7  -1   2 2836.48 168.882   2
  -7   1   2 2742.97 168.698   2
  -7   1   2 3063.21 175.512   1
  -7   1   2 3053.62 169.006   3
   7   1  -2 2849.88 176.792   1
   7   1  -2 2804.66 168.622   3
   7   1  -2 2848.08 170.517   2
   6  -1  -2 359.597 28.3309   1
  -6  -1   2 369.098 21.2921   2
  -6  -1   2 307.834 20.9091   3
  -6  -1   2 294.442 26.3477   1
   6  -1  -2 340.712 21.2307   2
   6   1  -2 324.314 21.3354   2
  -6   1   2 339.814 21.0006   2
   6   1  -2 311.638 30.2387   1
   6   1  -2 309.502 20.7460   3
  -6   1   2 349.667 21.2382   3
  -6   1   2 350.238 27.6584   1
  -5  -1   2 636.223 47.0483   1
   5  -1  -2 736.600 48.2721   1
  -5  -1   2 756.626 42.9979   2
   5  -1  -2 719.752 42.9301   2
  -5  -1   2 702.731 42.8037   3
  -5   1   2 743.480 42.8380   2
  -5   1   2 751.826 48.3270   1
  -5   1   2 734.489 42.9561   3
   5   1  -2 639.796 48.7530   1
   5   1  -2 665.472 42.6162   3
   5   1  -2 707.276 42.9766   2
   4  -1  -2 109.875 12.8719   1
   4  -1  -2 135.973 8.63183   2
  -4  -1   2 140.323 8.60270   2
  -4  -1   2 112.401 12.4708   1
  -4  -1   2 131.187 8.20644   3
  -4   1   2 108.431 12.5837   1
   4   1  -2 100.759 13.8097   1
   4   1  -2 119.342 8.08681   3
  -4   1   2 134.348 8.42150   2
   4   1  -2 116.671 8.36871   2
  -3  -1   2 2631.53 164.429   1
  -3  -1   2 2674.78 161.283   2
  -3  -1   2 3193.24 161.112   3
   3  -1  -2 2886.80 163.988   1
   3  -1  -2 2566.39 161.174   2
   3   1  -2 2630.94 161.043   3
   3   1  -2 2476.89 161.188   2
   3   1  -2 2521.61 164.694   1
  -3   1   2 3032.39 161.331   3
  -3   1   2 2623.42 161.193   2
   2  -1  -2 6.89790 2.40668   1
  -2  -1   2 5.00011 2.95686   1
  -2  -1   2 8.02222 1.22723   2
   2   1  -2 3.30763 3.14127   1
  -2   1   2 5.37932 0.87985   2
   2   1  -2 8.72142 1.18134   2
  -2   1   2 9.06982 2.42193   1
   2   1  -2 4.99694 0.69823   3
   1  -1  -2 5474.46 324.360   1
  -1   1   2 5494.24 324.398   1
   0  -1  -2 265.231 16.1680   1
   0  -1   2 242.670 15.5055   2
   0  -1  -2 257.057 15.4578   2
   0  -1   2 270.149 15.9597   1
   0  -1  -2 269.315 15.5386   3
   0   1  -2 257.192 15.5116   2
   0   1   2 263.878 15.5413   3
  -1  -1  -2 501.862 27.9580   3
  -1  -1  -2 475.727 28.6398   1
   1  -1   2 468.894 27.9596   1
  -1   1  -2 392.217 28.0748   3
  -1   1  -2 499.573 28.0256   1
   1   1   2 482.412 28.7076   1
   1   1   2 469.506 27.9365   3
  -2  -1  -2 208.249 13.0668   1
   2  -1   2 205.032 12.5304   1
  -2  -1  -2 192.586 11.9162   3
  -2  -1  -2 196.200 11.9156   2
  -2   1  -2 183.711 12.7575   1
   2   1   2 196.459 13.1174   1
   2   1   2 188.527 11.8797   3
   3  -1   2 1593.61 89.1869   1
  -3  -1  -2 1301.30 87.8261   2
  -3  -1  -2 1560.54 87.7878   3
  -3  -1  -2 1529.64 89.2824   1
   3   1   2 1629.84 87.8530   2
  -3   1  -2 1462.92 87.6565   2
   3   1   2 1328.41 87.7353   3
  -3   1  -2 1311.62 89.2082   1
   3   1   2 1597.90 89.5497   1
  -4  -1  -2 21.0803 2.41894   2
  -5  -1  -2 158.238 9.98958   3
   5  -1   2 148.456 14.0139   1
  -5  -1  -2 139.456 12.9156   1
  -5  -1  -2 136.482 9.56423   2
   5  -1   2 134.973 9.90336   3
  -5   1  -2 141.255 9.43256   2
  -5   1  -2 154.478 10.4665   3
  -5   1  -2 114.276 13.3829   1
   5   1   2 144.693 14.3926   1
   5   1   2 151.010 9.52254   3
   5   1   2 153.528 10.0219   2
  -6  -1  -2 3.01883 5.28350   1
   6  -1   2 8.71526 2.64479   3
   6  -1   2 17.9617 7.43453   1
  -6  -1  -2 7.33492 2.89507   3
  -6  -1  -2 7.45571 2.27786   2
  -6   1  -2 10.0876 2.22202   2
   6   1   2 5.57572 2.09839   3
   6   1   2 22.6489 7.92252   1
  -6   1  -2 7.05171 3.37171   3
  -6   1  -2 5.89749 5.69445   1
   6   1   2 6.47679 2.87718   2
   7  -1   2 12.6648 8.91623   1
  -7  -1  -2 4.52293 1.93536   2
  -7  -1  -2 3.82466 3.78438   3
   7  -1   2 13.9255 2.71260   3
  -7  -1  -2 9.49588 6.58929   1
  -7   1  -2 8.82276 7.20006   1
  -7   1  -2 6.76276 2.07062   2
   7   1   2 25.2333 10.8020   1
   7   1   2 9.86889 2.25338   3
   8  -1   2 1.38337 2.96583   3
   8  -1   2 -0.8396 11.0046   1
  -8  -1  -2 -2.1500 2.14367   2
  -8  -1  -2 4.99615 7.52589   1
  -8   1  -2 2.65550 7.82184   1
   8   1   2 -1.3727 2.24788   3
  -8   1  -2 -0.3751 2.07834   2
   8   1   2 -2.6648 12.6387   1
  -9  -1  -2 18.4098 3.75235   2
  -9   1  -2 14.1579 3.46383   2
   9   1   2 21.0467 4.07780   3
 -10  -1  -2 2.87445 2.89711   2
 -10   1  -2 -1.2220 2.65773   2
  10   1   2 3.07391 3.14821   3
 -11  -1  -2 27.4947 4.90149   2
 -11   1  -2 30.5982 4.96198   2
 -12  -1  -2 -2.9246 4.50659   2
 -12   1  -2 1.81609 4.61518   2
 -12  -2   2 11.5098 4.74861   2
 -12   2   2 9.31439 4.47152   2
 -11  -2   2 -1.4523 3.54269   2
 -10  -2   2 1.61233 3.80322   2
 -10   2   2 0.95742 3.15628   2
  -9  -2   2 0.70645 3.59267   2
  -9   2   2 0.36248 2.98435   2
   9   2  -2 -3.6508 2.85556   3
   8  -2  -2 16.5359 17.1510   1
  -8  -2   2 -5.9643 8.76970   1
  -8  -2   2 11.7756 2.99775   2
  -8  -2   2 4.13366 3.52004   3
  -8   2   2 10.2302 2.69205   2
  -8   2   2 -0.5556 10.3030   1
   8   2  -2 9.54632 15.6263   1
   8   2  -2 11.3538 2.49349   3
  -7  -2   2 12.9088 7.85738   1
  -7  -2   2 13.8857 3.12529   2
  -7  -2   2 9.58907 2.98201   3
   7  -2  -2 8.78905 3.70320   2
  -7   2   2 13.3306 8.74555   1
  -7   2   2 14.9788 2.98477   2
  -7   2   2 16.1711 3.61916   3
   7   2  -2 11.1894 2.35904   3
   7   2  -2 6.30995 12.3512   1
  -6  -2   2 345.143 21.5922   3
  -6  -2   2 377.178 22.0429   2
  -6  -2   2 321.413 27.1119   1
   6  -2  -2 357.653 21.9924   2
   6   2  -2 308.781 21.3004   3
  -6   2   2 384.001 29.2136   1
   6   2  -2 302.100 30.9096   1
  -6   2   2 356.524 21.7053   2
  -6   2   2 352.100 22.0728   3
   6   2  -2 349.347 22.1859   2
  -5  -2   2 13.2723 2.54100   3
  -5  -2   2 12.9753 2.25319   2
  -5  -2   2 12.9497 5.54340   1
   5  -2  -2 -1.6526 7.84319   1
   5  -2  -2 14.1267 2.45109   2
   5   2  -2 13.4845 2.58085   2
  -5   2   2 16.5431 2.56858   3
  -5   2   2 14.2034 2.14771   2
   5   2  -2 11.9536 1.77184   3
   5   2  -2 6.55195 7.77961   1
  -5   2   2 12.0489 6.35656   1
   4  -2  -2 413.535 28.6542   2
  -4  -2   2 432.150 31.9326   1
  -4  -2   2 456.310 28.5352   2
   4   2  -2 416.595 28.4183   2
   4   2  -2 502.336 28.0863   3
  -4   2   2 518.213 28.6493   3
   4   2  -2 478.108 33.8847   1
  -4   2   2 531.828 32.5099   1
   3  -2  -2 603.789 41.5009   2
  -3  -2   2 684.025 44.6596   1
  -3  -2   2 781.747 41.3272   3
  -3   2   2 647.000 41.5215   2
   3   2  -2 702.272 45.3761   1
   3   2  -2 751.554 41.3213   3
  -2  -2   2 56.3560 3.45005   3
  -2  -2   2 44.3312 6.26455   1
  -2   2   2 51.1943 5.35592   1
   2   2  -2 53.7662 6.83493   1
   2   2  -2 57.4053 3.45059   3
  -2   2   2 56.0241 3.79724   3
   2   2  -2 52.5940 3.82534   2
  -2   2   2 60.4176 3.68118   2
   1  -2  -2 462.021 29.6876   2
  -1  -2   2 472.211 31.4086   1
  -1  -2   2 497.737 29.6912   3
   1  -2  -2 519.371 29.8660   3
  -1  -2   2 510.725 29.8271   2
   1   2  -2 494.919 31.2054   1
   1   2  -2 517.772 29.8381   2
  -1   2   2 492.439 29.6583   2
   1   2  -2 487.270 29.6716   3
  -1   2   2 552.480 30.8813   1
  -1   2   2 510.970 29.8897   3
   0  -2  -2 6381.52 353.417   1
   0  -2   2 5365.43 353.185   1
   0   2  -2 6178.42 352.890   1
  -1  -2  -2 76.0122 4.67823   2
  -1  -2  -2 76.1288 4.70499   3
  -1  -2  -2 68.9162 5.75469   1
  -1   2  -2 80.0308 4.61226   2
   1   2   2 72.6745 4.69611   3
   1   2   2 68.1290 5.80205   1
  -2  -2  -2 2234.43 130.662   1
   2  -2   2 2217.96 129.866   1
  -2  -2  -2 1993.70 129.375   2
  -2  -2  -2 2113.82 129.339   3
   2   2   2 2210.84 130.766   1
  -2   2  -2 2241.56 129.872   1
   2   2   2 2303.32 129.411   2
   3  -2   2 1639.47 92.4166   1
  -3  -2  -2 1657.55 92.8242   1
  -3   2  -2 1293.81 92.4528   1
   3   2   2 1657.35 93.0786   1
  -3   2  -2 1579.38 90.8711   2
   3   2   2 1675.08 91.4352   2
   3   2   2 1407.13 91.1244   3
  -3   2  -2 1362.31 91.3828   3
  -4  -2  -2 135.402 10.8917   1
   4  -2   2 119.935 10.9987   1
   4  -2   2 124.111 8.61485   3
  -4  -2  -2 106.508 7.93521   2
   4   2   2 126.946 8.25918   2
  -4   2  -2 126.957 8.84871   3
  -4   2  -2 112.984 11.5747   1
   4   2   2 114.375 11.4770   1
  -4   2  -2 118.722 7.76757   2
   4   2   2 117.480 7.77980   3
   5  -2   2 642.368 42.6623   1
  -5  -2  -2 644.512 42.3740   1
  -5  -2  -2 665.848 39.4241   3
  -5  -2  -2 569.913 39.2634   2
   5   2   2 650.834 39.5838   2
  -5   2  -2 651.377 39.1553   2
  -5   2  -2 693.235 40.0920   3
   5   2   2 627.393 39.1426   3
  -5   2  -2 697.212 43.4814   1
   5   2   2 677.556 43.5925   1
  -6  -2  -2 3289.59 195.104   1
   6  -2   2 3257.78 195.323   1
  -6  -2  -2 3498.11 191.579   3
  -6  -2  -2 2855.23 191.220   2
   6   2   2 3257.38 196.182   1
   6   2   2 3211.68 191.151   3
   6   2   2 3335.63 191.696   2
  -6   2  -2 3107.36 191.095   2
   7  -2   2 76.2786 12.3021   1
  -7  -2  -2 62.8099 5.63693   2
  -7  -2  -2 48.7625 9.12248   1
  -7  -2  -2 48.7334 7.30484   3
   7   2   2 57.5406 12.5957   1
  -7   2  -2 81.9417 11.8319   1
   7   2   2 56.7306 5.29256   3
  -7   2  -2 65.0106 5.33437   2
   8  -2   2 596.905 44.9145   1
  -8  -2  -2 610.673 36.0533   2
  -8  -2  -2 525.321 41.9580   1
   8   2   2 592.238 35.8418   3
   8   2   2 569.514 46.7366   1
  -8   2  -2 581.930 35.7579   2
   9   2   2 274.617 18.3487   3
  -9   2  -2 271.563 18.2532   2
 -10  -2  -2 44.9914 6.12691   2
 -10   2  -2 45.0192 5.74938   2
  10   2   2 47.0957 6.33917   3
 -11  -2  -2 97.7584 9.47739   2
 -11   2  -2 78.6988 8.68414   2
 -12  -2  -2 347.430 22.9317   2
 -12   2  -2 305.661 22.2696   2
 -12  -3   2 200.652 15.3405   2
 -12   3   2 158.507 14.2637   2
 -11  -3   2 25.2866 5.10028   2
 -10  -3   2 388.131 25.1753   2
 -10   3   2 364.391 24.3732   2
  -9  -3   2 705.957 39.9704   2
   9   3  -2 545.368 38.8825   3
  -9   3   2 659.402 39.2949   2
  -8  -3   2 35.6682 5.00549   3
   8   3  -2 35.8000 4.41171   3
   8   3  -2 33.9363 18.0273   1
  -7  -3   2 894.386 50.6700   3
  -7  -3   2 733.313 56.5822   1
   7  -3  -2 906.340 51.0652   2
   7   3  -2 819.967 50.2706   3
   7   3  -2 797.438 60.9868   1
  -6  -3   2 1085.11 60.8962   3
  -6  -3   2 883.481 65.7751   1
   6  -3  -2 968.272 61.1322   2
   6   3  -2 942.401 68.7342   1
   6   3  -2 1022.90 60.7013   3
   6   3  -2 1105.85 61.6299   2
  -6   3   2 1108.36 61.0707   2
  -6   3   2 980.685 61.3699   3
   5  -3  -2 109.266 8.50277   2
  -5  -3   2 131.016 8.83720   2
  -5  -3   2 131.680 8.19548   3
  -5  -3   2 119.162 13.4929   1
  -5   3   2 145.531 8.48664   2
   5   3  -2 100.418 16.5583   1
   5   3  -2 122.783 9.06311   2
  -5   3   2 113.941 8.77068   3
  -5   3   2 86.5517 17.0406   1
   5   3  -2 126.198 8.00827   3
  -4  -3   2 1433.95 89.3168   2
  -4  -3   2 1465.86 92.7940   1
  -4  -3   2 1620.40 88.8586   3
   4  -3  -2 1424.83 89.0585   2
   4   3  -2 1594.22 93.9696   1
   4   3  -2 1588.10 88.8267   3
  -4   3   2 1548.41 89.1774   2
   4   3  -2 1321.06 89.2488   2
  -3  -3   2 2057.23 118.024   3
  -3  -3   2 1990.86 121.259   1
  -3  -3   2 2027.94 118.446   2
   3  -3  -2 1870.63 118.162   2
  -3   3   2 1731.63 118.149   2
   3   3  -2 2023.35 118.002   3
   3   3  -2 2118.59 121.738   1
  -3   3   2 2165.71 120.604   1
  -2  -3   2 133.205 11.2269   1
   2  -3  -2 142.393 8.66195   2
  -2  -3   2 164.850 8.65566   3
  -2  -3   2 146.808 8.89134   2
  -2   3   2 129.868 9.21818   3
   2   3  -2 129.183 8.90371   2
   2   3  -2 148.799 11.4543   1
  -2   3   2 138.184 10.2784   1
  -2   3   2 139.910 8.63657   2
   2   3  -2 141.604 8.58227   3
  -1  -3   2 1715.22 104.665   3
  -1  -3   2 1684.00 104.706   2
   1  -3  -2 1844.13 104.835   3
  -1  -3   2 1889.16 106.427   1
   1   3  -2 1863.47 105.996   1
   1   3  -2 1670.41 104.628   3
  -1   3   2 1722.10 104.850   3
   1   3  -2 1788.39 104.754   2
   0  -3   2 1888.80 104.532   1
   0  -3  -2 1776.66 103.731   3
   0  -3   2 1634.86 103.569   2
   0  -3  -2 1793.26 104.796   1
   0   3  -2 1684.11 103.632   3
   0   3  -2 1704.09 103.589   2
   0   3  -2 1836.08 104.175   1
   0   3   2 1712.44 103.733   3
   1  -3   2 152.658 9.26044   1
  -1  -3  -2 144.079 10.4705   1
   1  -3   2 154.375 9.35896   1
  -1  -3  -2 152.659 9.22797   3
   1   3   2 152.130 10.6769   1
  -1   3  -2 146.818 9.05367   2
   1   3   2 144.735 9.20531   3
  -2  -3  -2 485.297 28.5137   3
  -2  -3  -2 515.728 30.0198   1
  -2  -3  -2 416.335 28.3149   2
  -2   3  -2 428.468 29.2584   3
   2   3   2 520.727 30.2577   1
  -3  -3  -2 699.781 40.5883   1
  -3  -3  -2 678.294 38.3605   3
   3  -3   2 579.299 39.7160   1
  -3  -3  -2 544.300 38.7397   2
   3   3   2 676.706 38.3083   3
  -3   3  -2 648.058 38.2760   2
  -3   3  -2 567.058 38.9014   3
   3   3   2 664.420 40.7745   1
  -3   3  -2 710.290 39.1312   1
  -4  -3  -2 2.48121 3.20159   1
   4  -3   2 9.91166 3.93368   1
  -4  -3  -2 2.82024 1.35829   3
  -4  -3  -2 3.41193 1.40049   2
   4   3   2 9.71065 4.63671   1
  -4   3  -2 0.66269 2.15064   3
  -4   3  -2 1.73331 3.10148   1
  -5  -3  -2 53.6113 4.80506   3
   5  -3   2 62.2924 10.6265   1
  -5  -3  -2 43.4476 4.81447   2
  -5  -3  -2 70.4299 9.40661   1
  -5   3  -2 60.9887 9.90035   1
  -5   3  -2 55.2177 4.45147   2
  -5   3  -2 60.4129 6.57506   3
   5   3   2 60.3087 5.68600   2
   5   3   2 50.7635 8.82682   1
   5   3   2 57.7646 4.48600   3
  -6  -3  -2 80.7015 11.8284   1
  -6  -3  -2 87.6511 7.24093   3
   6  -3   2 93.2207 14.3152   1
  -6  -3  -2 72.8203 6.55464   2
   6   3   2 78.4546 6.21444   3
   6   3   2 63.1053 11.6138   1
   6   3   2 75.9120 7.75941   2
  -6   3  -2 88.8019 13.4870   1
  -6   3  -2 75.4185 6.17848   2
  -6   3  -2 82.5326 8.60041   3
   7  -3   2 -1.4656 8.71158   1
  -7  -3  -2 2.15549 7.11206   1
  -7  -3  -2 5.02184 2.36831   2
   7   3   2 12.4284 11.2106   1
  -7   3  -2 12.9094 8.03487   1
   7   3   2 6.15585 1.93442   3
  -7   3  -2 3.67787 1.86810   2
  -8  -3  -2 5.15446 2.74167   2
  -8  -3  -2 -10.158 8.76174   1
  -8   3  -2 14.5497 10.1802   1
   8   3   2 -0.3654 15.9155   1
  -8   3  -2 5.35476 2.30629   2
   8   3   2 4.00153 2.43622   3
  -9  -3  -2 3.42739 3.55596   2
  -9   3  -2 5.49339 3.12719   2
   9   3   2 2.86157 3.25774   3
 -10  -3  -2 13.8876 3.99904   2
  10   3   2 10.3093 3.55401   3
 -10   3  -2 6.58668 2.98883   2
 -11  -3  -2 17.5759 4.35754   2
  11   3   2 16.8371 6.20121   3
 -11   3  -2 9.81533 3.74679   2
 -12  -3  -2 14.6806 5.48791   2
 -12   3  -2 10.4064 4.71149   2
  12   3   2 7.37097 5.30393   3
 -12  -4   2 5.32086 5.15243   2
 -12   4   2 3.85053 4.20429   2
 -11  -4   2 7.33790 4.14263   2
 -10  -4   2 5.75148 4.51696   2
 -10   4   2 -0.2897 2.97470   2
  10   4  -2 -1.4949 3.20946   3
  -9  -4   2 10.8717 4.19869   2
   9   4  -2 8.82711 3.19123   3
  -9   4   2 20.3880 3.84657   2
  -8  -4   2 -6.3839 3.57854   3
  -8  -4   2 1.21356 2.82118   2
  -8  -4   2 11.3183 10.4988   1
   8   4  -2 -0.7145 1.93297   3
   8   4  -2 -0.1171 17.8885   1
  -8   4   2 2.20192 2.27165   2
  -7  -4   2 19.5892 3.92363   2
  -7  -4   2 14.7157 3.24191   3
  -7  -4   2 13.6110 9.12040   1
   7  -4  -2 14.0513 10.3879   1
  -7   4   2 23.1090 3.20849   2
   7   4  -2 2.46955 22.9883   1
  -7   4   2 7.39389 9.87639   1
   7   4  -2 14.4500 2.47166   3
  -6  -4   2 126.588 9.16053   2
  -6  -4   2 88.3093 15.1833   1
   6  -4  -2 124.660 17.3565   1
   6  -4  -2 107.284 8.71180   2
  -6  -4   2 109.011 8.09536   3
  -6   4   2 129.547 8.35700   2
  -6   4   2 92.1798 15.2932   1
   6   4  -2 112.727 20.3403   1
  -6   4   2 93.0536 9.63652   3
   6   4  -2 122.269 10.0219   2
   6   4  -2 114.281 7.78011   3
  -5  -4   2 58.9210 11.1531   1
  -5  -4   2 64.2500 4.55711   3
   5  -4  -2 51.8082 8.90585   1
   5  -4  -2 59.9424 5.04012   2
  -5  -4   2 57.9007 5.33851   2
   5   4  -2 38.9431 10.5367   1
   5   4  -2 53.3574 6.00628   2
  -5   4   2 67.1123 4.88579   2
  -5   4   2 55.5053 5.92800   3
   5   4  -2 59.1634 4.34639   3
  -5   4   2 58.6549 10.2645   1
  -4  -4   2 154.202 15.0988   1
   4  -4  -2 164.956 14.1006   1
   4  -4  -2 180.916 10.6129   2
  -4  -4   2 158.051 10.9901   2
  -4  -4   2 165.512 10.3690   3
   4   4  -2 160.839 10.5576   3
  -4   4   2 167.935 13.7692   1
   4   4  -2 166.227 16.8636   1
  -4   4   2 169.154 10.6074   2
  -3  -4   2 1198.92 71.8963   2
   3  -4  -2 1252.40 73.6576   1
  -3  -4   2 1238.38 71.5627   3
  -3  -4   2 1181.74 74.8619   1
  -3   4   2 1184.34 72.0319   3
   3   4  -2 1180.85 74.8416   1
   3   4  -2 1200.00 71.4980   3
  -3   4   2 1218.48 73.5841   1
  -2  -4   2 48.5972 3.20598   3
   2  -4  -2 41.0360 5.30400   1
  -2  -4   2 49.4420 3.44411   2
  -2  -4   2 42.0479 6.44909   1
  -2   4   2 37.2414 6.64774   1
  -2   4   2 47.0881 2.88736   2
   2   4  -2 41.2369 6.06923   1
   2   4  -2 39.8060 3.55275   2
  -2   4   2 45.9179 3.58808   3
   2   4  -2 46.4214 3.08394   3
  -1  -4   2 1530.45 84.8823   1
   1  -4  -2 1379.22 84.2762   1
   1  -4  -2 1428.79 83.0743   3
  -1  -4   2 1386.93 82.9244   3
  -1  -4   2 1358.48 82.8748   2
   1   4  -2 1363.49 82.9500   2
  -1   4   2 1372.71 83.1027   3
   1   4  -2 1447.07 84.2990   1
   1   4  -2 1344.09 82.8626   3
   0  -4  -2 1184.87 75.9814   2
   0  -4  -2 1284.96 77.6974   1
   0  -4   2 1384.01 77.4517   1
   0  -4   2 1212.67 76.1554   2
   0  -4  -2 1364.91 76.4218   3
   0   4   2 1291.38 76.4208   3
   0   4  -2 1254.06 76.2863   3
   0   4  -2 1319.34 77.0308   1
   0   4  -2 1299.10 76.2035   2
  -1  -4  -2 293.258 20.5212   1
  -1  -4  -2 327.678 19.0161   3
   1  -4   2 310.493 19.2542   1
   1  -4   2 332.496 19.4935   1
   1   4   2 303.313 20.6653   1
  -1   4  -2 313.857 18.7628   2
   1   4   2 312.918 18.9915   3
  -2  -4  -2 862.685 51.7959   3
  -2  -4  -2 852.296 53.6176   1
   2  -4   2 890.816 52.1911   1
   2  -4   2 846.640 51.9265   1
   2   4   2 844.950 51.7523   3
   2   4   2 939.710 51.7877   2
  -2   4  -2 844.759 51.5657   2
   2   4   2 875.959 53.8734   1
  -3  -4  -2 3195.71 182.464   3
   3  -4   2 2606.01 183.500   1
  -3  -4  -2 3299.88 184.919   1
   3   4   2 3032.15 182.387   3
  -3   4  -2 2571.84 182.421   2
   3   4   2 3340.00 185.258   1
   3   4   2 3410.19 182.636   2
  -3   4  -2 3226.88 182.799   1
  -3   4  -2 3085.49 183.162   3
  -4  -4  -2 105.103 7.51444   3
  -4  -4  -2 123.105 11.4524   1
   4  -4   2 107.560 10.9463   1
  -4   4  -2 112.176 7.22193   2
   4   4   2 106.532 7.91423   2
   4   4   2 108.849 12.2133   1
   4   4   2 108.043 7.28090   3
  -4   4  -2 105.735 8.58152   3
  -4   4  -2 117.485 8.86296   1
  -5  -4  -2 1257.63 74.8970   3
  -5  -4  -2 1097.63 74.9864   2
   5  -4   2 1293.80 78.0186   1
  -5  -4  -2 1233.04 78.3255   1
  -5   4  -2 1316.75 76.9492   1
   5   4   2 1261.83 74.7049   3
  -5   4  -2 1244.38 74.6613   2
  -5   4  -2 1312.14 75.9042   3
   5   4   2 1301.69 79.6357   1
   5   4   2 1228.75 75.2199   2
  -6  -4  -2 821.551 53.9677   1
  -6  -4  -2 820.223 49.6206   3
   6  -4   2 857.359 53.9406   1
  -6  -4  -2 805.090 49.7343   2
   6   4   2 828.942 49.2907   3
   6   4   2 821.152 55.9955   1
   6   4   2 787.409 50.0639   2
  -6   4  -2 808.201 49.2470   2
  -6   4  -2 824.680 52.8739   1
   7  -4   2 127.812 18.7521   1
  -7  -4  -2 93.2610 15.9845   1
  -7  -4  -2 111.195 8.52057   2
   7   4   2 110.160 7.79397   3
  -7   4  -2 96.0097 7.70632   2
   7   4   2 109.348 17.5577   1
  -7   4  -2 114.342 16.3045   1
  -8  -4  -2 186.447 24.3961   1
  -8  -4  -2 240.684 15.2319   2
  -8   4  -2 202.926 14.3470   2
   8   4   2 212.566 14.5137   3
  -8   4  -2 233.197 27.2877   1
   9   4   2 669.180 40.0753   3
  -9   4  -2 627.082 39.8688   2
 -10  -4  -2 5.32391 6.13887   2
 -10   4  -2 9.74819 3.19624   2
  10   4   2 11.5111 3.73071   3
  11   4   2 152.091 13.2277   3
 -11   4  -2 176.114 12.8591   2
 -11  -5   2 6.12841 4.57586   2
  11   5  -2 -1.6516 3.96249   3
 -10  -5   2 479.563 31.5716   2
 -10   5   2 466.638 29.9362   2
  -9  -5   2 117.549 11.2849   2
  -9   5   2 111.759 9.47477   2
  -8  -5   2 67.6938 8.61370   3
  -8  -5   2 79.8139 7.84106   2
  -8  -5   2 42.0895 13.2041   1
  -8   5   2 89.7798 6.60916   2
   8   5  -2 64.5151 6.01449   3
   8   5  -2 32.9621 21.9268   1
   7  -5  -2 126.804 22.5920   1
  -7  -5   2 196.962 12.5677   2
  -7  -5   2 154.663 21.7617   1
  -7  -5   2 155.347 11.4543   3
   7   5  -2 159.436 10.8028   3
  -7   5   2 165.006 21.0407   1
   7   5  -2 114.365 21.6021   1
  -6  -5   2 1133.91 81.4140   1
  -6  -5   2 1319.05 76.7852   2
  -6  -5   2 1300.41 76.0332   3
   6   5  -2 1209.25 84.3763   1
  -6   5   2 1313.59 80.8568   1
   6   5  -2 1344.07 75.8984   3
  -5  -5   2 56.5152 4.43451   3
  -5  -5   2 41.7284 8.61778   1
  -5  -5   2 53.1556 5.23466   2
   5  -5  -2 47.3554 8.45405   1
  -5   5   2 48.1572 5.37671   3
  -5   5   2 51.9241 9.71782   1
   5   5  -2 51.0027 10.7121   1
   5   5  -2 61.2798 6.35313   2
   5   5  -2 52.6981 4.07727   3
  -4  -5   2 1923.06 118.966   1
   4  -5  -2 1982.01 117.341   1
  -4  -5   2 2014.24 115.048   2
  -4  -5   2 1982.85 114.579   3
   4   5  -2 1868.47 122.036   1
  -4   5   2 1952.49 115.268   3
  -4   5   2 1972.70 117.190   1
   4   5  -2 1679.02 115.030   2
  -4   5   2 1908.80 114.594   2
   4   5  -2 2045.71 114.494   3
  -3  -5   2 166.973 9.95257   2
   3  -5  -2 149.410 12.2843   1
  -3  -5   2 167.751 14.2433   1
  -3   5   2 138.566 11.9955   1
  -3   5   2 155.226 10.2032   3
   3   5  -2 169.844 14.4371   1
  -3   5   2 150.933 9.34783   2
   3   5  -2 125.128 10.0021   3
  -2  -5   2 148.990 8.99727   3
  -2  -5   2 135.142 9.03279   2
  -2  -5   2 147.217 12.8131   1
   2  -5  -2 144.820 11.1108   1
   2  -5  -2 155.794 11.2740   1
   2   5  -2 152.926 11.9338   1
   2   5  -2 118.326 9.01285   3
  -2   5   2 149.832 9.39709   3
   1  -5  -2 209.851 16.3618   1
   1  -5  -2 237.224 16.8548   1
  -1  -5   2 262.426 14.6600   2
   1  -5  -2 249.642 14.9786   3
   1   5  -2 202.134 15.2267   3
   1   5  -2 249.038 14.8118   2
  -1   5   2 254.946 15.0519   3
   1   5  -2 264.459 16.6724   1
   0  -5  -2 1832.84 103.280   3
   0  -5   2 1679.50 102.928   2
   0  -5  -2 1746.09 104.876   1
   0   5  -2 1672.75 103.130   3
   0   5  -2 1789.96 104.118   1
   0   5  -2 1737.95 103.005   2
   0   5   2 1732.43 103.267   3
  -1  -5  -2 42.6554 3.01386   2
  -1  -5  -2 47.1341 6.05851   1
  -1  -5  -2 42.7175 3.48309   3
   1  -5   2 46.2034 4.23184   1
  -1   5  -2 43.1485 3.00227   2
  -1   5  -2 43.1657 3.47421   3
   1   5   2 45.9072 6.12447   1
   2  -5   2 733.500 44.3411   1
  -2  -5  -2 739.852 43.9129   3
   2  -5   2 734.970 44.3299   1
  -2  -5  -2 713.580 46.0520   1
   2   5   2 713.245 43.8391   3
  -2   5  -2 721.890 43.5718   2
   2   5   2 705.997 46.2808   1
   2   5   2 803.193 43.7997   2
   3  -5   2 56.6233 6.75303   1
  -3  -5  -2 55.4674 8.27404   1
  -3  -5  -2 52.5408 4.73209   2
  -3  -5  -2 56.9248 4.61652   3
   3  -5   2 56.0010 5.01062   1
  -3   5  -2 52.7702 3.95187   2
   3   5   2 55.5002 8.71253   1
  -3   5  -2 67.2684 6.25201   3
   3   5   2 50.6846 4.32574   3
  -4  -5  -2 5.57029 4.49565   1
   4  -5   2 0.04638 4.34554   1
  -4  -5  -2 0.03411 1.59506   3
  -4  -5  -2 2.50049 1.71294   2
  -4   5  -2 0.12041 2.75866   3
  -4   5  -2 1.50893 2.16648   1
   4   5   2 4.65036 2.12427   2
   4   5   2 4.20787 5.61611   1
   4   5   2 -0.4204 1.12701   3
  -4   5  -2 1.22814 1.10557   2
  -5  -5  -2 16.5524 7.17579   1
  -5  -5  -2 10.4142 2.54112   3
  -5  -5  -2 9.83284 2.59554   2
   5  -5   2 16.1761 6.56670   1
   5   5   2 10.0848 7.82687   1
   5   5   2 14.9303 3.38531   2
  -5   5  -2 9.91622 5.92647   3
  -5   5  -2 9.37982 3.65943   1
  -5   5  -2 13.3857 2.09379   2
   5   5   2 20.1871 2.94860   3
  -6  -5  -2 55.1128 10.6201   1
  -6  -5  -2 64.2012 6.37897   2
   6  -5   2 54.6390 9.85171   1
  -6  -5  -2 59.3457 6.64105   3
  -6   5  -2 61.4728 10.2475   1
  -6   5  -2 50.5862 5.06655   2
   6   5   2 59.5807 13.1640   1
   6   5   2 55.3232 5.21583   3
  -7  -5  -2 2.91455 2.77720   2
  -7  -5  -2 -5.2904 8.33635   1
   7  -5   2 8.53902 16.2450   1
  -7   5  -2 1.73572 1.82246   2
  -7   5  -2 4.47432 7.23784   1
   7   5   2 2.10174 1.96540   3
   7   5   2 0.16408 14.0533   1
  -8  -5  -2 -0.6497 3.05380   2
  -8   5  -2 -2.5586 2.10962   2
   8   5   2 1.14214 2.49992   3
  -9  -5  -2 9.59793 4.35862   2
  -9   5  -2 -0.7669 2.88776   2
   9   5   2 -0.7996 3.24646   3
 -10  -5  -2 13.6252 4.32763   2
 -10   5  -2 4.68006 3.26739   2
  10   5   2 6.82468 3.56703   3
 -11  -5  -2 -5.1736 4.00239   2
 -11   5  -2 -2.0940 3.42337   2
  11   5   2 3.67290 4.17909   3
 -11  -6   2 11.3067 4.98253   2
  11   6  -2 3.78833 4.49407   3
 -10  -6   2 2.38067 4.71285   2
  10   6  -2 -0.4922 3.49935   3
 -10   6   2 0.03405 3.30179   2
  -9  -6   2 5.64286 4.34746   2
  -9   6   2 10.0354 3.33362   2
   9   6  -2 13.0616 3.44316   3
  -8  -6   2 -9.5319 13.4476   1
  -8  -6   2 0.24974 3.11321   2
   8   6  -2 1.77323 2.17838   3
   8   6  -2 -0.6612 23.4857   1
  -8   6   2 3.45522 2.41628   2
  -7  -6   2 16.8093 3.82453   2
  -7  -6   2 22.6293 11.0758   1
  -7  -6   2 12.4183 3.61984   3
   7   6  -2 23.0295 3.61972   3
  -7   6   2 16.6756 2.94949   2
   7   6  -2 19.1162 18.1783   1
  -7   6   2 14.8535 4.21733   3
  -6  -6   2 -0.5635 9.43173   1
  -6  -6   2 4.96724 2.92315   2
  -6  -6   2 0.15873 2.35825   3
   6  -6  -2 16.5273 9.66416   1
  -6   6   2 8.35011 7.34161   1
  -6   6   2 4.05414 2.11091   2
   6   6  -2 4.24907 1.93045   3
  -6   6   2 2.94911 3.28430   3
   6   6  -2 0.42891 12.3676   1
  -5  -6   2 89.6367 6.43910   3
  -5  -6   2 86.2360 6.92549   2
   5  -6  -2 75.6903 13.7392   1
  -5  -6   2 102.980 14.8620   1
   5   6  -2 64.4125 12.7245   1
   5   6  -2 87.8504 5.95688   3
  -5   6   2 87.8559 7.37094   3
  -5   6   2 82.4829 11.6476   1
   5   6  -2 77.2302 8.48895   2
  -4  -6   2 13.3704 6.13816   1
   4  -6  -2 2.69794 5.08350   1
  -4  -6   2 7.98862 2.14215   2
  -4  -6   2 7.83982 1.80449   3
   4   6  -2 -1.9806 6.58854   1
  -4   6   2 6.12830 1.36096   2
   4   6  -2 3.91906 2.83038   2
   4   6  -2 5.46369 1.48432   3
  -4   6   2 5.65948 2.40399   3
  -4   6   2 4.32538 4.11498   1
  -3  -6   2 1101.57 64.2156   3
  -3  -6   2 1079.81 68.2100   1
  -3  -6   2 1110.55 64.3105   2
   3  -6  -2 1051.04 66.4513   1
   3  -6  -2 1072.19 66.4315   1
   3   6  -2 1068.08 64.0473   3
   3   6  -2 1099.84 67.8403   1
  -3   6   2 1040.95 64.6760   3
  -2  -6   2 -0.2966 4.02323   1
   2  -6  -2 -4.5175 3.08563   1
  -2  -6   2 3.96782 1.39273   3
   2  -6  -2 1.98388 3.23966   1
  -2  -6   2 3.67364 1.13757   2
   2   6  -2 0.74377 1.01948   3
   2   6  -2 1.02143 1.53122   2
   2   6  -2 6.83004 4.26908   1
  -2   6   2 5.01242 1.64058   3
   1  -6  -2 828.204 52.0715   1
  -1  -6   2 899.975 52.8942   1
   1  -6  -2 822.628 52.2035   1
  -1  -6   2 824.910 49.9964   2
  -1   6   2 846.706 50.4548   3
   1   6  -2 778.320 50.1991   2
   1   6  -2 869.181 52.0879   1
   1   6  -2 869.256 50.1712   3
   0  -6  -2 40.5526 4.21823   3
   0  -6   2 45.6812 3.13953   2
   0  -6  -2 42.4946 6.79714   1
   0  -6   2 45.6144 6.41672   1
   0   6  -2 42.5976 5.70334   1
   0   6   2 42.7606 3.86453   3
   0   6  -2 40.4611 3.69522   3
   0   6  -2 44.3465 3.40950   2
  -1  -6  -2 199.419 12.5843   3
  -1  -6  -2 199.131 11.9368   2
  -1  -6  -2 191.768 15.1273   1
   1  -6   2 196.833 13.3925   1
   1  -6   2 222.338 14.0759   1
   1   6   2 192.800 12.4766   3
   1   6   2 172.517 16.4017   1
  -1   6  -2 201.987 12.0767   2
  -1   6  -2 199.948 12.4954   3
  -2  -6  -2 2.54310 1.22420   2
  -2  -6  -2 -1.0853 1.61777   3
   2  -6   2 0.14548 2.15328   1
   2  -6   2 -0.1545 2.31098   1
  -2   6  -2 0.45671 1.62242   3
   2   6   2 0.60863 1.34960   3
   2   6   2 9.22988 5.44512   1
  -3  -6  -2 2488.17 167.685   2
   3  -6   2 2937.92 168.284   1
  -3  -6  -2 2939.47 167.791   3
  -3  -6  -2 2974.12 170.954   1
   3  -6   2 2908.33 168.736   1
   3   6   2 2818.61 167.669   3
  -3   6  -2 2460.69 167.464   2
  -3   6  -2 2812.90 168.091   3
   3   6   2 3152.52 167.777   2
  -4  -6  -2 7.89387 5.37513   1
  -4  -6  -2 9.79167 2.41946   3
   4  -6   2 12.4992 7.27050   1
   4   6   2 10.3627 2.68730   2
  -4   6  -2 15.2957 4.46593   3
  -4   6  -2 10.2279 1.65763   2
  -4   6  -2 10.8759 1.64010   2
   4   6   2 9.60273 7.10004   1
   4   6   2 9.91261 1.85661   3
   5  -6   2 964.917 57.0220   1
  -5  -6  -2 847.096 53.4367   3
  -5  -6  -2 841.185 57.7740   1
  -5  -6  -2 874.442 53.7179   2
   5   6   2 867.434 59.0721   1
  -5   6  -2 902.355 53.0042   2
   5   6   2 909.386 53.2102   3
  -5   6  -2 878.572 53.0494   2
   5   6   2 894.149 53.8427   2
  -6  -6  -2 44.1591 10.4484   1
   6  -6   2 55.7931 10.0484   1
   6   6   2 60.5194 5.89877   3
   6   6   2 57.1000 14.0307   1
  -6   6  -2 67.8928 5.69528   2
   7  -6   2 72.9022 12.0381   1
  -7  -6  -2 46.0998 11.9381   1
  -7   6  -2 51.0628 5.40147   2
  -7   6  -2 60.0741 8.90970   1
   7   6   2 53.9379 17.5600   1
   7   6   2 68.8151 5.65030   3
  -8  -6  -2 8.46749 3.91562   2
   8   6   2 6.88648 3.11861   3
  -8   6  -2 5.27910 2.60712   2
  -9   6  -2 654.076 41.4822   2
   9   6   2 697.399 41.7374   3
 -10  -6  -2 -6.6204 3.74789   2
  10   6   2 8.81344 6.62227   3
 -10   6  -2 -2.5726 3.09873   2
 -11  -6  -2 184.803 14.3787   2
 -11   6  -2 145.750 12.7086   2
  11   6   2 147.962 13.1280   3
 -10  -7   2 259.161 19.1424   2
 -10   7   2 249.479 17.2800   2
 -10   7   2 243.114 19.3466   3
  -9   7   2 26.3288 6.24120   3
   9   7  -2 16.3156 3.96622   3
  -8  -7   2 14.9373 4.29280   2
  -8   7   2 17.4837 3.11938   2
  -8   7   2 15.2577 4.88302   3
   8   7  -2 14.1361 3.06344   3
  -7  -7   2 8.19470 4.28455   3
  -7  -7   2 9.72366 13.9345   1
  -7  -7   2 17.7925 4.20969   2
  -7   7   2 18.8419 3.03757   2
   7   7  -2 3.71876 19.3594   1
   7   7  -2 12.1303 2.76187   3
  -7   7   2 7.94041 4.37521   3
  -6  -7   2 906.694 67.2360   1
  -6  -7   2 1009.11 59.6570   3
  -6  -7   2 1071.00 60.3117   2
  -6   7   2 997.415 60.8182   3
  -6   7   2 911.421 70.4956   1
   6   7  -2 923.858 70.0128   1
   6   7  -2 1063.34 59.3169   3
  -5  -7   2 -1.7192 8.75784   1
   5  -7  -2 -1.2895 7.44041   1
  -5  -7   2 -2.1673 2.09820   2
  -5  -7   2 -0.1022 2.33200   3
   5   7  -2 1.02351 1.40614   3
  -5   7   2 1.09380 1.48250   2
   5   7  -2 -7.1975 4.20765   2
   5   7  -2 4.93255 10.4118   1
  -5   7   2 -2.9029 2.63879   3
   4  -7  -2 878.935 54.5249   1
   4  -7  -2 852.007 54.5380   1
  -4  -7   2 902.032 51.3774   2
  -4  -7   2 864.505 51.2134   3
  -4  -7   2 817.656 56.6910   1
   4   7  -2 882.861 50.9511   3
  -4   7   2 869.939 51.9889   3
  -4   7   2 852.052 50.4959   2
  -4   7   2 831.802 50.4355   2
   4   7  -2 779.063 51.8298   2
   4   7  -2 848.426 56.8174   1
  -3  -7   2 34.3889 8.07512   1
   3  -7  -2 42.0209 6.82271   1
  -3  -7   2 44.1966 4.01886   2
   3  -7  -2 34.6900 6.46254   1
  -3  -7   2 39.5118 4.40015   3
   3   7  -2 36.5025 5.36820   2
   3   7  -2 31.2264 7.92384   1
   3   7  -2 40.3580 3.80843   3
  -3   7   2 41.7832 5.18169   3
  -2  -7   2 11.3031 5.71567   1
   2  -7  -2 8.86654 4.23147   1
  -2  -7   2 5.28855 1.27675   2
   2  -7  -2 3.23647 4.08279   1
  -2  -7   2 6.20437 1.87095   3
   2   7  -2 5.65958 2.09173   2
   2   7  -2 9.39000 4.95529   1
  -2   7   2 2.49775 1.78771   3
   2   7  -2 7.22558 1.40698   3
   1  -7  -2 76.4289 9.09044   1
  -1  -7   2 65.9841 9.71020   1
   1   7  -2 60.7476 4.79652   3
  -1   7   2 64.4429 5.23075   3
   1   7  -2 52.0050 8.40965   1
   0  -7   2 1360.36 78.8401   1
   0  -7  -2 1292.03 76.6059   3
   0  -7  -2 1307.45 79.0049   1
   0  -7   2 1242.47 75.9797   2
   0   7  -2 1215.19 76.2013   2
   0   7   2 1271.74 76.5500   3
   0   7  -2 1315.10 77.9698   1
   0   7  -2 1273.26 76.3911   3
  -1  -7  -2 4.76650 1.98329   3
   1  -7   2 -2.4620 2.70112   1
  -1  -7  -2 -0.0989 4.39564   1
   1  -7   2 0.05085 3.38722   1
  -1  -7  -2 0.30539 0.53417   2
   1   7   2 1.26623 1.42951   3
  -1   7  -2 0.24950 0.97215   2
   1   7   2 4.36166 4.68322   1
  -1   7  -2 -1.0726 1.33352   3
   2  -7   2 283.510 18.7596   1
  -2  -7  -2 278.549 17.2726   3
  -2  -7  -2 278.459 16.6776   2
  -2  -7  -2 280.073 21.1916   1
   2  -7   2 280.682 18.3808   1
   2   7   2 257.587 21.0481   1
  -2   7  -2 275.517 16.6115   2
  -2   7  -2 261.327 17.2590   3
   2   7   2 273.896 17.1487   3
  -3  -7  -2 9.00874 1.93284   2
   3  -7   2 1.54844 3.25154   1
  -3  -7  -2 6.80628 5.89171   1
  -3  -7  -2 7.25902 2.50956   3
   3   7   2 4.08237 6.46540   1
   3   7   2 11.3134 2.14436   2
   3   7   2 3.58803 1.98833   3
  -3   7  -2 5.48192 1.44843   2
  -4  -7  -2 30.1298 4.09470   2
  -4  -7  -2 26.2608 7.40662   1
   4  -7   2 39.7398 6.54662   1
   4  -7   2 22.8484 6.19922   1
   4   7   2 30.8108 3.71431   3
   4   7   2 46.8887 9.70778   1
  -4   7  -2 33.4767 3.21345   2
  -4   7  -2 36.6237 3.14503   2
  -4   7  -2 29.8079 4.57142   3
   4   7   2 38.2531 4.94247   2
  -5  -7  -2 12.0219 2.83363   2
   5  -7   2 2.78785 4.42558   1
   5  -7   2 9.85785 7.04243   1
  -5  -7  -2 2.65469 7.55286   1
  -5   7  -2 11.8300 2.11978   2
   5   7   2 1.57796 3.61791   2
   5   7   2 14.5426 10.7542   1
  -5   7  -2 9.56970 1.93404   2
   5   7   2 8.42720 2.25459   3
  -6  -7  -2 76.2037 12.9134   1
   6  -7   2 75.5806 10.9465   1
  -6  -7  -2 92.9878 8.02522   2
  -6   7  -2 75.3750 6.83204   2
   6   7   2 75.3690 16.5508   1
  -6   7  -2 74.0487 6.24650   2
   6   7   2 77.8859 6.69753   3
  -7  -7  -2 4.50806 3.42934   2
  -7  -7  -2 1.18221 12.1513   1
   7   7   2 3.13501 2.31011   3
  -7   7  -2 6.28441 2.21467   2
   7   7   2 9.42660 18.1387   1
  -8  -7  -2 5.06960 4.00054   2
   8   7   2 1.30242 2.72393   3
  -8   7  -2 -1.2152 2.37712   2
  -9   7  -2 3.85680 3.10189   2
   9   7   2 -0.9303 3.39815   3
 -10  -7  -2 21.7359 5.40279   2
  10   7   2 16.8758 4.39843   3
 -10   7  -2 23.5987 4.33375   2
 -10  -8   2 -7.3555 5.28537   2
 -10   8   2 -4.3496 5.49058   3
  10   8  -2 4.89071 4.44472   3
  -9  -8   2 11.8744 5.38990   2
   9   8  -2 5.44345 3.68972   3
  -9   8   2 4.60489 3.36670   2
  -9   8   2 6.38634 5.70502   3
  -8  -8   2 6.45848 4.07150   2
  -8   8   2 9.11375 4.91851   3
   8   8  -2 4.48479 2.72352   3
  -8   8   2 12.9867 3.10396   2
  -7  -8   2 2.27467 3.60925   2
  -7   8   2 5.04272 2.48185   2
   7   8  -2 1.78429 2.31682   3
  -7   8   2 0.25356 4.34671   3
  -6  -8   2 17.0232 3.88460   2
  -6  -8   2 7.90407 4.73961   3
  -6   8   2 21.7080 4.95852   3
  -6   8   2 21.3591 2.72500   2
  -6   8   2 20.8575 3.75833   2
   6   8  -2 21.9237 2.92304   3
  -5  -8   2 33.6222 4.49052   3
  -5  -8   2 49.1669 5.08736   2
   5   8  -2 27.2722 14.4231   1
  -5   8   2 48.6156 6.05382   3
   5   8  -2 45.3134 4.09059   3
  -4  -8   2 9.72950 9.94727   1
   4  -8  -2 -2.7007 7.03498   1
  -4  -8   2 6.54772 2.82983   3
   4   8  -2 0.50897 9.38796   1
   4   8  -2 4.69221 4.01053   2
  -4   8   2 -1.0013 2.69157   3
   3  -8  -2 549.758 35.2821   1
   3  -8  -2 491.804 35.5892   1
  -3  -8   2 549.090 38.1580   1
  -3  -8   2 506.714 31.8848   3
  -3  -8   2 551.540 31.5221   2
   3   8  -2 527.463 36.7888   1
   3   8  -2 445.753 32.2640   2
   3   8  -2 536.963 31.5165   3
  -3   8   2 536.714 32.3419   3
   2  -8  -2 0.87832 5.33061   1
  -2  -8   2 9.70469 7.06963   1
  -2  -8   2 5.74639 1.37203   2
   2  -8  -2 6.19445 5.82020   1
   2   8  -2 8.06852 2.71419   2
   2   8  -2 8.56472 1.68676   3
   2   8  -2 4.87203 5.83598   1
  -2   8   2 4.58610 2.16582   3
   1  -8  -2 269.504 21.0365   1
  -1  -8   2 300.335 22.2766   1
  -1  -8   2 277.343 16.8996   2
   1  -8  -2 250.549 20.5419   1
   1   8  -2 282.259 17.2519   3
  -1   8   2 270.593 17.6405   3
   1   8  -2 291.849 20.7274   1
   0  -8  -2 264.571 20.6534   1
   0  -8   2 275.947 20.5118   1
   0  -8  -2 258.002 20.4436   1
   0   8   2 270.838 16.7021   3
   0   8  -2 280.577 16.5551   3
   0   8  -2 226.113 16.2003   2
  -1  -8  -2 85.9430 12.0783   1
   1  -8   2 107.366 11.3427   1
   1  -8   2 93.5827 9.67322   1
   1   8   2 98.1873 6.99708   3
  -1   8  -2 97.0708 6.93912   3
  -1   8  -2 86.2964 6.31971   2
   2  -8   2 57.6618 8.88134   1
  -2  -8  -2 55.7459 8.59437   1
  -2  -8  -2 48.4118 3.51592   2
   2   8   2 30.4915 8.02288   1
  -2   8  -2 47.3287 4.86974   3
  -2   8  -2 47.8881 3.73144   2
   2   8   2 47.0325 4.69454   3
   3  -8   2 1216.84 74.8840   1
  -3  -8  -2 1223.90 78.1484   1
  -3  -8  -2 1253.22 73.2530   2
   3  -8   2 1221.14 74.9618   1
  -3   8  -2 1236.22 74.0350   3
   3   8   2 1257.91 73.6068   3
  -3   8  -2 1236.17 73.1078   2
  -3   8  -2 1239.47 73.0363   2
   3   8   2 1190.79 78.3179   1
  -4  -8  -2 12.4474 8.88221   1
   4  -8   2 9.78336 6.04572   1
  -4  -8  -2 15.2877 2.49664   2
   4  -8   2 13.1572 6.31630   1
   4   8   2 10.9893 2.30287   3
  -4   8  -2 13.4344 1.91554   2
  -4   8  -2 16.3715 3.54529   3
  -4   8  -2 11.4993 1.85077   2
   4   8   2 10.8077 9.65496   1
  -5  -8  -2 394.070 23.8570   2
   5  -8   2 396.217 27.9155   1
  -5  -8  -2 370.869 32.0800   1
   5   8   2 364.069 34.5990   1
  -5   8  -2 381.976 24.8924   3
  -5   8  -2 373.342 22.9956   2
  -5   8  -2 344.073 23.0033   2
   5   8   2 386.661 23.4853   3
  -6  -8  -2 103.215 17.8602   1
  -6  -8  -2 148.513 10.7852   2
   6  -8   2 111.597 17.5860   1
   6   8   2 82.9406 20.2469   1
   6   8   2 136.049 9.67280   3
  -6   8  -2 117.222 9.73060   2
  -6   8  -2 141.517 12.1145   3
  -6   8  -2 118.671 8.91706   2
  -7  -8  -2 42.5138 6.83980   2
  -7   8  -2 30.7004 4.59825   2
   7   8   2 29.3484 4.89305   3
  -7   8  -2 35.3098 6.32014   3
   8   8   2 46.5830 6.52043   3
  -8   8  -2 46.1331 6.04046   2
  -8   8  -2 60.9274 9.54006   3
  -9  -8  -2 475.711 28.6988   2
  -9   8  -2 371.760 26.4474   2
  -9  -9   2 82.6637 11.1624   2
  -9   9   2 103.648 13.2360   3
   9   9  -2 74.7791 9.00659   3
  -8  -9   2 10.0133 5.39808   2
   8   9  -2 2.05376 3.07675   3
  -8   9   2 7.85470 5.21800   3
  -7  -9   2 120.865 10.6280   2
   7   9  -2 112.077 8.81349   3
  -7   9   2 104.841 11.6257   3
  -6  -9   2 357.011 22.7930   2
  -6   9   2 332.835 24.0137   3
   6   9  -2 356.626 21.8937   3
  -5  -9   2 -1.0704 2.22930   2
   5   9  -2 1.51882 1.84500   3
  -5   9   2 -3.4112 3.30079   3
  -4  -9   2 263.501 16.2138   2
  -4  -9   2 251.884 18.3029   3
  -4   9   2 253.280 17.5752   3
   4   9  -2 247.365 16.0556   3
  -3  -9   2 221.734 13.1243   2
   3   9  -2 215.865 13.3375   3
   3   9  -2 169.874 14.6877   2
  -3   9   2 209.732 14.3682   3
  -2  -9   2 1.35353 1.19940   2
  -2   9   2 2.61687 2.30235   3
   2   9  -2 1.20602 1.59994   3
   2   9  -2 2.82315 3.13438   2
  -1  -9   2 225.590 14.0677   2
   1   9  -2 220.789 14.0517   3
   1   9  -2 189.217 19.4345   1
  -1   9   2 226.069 14.6540   3
   0  -9   2 255.688 20.9989   1
   0   9   2 300.533 18.2501   3
   0   9  -2 286.232 17.9011   3
   1  -9   2 -0.3838 7.54869   1
  -1   9  -2 0.43320 1.57986   2
  -1   9  -2 2.55659 1.91239   3
   1   9   2 2.28992 2.09175   3
  -2  -9  -2 135.791 8.51562   2
   2  -9   2 148.463 13.2476   1
  -2   9  -2 119.432 8.83302   2
  -2   9  -2 149.220 8.62489   2
   2   9   2 143.639 18.3726   1
  -2   9  -2 145.476 10.0010   3
   2   9   2 140.587 9.82041   3
  -3  -9  -2 42.5835 3.70940   2
   3  -9   2 43.8160 6.96479   1
   3   9   2 15.0803 10.9503   1
   3   9   2 40.5797 4.88589   3
  -3   9  -2 39.1758 5.22110   3
  -3   9  -2 41.7822 3.39976   2
  -3   9  -2 41.8999 3.71191   2
   4  -9   2 -1.1338 7.16546   1
  -4  -9  -2 0.82292 1.80999   2
  -4   9  -2 1.57426 1.92450   2
   4   9   2 2.79731 2.19016   3
   4   9   2 -3.4122 19.0911   1
  -4   9  -2 5.90684 3.15625   3
  -4   9  -2 -0.0587 2.09833   2
  -5  -9  -2 45.2064 5.41524   2
  -5   9  -2 40.1339 4.37443   2
   5   9   2 49.2669 5.28059   3
  -5   9  -2 44.4506 5.97443   3
  -6  -9  -2 5.31834 3.41039   2
  -6   9  -2 9.54325 2.47595   2
   6   9   2 10.4198 3.01855   3
  -6   9  -2 14.8703 4.90527   3
  -7  -9  -2 8.66256 4.14597   2
   7   9   2 6.23114 2.93026   3
  -7   9  -2 10.4331 5.26144   3
  -7   9  -2 9.74379 2.77467   2
  -8  -9  -2 5.23986 4.72638   2
   8   9   2 -0.8632 5.15505   3
  -8   9  -2 3.30764 3.05659   2
  -8   9  -2 -0.0571 5.24944   3
  -9  -9  -2 -4.2811 5.48639   2
   9   9   2 -2.5684 4.26332   3
  -9   9  -2 6.34528 6.65820   3
  -8 -10   2 13.3736 5.13036   2
   8  10  -2 15.6145 4.08258   3
  -8  10   2 10.4891 6.63411   3
  -7 -10   2 -2.1785 3.91449   2
  -7  10   2 -0.4815 5.44947   3
   7  10  -2 -0.5113 2.93015   3
  -6 -10   2 47.0461 6.54621   2
   6  10  -2 40.3900 5.40907   3
  -6  10   2 46.6079 7.04032   3
  -5 -10   2 10.5915 2.82524   2
   5  10  -2 11.9114 2.62516   3
  -4 -10   2 13.1906 2.49673   2
   4  10  -2 12.8106 2.49542   3
  -4  10   2 8.26298 3.80434   3
  -3 -10   2 124.146 8.60483   2
   3  10  -2 130.261 9.10937   3
  -3  10   2 133.623 10.7309   3
  -2 -10   2 66.3608 4.97208   2
   2  10  -2 61.3807 7.21710   2
   2  10  -2 78.8573 5.97108   3
  -2  10   2 71.1563 6.69338   3
  -1  10   2 40.4845 5.65597   3
   1  10  -2 39.3244 6.12902   2
   1  10  -2 47.5330 4.89634   3
   0  10  -2 309.500 19.0041   3
   0  10  -2 280.225 17.9511   2
   0  10   2 304.444 19.2626   3
  -1  10  -2 13.8424 2.82640   3
   1  10   2 10.9211 2.76205   3
  -2  10  -2 142.550 10.7821   3
   2  10   2 150.564 10.4801   3
  -3  10  -2 274.119 19.0935   3
   3  10   2 299.329 18.6589   3
  -4 -10  -2 38.8343 4.10945   2
   4  10   2 43.2252 5.21807   3
  -4  10  -2 41.8772 6.65424   3
  -5 -10  -2 59.6835 6.04960   2
   5  10   2 57.7247 6.52731   3
  -5  10  -2 78.4109 9.91555   3
  -6 -10  -2 269.519 17.9591   2
  -6  10  -2 255.596 19.9081   3
   6  10   2 267.009 17.7026   3
  -7 -10  -2 8.50217 4.39089   2
  -7  10  -2 -4.7085 5.23167   3
   8  10   2 82.9428 8.85978   3
  -8  10  -2 85.2214 13.3491   3
  -7 -11   2 115.509 10.7694   2
  -7  11   2 93.0586 13.1680   3
   7  11  -2 103.057 9.43441   3
  -6 -11   2 29.5742 4.54668   2
   6  11  -2 23.8863 4.03239   3
  -6  11   2 29.9840 6.58766   3
  -5 -11   2 -1.1810 2.52062   2
  -5  11   2 5.38543 4.75308   3
   5  11  -2 -2.2683 2.49816   3
  -4 -11   2 23.5385 3.05609   2
   4  11  -2 27.7012 3.60181   3
  -4  11   2 22.1834 5.23438   3
  -3 -11   2 200.578 13.2954   2
   3  11  -2 224.450 14.1152   3
  -2  11   2 -2.7380 2.89765   3
   2  11  -2 -0.2871 2.21203   3
  -1  11   2 180.659 12.9857   3
   1  11  -2 182.387 12.4241   3
   0  11  -2 59.0224 6.21653   3
   0  11   2 57.3706 6.75219   3
  -1  11  -2 13.5272 3.14895   3
   1  11   2 10.9791 3.07935   3
   2  11   2 0.55894 2.77313   3
  -2  11  -2 3.49233 3.10835   3
   3  11   2 71.9047 7.04700   3
  -3  11  -2 61.4356 7.86030   3
  -4  11  -2 2.10995 5.68344   3
   4  11   2 2.08625 2.81215   3
   5  11   2 30.0622 5.15405   3
  -5  11  -2 32.4037 5.99510   3
  -6  11  -2 2.70549 5.18715   3
   6  11   2 2.50309 3.71235   3
   5  12  -2 3.34723 3.33862   3
  -5  12   2 3.05856 5.00579   3
  -4  12   2 0.26931 4.65220   3
   4  12  -2 2.02687 3.01471   3
   3  12  -2 -0.4278 2.94416   3
  -3  12   2 7.02450 4.29298   3
   2  12  -2 23.3736 3.59142   3
  -2  12   2 24.0269 4.47611   3
  -1  12   2 8.03435 3.56882   3
   1  12  -2 9.18081 3.22269   3
   0  12  -2 296.786 19.4049   3
   0  12   2 293.990 20.0167   3
   1  12   2 2.63393 4.62098   3
  -1  12  -2 0.12060 3.06953   3
  -2  12  -2 34.9347 5.79663   3
   2  12   2 50.2701 7.22944   3
  -3  12  -2 -1.8701 4.11986   3
   3  12   2 2.87706 3.60060   3
  -4  12  -2 11.1763 4.59756   3
   4  12   2 5.76991 3.44417   3
  -5  12  -2 2.11459 5.40378   3
   5  12   2 3.89173 3.63563   3
   2  13  -2 -0.6088 3.45505   3
  -2  13   2 0.46531 3.97073   3
  -1  13   2 91.2772 9.63685   3
   1  13  -2 99.5253 8.80673   3
   0  13   2 -8.0846 3.51782   3
   0  13  -2 4.15288 3.62236   3
   1  13   2 2.01993 3.52289   3
  -1  13  -2 1.04227 3.71616   3
   2  13   2 16.6759 4.50730   3
  -2  13  -2 11.4469 4.39529   3
 -12   0   3 5.93481 4.34092   2
 -11   0   3 18.6391 4.71511   2
 -10   0   3 3.14724 3.66733   2
  -9   0   3 230.050 15.9864   2
  -8   0   3 -2.3366 3.19993   3
   8   0  -3 -10.010 13.1260   1
  -8   0   3 -1.6437 2.13845   2
  -8   0   3 0.62432 8.57418   1
  -7   0   3 1.03350 2.53730   3
   7   0  -3 -3.5811 3.32871   2
  -7   0   3 4.80137 2.65249   2
   7   0  -3 14.9656 11.4234   1
  -7   0   3 4.98882 8.05346   1
  -6   0   3 0.68535 2.21893   3
   6   0  -3 0.70129 2.41913   2
  -6   0   3 -0.5718 2.13159   2
  -6   0   3 3.89779 6.90724   1
   6   0  -3 -8.5551 8.72255   1
  -5   0   3 213.999 13.9428   2
  -5   0   3 232.352 20.2901   1
   5   0  -3 195.668 13.8998   2
  -5   0   3 233.151 13.8726   3
   5   0  -3 217.276 20.8762   1
   4   0  -3 -2.6399 5.52210   1
  -4   0   3 4.02217 4.90569   1
  -4   0   3 3.72633 1.59366   2
   4   0  -3 4.28954 1.51597   2
  -4   0   3 5.19319 1.45080   3
   3   0  -3 74.3362 9.97579   1
  -3   0   3 74.8799 5.34137   3
  -3   0   3 93.4626 5.60853   2
  -3   0   3 67.5307 9.71195   1
  -2   0   3 2.66148 0.70328   2
   2   0  -3 2.22990 2.55349   1
  -2   0   3 2.71274 2.60990   1
   2   0  -3 3.99844 0.72797   2
  -1   0   3 2529.41 140.509   1
   1   0  -3 2241.89 139.257   2
  -1   0   3 2175.73 139.263   2
   1   0  -3 2492.22 140.492   1
   0   0  -3 1.54355 0.33040   3
   0   0   3 2.20335 0.89618   1
   0   0   3 1.83653 0.41742   2
  -1   0  -3 87.1692 5.52471   3
   1   0   3 80.7013 6.00928   1
   1   0   3 97.2330 5.57919   3
  -2   0  -3 0.11198 0.73821   3
   2   0   3 -0.6806 0.74685   3
  -2   0  -3 1.20185 1.48064   1
   3   0   3 3608.00 225.130   3
  -3   0  -3 3947.98 227.184   1
   3   0   3 4181.77 226.284   1
  -3   0  -3 3489.47 224.932   2
  -4   0  -3 1.64768 1.58363   3
   4   0   3 -0.3545 2.97169   1
   4   0   3 -0.3436 1.05067   3
  -4   0  -3 1.89948 1.05164   2
  -5   0  -3 2352.77 131.811   2
  -5   0  -3 2286.84 132.233   3
   5   0   3 2260.10 131.991   3
   5   0   3 1980.34 134.296   1
  -5   0  -3 2217.80 138.879   1
   6   0   3 14.2916 2.82413   3
  -6   0  -3 10.8203 3.56393   3
  -6   0  -3 8.12565 5.68947   1
   6   0   3 -1.1633 6.29781   1
   7   0   3 47.4608 4.73825   3
  -7   0  -3 47.9233 4.51979   2
  -7   0  -3 36.6130 8.46273   1
  -8   0  -3 0.54923 8.47397   1
   8   0   3 9.84161 3.33879   3
   8   0   3 -9.7027 11.0679   1
  -9   0  -3 1023.91 67.4421   2
   9   0   3 1215.02 68.1014   3
  10   0   3 -0.1341 3.43747   3
 -10   0  -3 0.72195 2.63066   2
 -11   0  -3 456.962 29.4581   2
 -12   0  -3 18.5267 5.37482   2
 -12  -1   3 201.477 15.3265   2
 -12   1   3 183.111 14.9310   2
 -11  -1   3 -3.1878 3.30742   2
 -10  -1   3 999.118 60.1088   2
 -10   1   3 964.064 59.8757   2
  -9  -1   3 153.392 12.1508   2
  -9   1   3 151.451 11.8237   2
  -8  -1   3 59.6542 5.64296   2
  -8  -1   3 48.1860 6.81920   3
   8  -1  -3 36.9575 14.3111   1
  -8  -1   3 41.6287 11.3432   1
  -8   1   3 52.2532 5.55784   2
  -8   1   3 57.4004 12.3884   1
   8   1  -3 40.2963 16.4496   1
  -7  -1   3 150.918 11.6842   3
   7  -1  -3 176.438 12.4688   2
  -7  -1   3 151.386 19.1096   1
   7  -1  -3 149.466 21.7420   1
  -7   1   3 147.571 11.7486   3
   7   1  -3 170.202 24.7534   1
  -7   1   3 154.086 19.6677   1
  -7   1   3 183.503 11.7656   2
  -6  -1   3 2743.60 168.788   1
   6  -1  -3 2626.98 163.192   2
  -6  -1   3 2779.67 163.323   2
  -6  -1   3 2687.68 163.021   3
   6  -1  -3 2779.49 169.092   1
  -6   1   3 2799.61 163.206   2
  -6   1   3 2879.41 169.456   1
   6   1  -3 2896.65 170.604   1
   6   1  -3 2583.81 163.222   2
  -6   1   3 2725.21 163.162   3
   5  -1  -3 7.18433 6.78736   1
  -5  -1   3 5.87737 1.85358   2
   5  -1  -3 6.78405 2.00800   2
  -5  -1   3 -0.0669 5.47324   1
  -5  -1   3 -0.8300 1.47803   3
   5   1  -3 0.32199 1.68565   2
  -5   1   3 -0.3460 1.45083   3
   5   1  -3 2.41842 7.74843   1
  -5   1   3 1.09247 1.52170   2
  -5   1   3 0.62584 5.68364   1
   4  -1  -3 4207.96 257.929   2
   4  -1  -3 4129.21 261.382   1
  -4  -1   3 4631.63 257.824   3
  -4  -1   3 4412.71 258.091   2
  -4   1   3 3887.66 258.220   3
   4   1  -3 3989.27 257.916   2
  -4   1   3 4633.77 262.426   1
   4   1  -3 4999.02 263.827   1
  -4   1   3 4395.89 258.005   2
  -3  -1   3 366.275 26.3750   1
  -3  -1   3 374.583 21.9012   3
   3  -1  -3 367.461 24.9182   1
   3  -1  -3 335.729 22.0109   2
  -3   1   3 383.345 22.1142   2
   3   1  -3 328.789 22.1398   2
  -3   1   3 428.202 25.6773   1
   3   1  -3 340.577 26.4551   1
   2  -1  -3 112.150 8.07059   1
  -2  -1   3 102.638 5.67450   3
  -2  -1   3 76.0044 9.22085   1
  -2  -1   3 93.6030 5.93112   2
   2  -1  -3 86.1012 5.81188   2
  -2   1   3 92.4302 7.85689   1
   2   1  -3 88.5205 5.87148   2
  -2   1   3 91.1073 5.83684   2
  -2   1   3 91.0031 5.83254   3
   1  -1  -3 616.833 36.0395   1
   1  -1  -3 590.267 34.9120   3
   1  -1  -3 583.665 34.8793   2
  -1  -1   3 583.262 34.9630   2
  -1  -1   3 569.570 36.6252   1
  -1   1   3 591.910 34.9330   3
  -1   1   3 606.009 36.0571   1
  -1   1   3 582.628 34.8839   2
   1   1  -3 574.702 34.9469   2
   0  -1  -3 6652.23 388.305   1
   0  -1   3 6578.81 387.933   1
   0   1  -3 6474.17 388.139   1
  -1  -1  -3 2.94012 1.19979   1
  -1  -1  -3 2.81678 0.62130   3
   1  -1   3 3.84994 0.87315   3
   1   1   3 2.57982 1.31371   1
  -1   1  -3 2.53479 0.67284   1
  -1   1  -3 4.69203 0.75283   2
   1   1   3 2.96590 0.62688   3
  -1   1  -3 3.53369 0.78226   3
   2  -1   3 4377.82 250.061   1
  -2  -1  -3 4295.62 249.629   2
  -2  -1  -3 4383.72 249.674   3
   2  -1   3 3573.01 249.805   3
  -2  -1  -3 4539.81 250.749   1
  -2   1  -3 4436.27 250.197   1
   2   1   3 4262.61 251.250   1
  -2   1  -3 3958.12 249.837   3
   2   1   3 4222.54 249.656   3
  -3  -1  -3 363.701 22.6481   1
   3  -1   3 366.189 22.1266   1
  -3  -1  -3 349.721 21.1452   2
   3  -1   3 323.114 21.3893   3
  -3  -1  -3 362.590 21.2478   3
   3   1   3 346.440 23.1014   1
  -3   1  -3 311.392 21.5499   3
  -3   1  -3 357.196 21.0971   2
   3   1   3 352.843 21.1337   3
  -3   1  -3 345.715 22.3927   1
   4  -1   3 63.8639 5.58587   3
  -4  -1  -3 77.0145 5.26095   2
  -4  -1  -3 72.6871 5.50789   3
   4  -1   3 65.8185 7.50476   1
  -4  -1  -3 93.7446 8.32548   1
   4   1   3 81.0558 5.32423   3
  -4   1  -3 65.7572 7.88811   1
  -4   1  -3 79.6430 5.22133   2
   4   1   3 84.3990 8.65054   1
  -4   1  -3 72.0562 6.08028   3
   5  -1   3 37.1770 4.28628   3
   5  -1   3 26.1501 5.55780   1
  -5  -1  -3 25.2770 5.38370   1
  -5  -1  -3 32.5193 4.34856   3
  -5  -1  -3 35.3083 3.65434   2
  -5   1  -3 24.3344 5.61125   1
   5   1   3 29.9994 6.61513   1
   5   1   3 36.5441 3.69575   3
  -5   1  -3 32.3608 3.41082   2
  -5   1  -3 27.8851 3.89789   3
  -6  -1  -3 682.609 42.4667   2
   6  -1   3 687.447 42.8067   3
   6  -1   3 742.154 46.7884   1
  -6  -1  -3 709.782 46.3709   1
  -6  -1  -3 714.831 42.9981   3
   6   1   3 721.121 42.5700   3
  -6   1  -3 740.622 43.3066   3
   6   1   3 727.287 47.6537   1
  -6   1  -3 709.090 42.4038   2
  -6   1  -3 582.773 45.8586   1
  -7  -1  -3 2.42445 1.95481   2
   7  -1   3 5.58769 2.34511   3
   7  -1   3 12.4062 8.28444   1
  -7  -1  -3 -0.8980 5.99265   1
  -7   1  -3 2.61319 1.68680   2
   7   1   3 1.94426 1.88418   3
   7   1   3 8.72383 9.43931   1
  -7   1  -3 0.02004 6.42658   1
  -8  -1  -3 114.275 9.14903   2
   8  -1   3 116.082 21.3628   1
  -8  -1  -3 114.595 17.5276   1
  -8   1  -3 121.643 9.12847   2
   8   1   3 118.726 21.3973   1
   8   1   3 124.388 9.25135   3
  -8   1  -3 143.623 18.7460   1
  -9  -1  -3 5.87688 3.19717   2
  -9   1  -3 13.1470 3.37571   2
   9   1   3 11.4034 3.82540   3
 -10  -1  -3 1.35139 2.70987   2
 -10   1  -3 3.47758 2.75037   2
  10   1   3 -0.4323 2.97593   3
 -11  -1  -3 1.06476 3.62074   2
  11   1   3 7.19153 4.51549   3
 -11   1  -3 -3.8742 3.29181   2
 -12  -1  -3 -4.6038 4.12865   2
 -12   1  -3 -2.9918 3.96919   2
 -12  -2   3 35.8860 6.09934   2
 -12   2   3 18.2041 4.74330   2
 -11  -2   3 7.37145 3.74864   2
 -10  -2   3 40.4947 5.76108   2
 -10   2   3 35.1227 5.44381   2
  -9  -2   3 85.6603 8.80788   2
  -9   2   3 89.3671 8.32342   2
  -8  -2   3 6.84830 2.66739   2
  -8  -2   3 6.73870 9.67904   1
   8  -2  -3 0.36712 12.3364   1
  -8  -2   3 2.47129 3.24110   3
  -8   2   3 2.73707 2.28592   2
   8   2  -3 3.19887 16.0690   1
  -8   2   3 -1.2829 10.1703   1
   7  -2  -3 30.2574 11.8834   1
  -7  -2   3 31.4627 3.90042   3
  -7  -2   3 33.9245 5.25432   2
  -7  -2   3 19.1245 8.90970   1
   7  -2  -3 26.0283 4.39896   2
  -7   2   3 35.9307 4.88595   2
   7   2  -3 33.3568 4.37562   3
  -7   2   3 36.9483 10.6745   1
  -7   2   3 39.0877 5.65942   3
   7   2  -3 12.7052 13.5484   1
   6  -2  -3 2.24016 2.70061   2
   6  -2  -3 5.69579 8.33320   1
  -6  -2   3 1.76471 6.58176   1
  -6  -2   3 4.81318 2.01137   3
  -6  -2   3 6.02403 2.51125   2
   6   2  -3 2.25131 2.73392   2
  -6   2   3 8.37106 2.36656   2
   6   2  -3 -6.1395 9.95327   1
   6   2  -3 3.21599 1.75541   3
  -6   2   3 5.03508 2.43703   3
  -6   2   3 -2.3722 6.94450   1
  -5  -2   3 2.77943 1.66123   2
   5  -2  -3 6.44294 2.01665   2
  -5  -2   3 3.35057 5.58035   1
   5  -2  -3 14.4807 6.71813   1
  -5  -2   3 2.07953 1.24965   3
   5   2  -3 2.06045 1.25238   3
  -5   2   3 2.21255 1.66096   3
  -5   2   3 1.39935 1.45059   2
  -5   2   3 1.48239 5.28335   1
   5   2  -3 12.7399 8.68730   1
   5   2  -3 2.20607 1.89729   2
   4  -2  -3 2.28369 4.54634   1
  -4  -2   3 3.32497 1.64886   2
  -4  -2   3 6.14087 5.15091   1
   4   2  -3 1.97782 1.52146   2
  -4   2   3 4.14455 4.23347   1
  -4   2   3 2.83343 1.76826   2
   4   2  -3 6.22462 1.15532   3
   4   2  -3 -0.3786 6.47408   1
   3  -2  -3 662.571 39.5396   1
  -3  -2   3 669.004 36.8205   3
  -3  -2   3 513.053 40.5429   1
  -3  -2   3 646.350 37.2953   2
   3   2  -3 594.377 37.2069   2
  -3   2   3 713.493 39.9284   1
   3   2  -3 608.752 36.8604   3
  -3   2   3 638.348 37.1297   2
   3   2  -3 518.594 41.1071   1
   2  -2  -3 8.30742 1.20019   2
   2  -2  -3 7.30151 2.33883   1
  -2  -2   3 11.5112 0.77018   3
  -2  -2   3 9.18333 1.38506   2
  -2  -2   3 3.33256 3.35967   1
  -2   2   3 10.6354 1.39091   3
   2   2  -3 8.21526 1.29871   2
  -2   2   3 10.4398 1.10788   2
   2   2  -3 9.74652 4.12555   1
   2   2  -3 8.58089 0.78414   3
  -2   2   3 8.24575 2.45092   1
   1  -2  -3 325.192 21.0652   1
  -1  -2   3 346.800 19.9357   2
   1  -2  -3 349.653 19.9510   3
   1  -2  -3 336.704 19.7703   2
   1   2  -3 352.569 19.9380   2
   1   2  -3 286.411 21.8542   1
   1   2  -3 325.463 19.6959   3
  -1   2   3 330.759 19.7609   2
  -1   2   3 339.756 21.1369   1
  -1   2   3 327.706 19.9582   3
   0  -2  -3 548.059 33.3788   2
   0  -2  -3 570.294 34.5978   1
   0  -2   3 554.641 34.3811   1
   0  -2  -3 601.617 33.5682   3
   0  -2  -3 598.109 34.6788   1
   0  -2   3 549.334 33.4914   2
   0   2  -3 519.063 34.3423   1
   0   2   3 569.727 33.5681   3
   0   2  -3 565.966 33.4923   2
  -1  -2  -3 64.4147 5.59416   1
  -1  -2  -3 69.3818 4.33110   3
  -1   2  -3 66.8857 4.23026   2
   1   2   3 68.8404 4.32666   3
   1   2   3 61.6157 5.54230   1
  -2  -2  -3 567.380 33.9663   3
  -2  -2  -3 602.988 33.9847   2
  -2  -2  -3 577.148 35.3038   1
   2  -2   3 572.575 33.9422   1
   2   2   3 574.599 35.4754   1
   2   2   3 519.490 34.0029   3
  -3  -2  -3 3649.46 212.590   3
  -3  -2  -3 3879.75 214.392   1
   3  -2   3 3193.04 212.976   3
  -3  -2  -3 3415.52 212.594   2
   3  -2   3 3832.96 213.244   1
   3   2   3 3727.38 214.535   1
   3   2   3 3479.09 212.519   3
  -4  -2  -3 6.75143 3.22166   1
   4  -2   3 7.32504 2.06485   3
   4  -2   3 10.0617 2.94929   1
  -4  -2  -3 6.68209 1.63603   3
  -4  -2  -3 5.46852 1.39606   2
  -4   2  -3 6.39271 2.38605   3
   4   2   3 11.9924 1.88229   3
   4   2   3 7.84025 3.87820   1
  -4   2  -3 1.55064 3.57495   1
  -5  -2  -3 1514.81 91.4581   1
   5  -2   3 1476.60 90.8489   1
  -5  -2  -3 1498.32 88.6630   3
   5  -2   3 1569.85 89.1725   3
  -5  -2  -3 1343.19 88.4791   2
   5   2   3 1502.44 92.1406   1
   5   2   3 1443.72 88.4177   3
  -5   2  -3 1486.94 91.9059   1
  -5   2  -3 1555.12 89.3367   3
  -5   2  -3 1475.11 88.3703   2
   6  -2   3 659.091 44.0472   1
  -6  -2  -3 614.034 43.7089   1
  -6  -2  -3 597.687 40.1769   2
  -6  -2  -3 650.137 40.5986   3
   6   2   3 656.048 40.1461   3
  -6   2  -3 708.152 44.9657   1
  -6   2  -3 631.781 40.0234   2
   6   2   3 669.226 45.6540   1
  -6   2  -3 787.724 41.6476   3
  -7  -2  -3 16.7975 2.89278   2
  -7  -2  -3 13.1265 7.19694   1
   7  -2   3 19.5367 8.81748   1
  -7   2  -3 20.8571 3.24251   2
   7   2   3 3.30957 9.64828   1
   7   2   3 27.8117 3.38385   3
  -7   2  -3 20.1862 8.01441   1
  -8  -2  -3 190.758 21.6767   1
  -8  -2  -3 212.831 14.3470   2
   8  -2   3 209.632 31.9276   1
   8   2   3 198.478 14.0950   3
  -8   2  -3 244.192 23.7241   1
  -8   2  -3 206.853 14.0481   2
  -9  -2  -3 844.063 50.9475   2
   9   2   3 824.128 50.8593   3
  -9   2  -3 824.910 50.6786   2
 -10  -2  -3 -1.4822 2.89810   2
  10   2   3 2.97887 3.21272   3
 -10   2  -3 0.11589 2.60936   2
 -11  -2  -3 295.840 21.5033   2
  11   2   3 326.419 21.7778   3
 -11   2  -3 327.926 21.2937   2
 -12  -2  -3 104.055 11.1846   2
  12   2   3 106.335 12.0127   3
 -12   2  -3 98.8173 10.6975   2
 -12  -3   3 145.595 13.5900   2
 -12   3   3 147.665 12.5408   2
 -11  -3   3 7.07811 4.00401   2
 -11   3   3 6.72787 4.97616   2
 -10  -3   3 422.236 27.6363   2
 -10   3   3 413.783 26.9079   2
  -9  -3   3 478.265 29.4122   2
  -9   3   3 434.289 28.7581   2
  -8  -3   3 -5.8227 9.59091   1
  -8  -3   3 11.6368 3.36796   2
   8   3  -3 7.58339 2.27164   3
   8   3  -3 5.84741 18.1531   1
  -8   3   3 7.17214 11.8458   1
  -8   3   3 11.1901 2.66544   2
  -7  -3   3 860.893 51.2920   3
   7  -3  -3 1005.83 51.9912   2
   7  -3  -3 792.831 63.0505   1
  -7   3   3 816.349 58.9894   1
   7   3  -3 804.068 51.0320   3
   7   3  -3 776.083 62.3839   1
  -6  -3   3 1374.79 73.3526   2
  -6  -3   3 1321.65 72.5929   3
   6  -3  -3 1321.17 73.0591   2
  -6  -3   3 1043.60 77.8910   1
  -6   3   3 1183.00 78.6870   1
   6   3  -3 1106.80 81.0499   1
   6   3  -3 1157.31 72.4295   3
  -6   3   3 1132.39 73.0137   3
   6   3  -3 1263.92 73.2526   2
   5  -3  -3 15.2657 2.56251   2
  -5  -3   3 15.6393 2.22493   3
  -5  -3   3 17.3404 6.78267   1
   5  -3  -3 15.2069 7.03287   1
  -5  -3   3 14.7842 2.49202   2
   5   3  -3 7.68294 9.08417   1
  -5   3   3 17.1486 2.68747   3
  -5   3   3 18.2911 2.40051   2
   5   3  -3 19.3074 2.24485   3
  -5   3   3 4.05457 5.92762   1
   4  -3  -3 2052.34 126.893   2
  -4  -3   3 2321.41 126.586   3
  -4  -3   3 1967.52 130.862   1
  -4  -3   3 2272.78 127.211   2
  -4   3   3 2419.82 130.408   1
   4   3  -3 1856.08 126.975   2
  -4   3   3 1981.77 126.916   2
   4   3  -3 2175.26 132.268   1
   4   3  -3 2221.18 126.588   3
  -3  -3   3 2063.06 131.472   1
  -3  -3   3 2183.94 127.636   3
  -3  -3   3 2223.61 128.110   2
   3  -3  -3 1853.12 127.840   2
   3   3  -3 2061.02 128.039   2
  -3   3   3 2418.64 130.371   1
  -3   3   3 2227.90 128.153   3
  -3   3   3 2142.26 127.851   2
   3   3  -3 2228.43 127.640   3
   3   3  -3 2212.48 131.961   1
  -2  -3   3 52.0979 7.38168   1
  -2  -3   3 62.0413 3.73419   3
   2  -3  -3 54.6824 6.10049   1
   2   3  -3 55.7063 3.67015   3
  -2   3   3 64.9766 3.76068   2
   2   3  -3 65.1270 7.93380   1
   2   3  -3 57.5864 4.12434   2
  -2   3   3 56.6566 6.06038   1
  -2   3   3 58.4690 4.18793   3
   1  -3  -3 2355.96 129.928   1
  -1  -3   3 1976.03 130.496   1
   1  -3  -3 2073.81 128.269   2
   1  -3  -3 2208.46 128.615   3
  -1  -3   3 2095.72 128.470   2
   1   3  -3 2330.12 130.063   1
   1   3  -3 2227.39 128.503   2
   1   3  -3 2123.61 128.323   3
   0  -3   3 2701.61 169.014   2
   0  -3  -3 2970.09 169.153   3
   0  -3  -3 2939.36 170.418   1
   0  -3  -3 3055.42 170.516   1
   0   3  -3 3016.01 169.583   1
   0   3   3 2577.08 169.192   3
   0   3  -3 2780.65 169.023   2
  -1  -3  -3 5.00313 2.14540   1
  -1  -3  -3 11.2391 1.74405   3
  -1  -3  -3 7.52745 1.16045   2
   1   3   3 4.22277 2.16343   1
  -1   3  -3 7.24498 1.06023   2
  -2  -3  -3 1678.80 98.5824   3
  -2  -3  -3 1706.61 100.220   1
  -2  -3  -3 1599.35 98.5794   2
   2   3   3 1638.57 98.5609   3
   2   3   3 1678.73 100.396   1
  -2   3  -3 1683.10 98.4449   2
  -3  -3  -3 1768.21 103.183   1
  -3  -3  -3 1599.15 101.180   2
   3  -3   3 1816.82 101.501   1
  -3  -3  -3 1726.69 101.140   3
  -3   3  -3 1808.69 101.486   1
   3   3   3 1703.80 103.380   1
   3   3   3 1656.93 101.070   3
  -3   3  -3 1561.78 101.756   3
   4  -3   3 10.5599 3.17921   1
  -4  -3  -3 14.1253 2.04312   3
  -4  -3  -3 12.2715 1.99609   2
  -4  -3  -3 11.5160 3.79921   1
  -4   3  -3 14.7325 1.98413   2
  -4   3  -3 14.6923 3.76152   1
  -4   3  -3 15.3429 3.04440   3
   4   3   3 19.4862 4.99807   1
   4   3   3 19.5430 2.08134   3
  -5  -3  -3 306.255 22.7407   1
  -5  -3  -3 273.794 19.2653   2
  -5  -3  -3 302.458 19.3871   3
   5  -3   3 314.182 21.8447   1
  -5   3  -3 305.051 19.0189   2
  -5   3  -3 346.235 20.5193   3
   5   3   3 322.575 24.3394   1
  -5   3  -3 306.244 22.8170   1
   5   3   3 308.346 19.0645   3
  -6  -3  -3 404.835 24.3386   3
  -6  -3  -3 366.562 27.9085   1
   6  -3   3 389.190 27.7742   1
  -6  -3  -3 339.486 23.8926   2
   6   3   3 391.346 23.7537   3
   6   3   3 393.819 30.5970   1
  -6   3  -3 397.010 23.6769   2
  -7  -3  -3 4.58229 2.22659   2
   7  -3   3 6.14342 7.96046   1
  -7  -3  -3 2.76360 6.91419   1
  -7   3  -3 4.12001 1.77689   2
   7   3   3 -13.557 10.2951   1
  -7   3  -3 -4.6285 7.59315   1
   7   3   3 4.69966 1.93882   3
  -8  -3  -3 50.7503 5.95086   2
  -8  -3  -3 46.4980 11.2562   1
   8   3   3 50.4200 5.83247   3
  -8   3  -3 73.1080 12.3044   1
  -8   3  -3 46.1493 5.35325   2
  -9  -3  -3 51.3570 6.59876   2
   9   3   3 39.7281 6.21281   3
  -9   3  -3 42.2349 5.99546   2
 -10   3  -3 2.24335 2.59055   2
  10   3   3 -3.2436 2.98479   3
 -11  -3  -3 7.90165 4.29960   2
  11   3   3 -2.9872 4.20032   3
 -11   3  -3 6.17665 4.09053   2
 -12  -3  -3 2.75147 4.99730   2
 -12   3  -3 3.88694 4.29464   2
  12   3   3 2.52044 5.12271   3
 -12  -4   3 82.8981 10.6524   2
 -12   4   3 55.3266 8.91234   2
 -11  -4   3 4.92888 4.38223   2
 -11   4   3 4.67832 5.17159   2
 -10   4   3 65.4440 7.62274   2
  -9  -4   3 32.5940 5.38897   2
  -9   4   3 34.0450 4.51702   2
   9   4  -3 20.7503 3.69130   3
  -8  -4   3 28.7499 4.38214   3
  -8  -4   3 37.3474 5.53864   2
  -8  -4   3 9.80416 10.9068   1
   8   4  -3 15.5876 19.4692   1
   8   4  -3 25.7885 4.07174   3
  -8   4   3 39.1558 4.60868   2
  -7  -4   3 0.60382 2.41845   3
   7  -4  -3 5.67886 10.3201   1
  -7  -4   3 1.09046 2.91534   2
  -7  -4   3 2.92250 8.66749   1
   7  -4  -3 5.91894 3.61837   2
  -7   4   3 1.87937 2.32272   2
   7   4  -3 -0.7575 14.9778   1
  -7   4   3 -3.8213 10.4810   1
   7   4  -3 -0.1407 1.84297   3
  -6  -4   3 6.30846 1.92967   3
   6  -4  -3 0.24987 8.41385   1
   6  -4  -3 7.58300 2.70440   2
  -6  -4   3 -2.5616 7.14267   1
  -6  -4   3 14.4057 3.22533   2
   6   4  -3 4.73187 1.74710   3
   6   4  -3 7.95019 14.7227   1
   6   4  -3 0.00762 3.65746   2
  -6   4   3 2.12132 3.19452   3
  -5  -4   3 13.0733 2.45459   2
   5  -4  -3 4.27951 6.31826   1
  -5  -4   3 11.8256 6.77417   1
   5   4  -3 8.06902 8.67005   1
  -5   4   3 18.8699 2.90528   2
   5   4  -3 11.7156 2.80637   2
   5   4  -3 13.7932 2.58473   3
   4  -4  -3 36.6080 3.50369   2
  -4  -4   3 36.5131 2.90540   3
  -4  -4   3 38.7859 3.98442   2
   4   4  -3 27.7946 4.05440   2
   4   4  -3 37.8324 2.83910   3
  -4   4   3 33.0539 4.10947   3
  -4   4   3 36.2475 3.32415   2
  -4   4   3 45.0340 8.27346   1
   4   4  -3 30.5880 8.08693   1
  -3  -4   3 71.7414 5.11894   2
   3  -4  -3 65.9703 4.62381   2
  -3  -4   3 69.9063 4.47693   3
  -3  -4   3 56.0153 9.38891   1
  -3   4   3 73.7736 7.95335   1
  -3   4   3 73.1814 4.55355   2
   3   4  -3 59.6888 5.16994   2
  -3   4   3 72.5157 5.23816   3
   3   4  -3 73.4681 10.0603   1
   3   4  -3 60.4407 4.36807   3
  -2  -4   3 41.4378 3.14297   2
  -2  -4   3 41.6714 2.87734   3
  -2  -4   3 49.6216 7.44349   1
   2  -4  -3 42.9784 2.70909   2
  -2   4   3 42.4679 3.34498   3
   2   4  -3 40.2598 2.74243   3
  -2   4   3 40.1383 2.56041   2
   2   4  -3 42.6028 6.79906   1
   2   4  -3 37.7138 3.51457   2
  -2   4   3 28.9706 5.26990   1
   1  -4  -3 408.885 23.7556   3
  -1  -4   3 390.936 25.9940   1
   1  -4  -3 380.752 25.4812   1
   1  -4  -3 387.828 25.3160   1
  -1  -4   3 387.805 23.5612   2
   1   4  -3 392.501 23.4639   3
  -1   4   3 390.592 23.7771   3
   1   4  -3 404.199 23.6224   2
   1   4  -3 393.240 25.0403   1
   0  -4  -3 1367.17 74.9055   3
   0  -4  -3 1314.62 76.5060   1
   0  -4   3 1174.21 74.6514   2
   0  -4   3 1287.38 76.2062   1
   0  -4  -3 1171.50 74.4462   2
   0  -4  -3 1238.57 76.3226   1
   0   4  -3 1317.08 75.4000   1
   0   4   3 1255.49 74.8899   3
   0   4  -3 1189.25 74.7031   3
   0   4  -3 1303.40 74.7026   2
   1  -4   3 40.3452 3.08018   1
   1  -4   3 36.6265 4.00455   1
  -1  -4  -3 41.7992 5.13540   1
  -1   4  -3 43.1764 2.83310   2
   1   4   3 38.4838 3.12954   3
   1   4   3 32.9397 5.51944   1
  -2  -4  -3 953.923 57.6488   1
  -2  -4  -3 965.385 55.6693   3
   2   4   3 949.642 57.8859   1
  -2   4  -3 864.310 56.2274   3
  -2   4  -3 942.504 55.4423   2
   2   4   3 929.792 55.6233   3
  -3  -4  -3 624.145 44.2385   2
  -3  -4  -3 762.097 44.2303   3
  -3  -4  -3 772.411 46.7023   1
   3  -4   3 806.774 44.3882   1
  -3   4  -3 779.739 44.0258   2
   3   4   3 764.378 44.1870   3
   3   4   3 749.643 47.0088   1
  -3   4  -3 647.321 44.8765   3
   4  -4   3 11.2627 3.28203   1
  -4  -4  -3 12.2036 2.21651   2
  -4  -4  -3 13.6946 4.65055   1
  -4  -4  -3 18.9898 2.39169   3
  -4   4  -3 14.2626 3.31676   3
  -4   4  -3 14.7358 2.10604   2
  -4   4  -3 16.2522 2.65370   1
   4   4   3 5.11372 5.10663   1
   4   4   3 16.4157 2.31739   3
  -5  -4  -3 440.475 28.5831   3
   5  -4   3 462.396 30.6504   1
  -5  -4  -3 507.060 32.6180   1
   5   4   3 471.841 28.8989   2
  -5   4  -3 449.223 28.2544   2
   5   4   3 476.211 33.6437   1
   5   4   3 442.383 28.3482   3
  -5   4  -3 451.669 30.2031   1
  -5   4  -3 505.073 29.8688   3
  -6  -4  -3 1396.18 85.7078   1
   6  -4   3 1392.98 84.2238   1
  -6  -4  -3 1187.79 81.4145   2
  -6  -4  -3 1385.55 81.6912   3
  -6   4  -3 1376.68 81.1448   2
   6   4   3 1414.49 81.2434   3
   6   4   3 1368.92 87.4718   1
  -6   4  -3 1362.83 84.1022   1
  -7  -4  -3 6.07681 8.22726   1
   7  -4   3 2.85513 8.09006   1
  -7  -4  -3 2.78629 2.50347   2
   7   4   3 6.91154 2.17714   3
  -7   4  -3 7.69773 2.02436   2
   7   4   3 2.31089 12.7981   1
  -7   4  -3 11.6926 7.83736   1
  -8  -4  -3 576.226 34.4873   2
  -8   4  -3 516.255 33.8403   2
  -8   4  -3 555.835 45.0223   1
   8   4   3 556.656 34.0329   3
  -9  -4  -3 343.477 20.3865   2
   9   4   3 276.107 19.5962   3
  -9   4  -3 270.710 19.3115   2
 -10  -4  -3 11.8873 4.49259   2
 -10   4  -3 8.13458 3.23698   2
  10   4   3 7.94619 3.62825   3
 -11  -4  -3 97.3529 10.2887   2
 -11   4  -3 88.0767 9.23714   2
  11   4   3 86.8720 9.99779   3
 -11  -5   3 5.85273 4.53385   2
 -11   5   3 1.97762 5.42427   2
 -10  -5   3 116.414 11.3093   2
  10   5  -3 70.3663 8.56565   3
 -10   5   3 97.1811 8.82194   2
  -9  -5   3 651.042 40.7286   2
  -9   5   3 642.317 39.8455   2
  -8  -5   3 5.54361 3.71925   3
  -8  -5   3 13.5896 3.69934   2
  -8  -5   3 -7.5213 11.8339   1
   8   5  -3 33.8784 21.6203   1
   8   5  -3 8.73794 2.42778   3
  -8   5   3 9.33292 2.70972   2
  -7  -5   3 1038.66 62.6196   3
  -7  -5   3 1197.96 63.7403   2
  -7  -5   3 915.565 69.4857   1
   7   5  -3 1055.59 62.4748   3
   7   5  -3 928.401 74.3239   1
  -7   5   3 1091.06 70.1489   1
   6  -5  -3 100.839 18.2830   1
  -6  -5   3 149.776 10.9024   2
  -6  -5   3 146.985 9.71420   3
  -6  -5   3 111.317 17.7451   1
  -6   5   3 144.950 11.2356   3
  -6   5   3 129.124 17.3687   1
   6   5  -3 141.825 24.5466   1
   6   5  -3 158.318 9.46706   3
   5  -5  -3 5.90510 6.67517   1
  -5  -5   3 16.6040 2.80866   2
  -5  -5   3 5.84766 6.80058   1
  -5  -5   3 13.1603 1.84281   3
   5   5  -3 10.1811 1.55867   3
   5   5  -3 13.6348 3.23543   2
   5   5  -3 9.26689 9.65964   1
  -5   5   3 10.0568 2.64189   3
  -5   5   3 11.9067 2.03749   2
  -5   5   3 10.7492 5.71235   1
  -4  -5   3 314.974 25.7967   1
   4  -5  -3 339.713 24.5160   1
  -4  -5   3 365.741 21.5242   2
  -4  -5   3 368.403 20.9642   3
  -4   5   3 355.083 21.8371   3
  -4   5   3 346.955 20.9204   2
   4   5  -3 351.755 27.3722   1
   4   5  -3 318.296 21.3502   3
  -4   5   3 325.748 24.2949   1
  -3  -5   3 2697.51 162.793   1
  -3  -5   3 2851.76 158.716   3
  -3  -5   3 2822.71 159.012   2
   3  -5  -3 2854.52 161.180   1
  -3   5   3 2565.99 162.574   1
  -3   5   3 2688.68 158.473   2
   3   5  -3 2468.20 167.058   1
   3   5  -3 2422.04 159.032   2
   3   5  -3 2673.15 158.594   3
  -3   5   3 2775.62 159.273   3
  -2  -5   3 31.7732 2.70534   2
   2  -5  -3 25.3596 4.52181   1
  -2  -5   3 29.6795 5.65161   1
  -2  -5   3 30.5136 2.58999   3
   2   5  -3 27.8248 2.31328   3
  -2   5   3 28.5694 3.02491   3
   2   5  -3 31.4601 3.06241   2
   2   5  -3 27.6760 5.03347   1
  -1  -5   3 2888.03 162.014   1
   1  -5  -3 2836.25 159.591   3
   1  -5  -3 2656.37 161.539   1
   1   5  -3 2859.61 160.959   1
   1   5  -3 2459.73 159.597   2
   1   5  -3 2555.72 159.290   3
  -1   5   3 2621.58 159.613   3
   0  -5  -3 242.755 17.5127   1
   0  -5   3 259.270 18.3610   1
   0  -5   3 257.010 15.3695   2
   0  -5  -3 245.953 17.7641   1
   0  -5  -3 263.629 15.7041   3
   0   5  -3 280.427 15.4474   2
   0   5   3 254.339 15.7023   3
   0   5  -3 259.097 16.4673   1
   0   5  -3 220.660 15.6632   3
   1  -5   3 5.72748 1.47788   1
  -1  -5  -3 4.18595 1.35523   3
  -1  -5  -3 0.67515 3.01146   1
   1   5   3 2.67984 3.15355   1
   1   5   3 7.61745 1.39531   3
   2  -5   3 266.092 16.2792   1
   2  -5   3 238.884 16.8191   1
  -2  -5  -3 271.468 18.8082   1
  -2  -5  -3 259.268 16.2040   3
   2   5   3 263.198 16.1520   3
  -2   5  -3 261.492 15.8952   2
   2   5   3 276.761 19.3147   1
  -3  -5  -3 1534.03 89.1541   3
   3  -5   3 1590.92 88.8731   1
   3  -5   3 1323.09 89.2250   1
  -3  -5  -3 1523.31 91.8111   1
  -3   5  -3 1565.99 88.8692   2
   3   5   3 1550.96 89.1045   3
   3   5   3 1510.09 92.2593   1
  -3   5  -3 1393.32 89.9121   3
  -4  -5  -3 31.6767 3.94824   3
  -4  -5  -3 21.1458 5.90726   1
  -4  -5  -3 30.8858 3.82116   2
   4  -5   3 20.7135 6.20327   1
   4   5   3 34.2183 3.11719   3
  -4   5  -3 43.2536 6.26179   3
  -4   5  -3 29.2255 3.08698   2
  -4   5  -3 36.2017 3.01695   2
   4   5   3 29.4933 7.26582   1
  -5  -5  -3 597.138 37.1934   3
   5  -5   3 668.333 42.6382   1
  -5  -5  -3 629.496 41.3235   1
  -5  -5  -3 560.788 37.2633   2
  -5   5  -3 614.647 36.8056   2
  -5   5  -3 613.999 37.6664   1
   5   5   3 621.521 36.9142   3
   5   5   3 587.820 42.1469   1
  -6  -5  -3 40.5893 15.0190   1
   6  -5   3 25.9444 6.74986   1
  -6  -5  -3 13.4871 3.29592   2
   6   5   3 15.0168 2.86431   3
  -6   5  -3 15.2583 4.93504   1
  -6   5  -3 16.1454 2.58740   2
   6   5   3 26.8273 10.7262   1
  -7  -5  -3 11.3148 8.97845   1
  -7  -5  -3 0.50349 2.62784   2
   7  -5   3 1.87771 7.90627   1
   7   5   3 5.52187 13.3606   1
  -7   5  -3 2.16570 1.92706   2
   7   5   3 2.59247 1.86447   3
  -8  -5  -3 20.0452 4.45293   2
   8   5   3 19.5253 3.54656   3
  -8   5  -3 28.6017 3.76392   2
  -9  -5  -3 54.7102 7.61726   2
  -9   5  -3 45.1635 6.14354   2
   9   5   3 43.8167 6.61444   3
 -10  -5  -3 -1.7273 3.59036   2
 -10   5  -3 2.59834 3.11786   2
  10   5   3 1.89228 5.64449   3
 -11  -5  -3 -0.3223 4.42005   2
  11   5   3 -3.8118 4.13451   3
 -11   5  -3 0.36318 3.74730   2
 -11  -6   3 2.52013 4.77310   2
 -11   6   3 2.00814 6.50209   2
 -11   6   3 1.11638 4.61964   3
 -10  -6   3 74.6272 9.71849   2
  10   6  -3 61.0120 7.97253   3
 -10   6   3 67.2906 9.45516   3
 -10   6   3 92.5293 8.24971   2
  -9  -6   3 -0.9535 4.08639   2
  -9   6   3 1.97584 4.18947   3
   9   6  -3 -0.4893 2.83193   3
  -9   6   3 2.95076 3.01453   2
  -8  -6   3 20.1525 4.24894   2
  -8  -6   3 13.0485 14.4257   1
   8   6  -3 21.2430 3.07266   3
   8   6  -3 14.4543 23.7003   1
  -8   6   3 27.0625 5.11301   3
  -8   6   3 29.9616 4.61719   2
  -7  -6   3 3.03743 3.32205   2
  -7  -6   3 2.76717 2.88909   3
  -7  -6   3 4.51828 11.1901   1
  -7   6   3 -0.1856 2.19561   2
  -7   6   3 0.90593 3.49469   3
   7   6  -3 -1.0533 1.91753   3
   7   6  -3 1.97355 17.3819   1
  -6  -6   3 -1.5386 9.12728   1
   6  -6  -3 3.30139 9.89449   1
  -6  -6   3 11.9684 3.35111   2
   6   6  -3 12.5179 13.1096   1
  -6   6   3 8.77953 3.42763   3
  -6   6   3 2.48472 7.89343   1
   6   6  -3 5.16150 1.80851   3
  -5  -6   3 6.77127 2.20138   2
  -5  -6   3 6.45752 1.75296   3
   5  -6  -3 -1.2835 6.78365   1
  -5  -6   3 -0.6560 7.90797   1
   5   6  -3 5.15311 3.56445   2
  -5   6   3 3.97761 1.84737   2
   5   6  -3 12.4962 9.65399   1
  -5   6   3 -3.1183 5.36491   1
  -5   6   3 3.38691 2.51450   3
   5   6  -3 2.46960 1.29863   3
  -4  -6   3 2.56616 1.92610   2
  -4  -6   3 3.68999 6.54797   1
   4  -6  -3 3.88535 5.18493   1
  -4  -6   3 3.02724 1.52951   3
  -4   6   3 3.01177 1.09703   2
   4   6  -3 3.24164 2.85647   2
   4   6  -3 -0.9541 7.44523   1
   4   6  -3 3.12242 1.29546   3
  -4   6   3 2.50601 4.47855   1
  -4   6   3 8.59334 2.56954   3
  -3  -6   3 37.4494 3.57838   2
   3  -6  -3 27.7039 5.72747   1
  -3  -6   3 34.2700 7.11709   1
  -3  -6   3 41.3166 3.40098   3
   3   6  -3 26.0787 6.58218   1
   3   6  -3 30.7353 2.90983   3
  -3   6   3 36.3550 4.10964   3
   3   6  -3 22.7876 3.40827   2
  -2  -6   3 14.2966 5.22629   1
  -2  -6   3 16.5306 2.06161   2
   2  -6  -3 4.99183 3.75970   1
   2  -6  -3 9.89083 4.15441   1
  -2   6   3 10.6325 1.99168   3
   2   6  -3 16.4471 2.23922   2
   2   6  -3 11.9946 1.81563   3
   2   6  -3 11.6496 4.31666   1
  -1  -6   3 4.54545 3.98945   1
  -1  -6   3 1.13863 1.06124   2
   1  -6  -3 6.11778 3.94013   1
   1  -6  -3 1.44772 3.42158   1
   1  -6  -3 2.83690 1.81671   3
   1   6  -3 4.83442 1.24016   3
  -1   6   3 1.74651 1.65976   3
   1   6  -3 1.59528 2.92647   1
   1   6  -3 3.18338 1.34957   2
   0  -6  -3 1372.59 85.2546   1
   0  -6   3 1481.71 85.1347   1
   0  -6  -3 1403.02 85.3405   1
   0  -6  -3 1420.97 83.1550   3
   0   6   3 1388.12 83.1579   3
   0   6  -3 1336.68 82.8568   2
   0   6  -3 1394.30 84.0011   1
   0   6  -3 1383.73 82.9354   3
  -1  -6  -3 35.2333 6.60670   1
  -1  -6  -3 29.1516 3.43209   3
   1  -6   3 26.9046 4.06868   1
  -1  -6  -3 27.5026 2.19990   2
   1  -6   3 28.5088 4.02778   1
  -1   6  -3 30.0225 2.96682   3
   1   6   3 26.7722 5.94057   1
  -1   6  -3 31.6717 2.51151   2
   1   6   3 27.5367 3.06330   3
   2  -6   3 549.399 32.1144   1
  -2  -6  -3 535.866 34.7325   1
   2  -6   3 546.452 32.3539   1
  -2  -6  -3 534.968 31.8825   3
  -2  -6  -3 457.210 31.5813   2
   2   6   3 540.703 31.8248   3
  -2   6  -3 528.567 31.9924   3
   2   6   3 518.036 35.1671   1
  -3  -6  -3 49.5267 4.98188   3
  -3  -6  -3 32.6193 6.92257   1
   3  -6   3 34.9258 6.05242   1
  -3  -6  -3 38.5988 4.50540   2
   3  -6   3 56.7966 4.64774   1
  -3   6  -3 54.6882 3.84490   2
   3   6   3 29.8197 8.26151   1
   3   6   3 56.0791 4.60647   3
  -3   6  -3 53.2573 6.45803   3
  -4  -6  -3 8.73648 2.30701   2
  -4  -6  -3 14.2164 6.15062   1
   4  -6   3 11.9107 2.21927   1
  -4  -6  -3 11.6949 2.60173   3
   4  -6   3 11.3703 3.44858   1
  -4   6  -3 10.5300 1.74798   2
  -4   6  -3 12.6664 1.76521   2
   4   6   3 7.58739 1.83528   3
  -4   6  -3 3.32174 4.88165   3
  -5  -6  -3 3.47654 6.42806   1
   5  -6   3 4.21962 2.87222   1
   5  -6   3 3.76160 4.29436   1
  -5  -6  -3 5.80123 2.58018   2
   5   6   3 4.80657 8.71637   1
  -5   6  -3 3.49095 1.74398   2
  -5   6  -3 5.10522 2.04339   2
   5   6   3 2.80386 2.11101   3
  -6  -6  -3 1248.95 83.1669   1
   6  -6   3 1287.37 79.8840   1
  -6  -6  -3 1417.48 78.8513   2
  -6   6  -3 1263.04 78.0041   2
   6   6   3 1247.52 85.6913   1
   6   6   3 1363.72 78.2161   3
  -7  -6  -3 0.96503 2.81306   2
  -7  -6  -3 10.9565 10.3856   1
   7  -6   3 -1.1951 7.59108   1
  -7   6  -3 5.18680 5.56832   1
  -7   6  -3 2.47315 2.03103   2
   7   6   3 -7.1802 15.3123   1
   7   6   3 1.17335 2.05277   3
  -8  -6  -3 571.130 32.0903   2
  -8   6  -3 456.906 30.7985   2
   8   6   3 474.241 31.0018   3
  -9  -6  -3 12.9154 4.79241   2
  -9   6  -3 12.8595 3.52631   2
   9   6   3 6.26992 4.01669   3
 -10  -6  -3 5.85371 4.52475   2
 -10   6  -3 12.1623 4.18294   2
  10   6   3 4.69287 3.83214   3
 -10  -7   3 11.6160 5.28732   2
 -10   7   3 12.7326 4.06859   2
  10   7  -3 -0.6548 4.02155   3
 -10   7   3 3.84795 5.44693   3
  -9   7   3 464.767 30.8547   3
  -9   7   3 512.530 28.8158   2
   9   7  -3 390.809 28.2840   3
  -8  -7   3 -4.3212 3.31120   2
  -8   7   3 4.79880 4.16017   3
   8   7  -3 -0.7761 2.36624   3
  -8   7   3 0.57776 2.53881   2
  -7  -7   3 600.624 38.0222   2
  -7  -7   3 600.794 39.5126   3
   7   7  -3 620.861 36.7956   3
  -7   7   3 560.446 38.6211   3
  -7   7   3 709.265 37.1276   2
   7   7  -3 458.361 56.1631   1
  -6  -7   3 25.8484 3.63285   3
  -6  -7   3 41.2950 6.15224   2
  -6  -7   3 -2.6056 11.6124   1
  -6   7   3 33.3998 4.21384   2
   6   7  -3 22.1346 16.1287   1
   6   7  -3 23.5610 3.89276   3
  -6   7   3 26.8904 5.04321   3
  -5  -7   3 1.41579 1.99020   2
   5  -7  -3 -8.8406 7.30703   1
  -5  -7   3 3.49735 2.23840   3
  -5  -7   3 0.46501 9.62541   1
   5   7  -3 4.01864 10.5316   1
   5   7  -3 0.58608 1.33046   3
  -5   7   3 3.99254 2.90439   3
   4  -7  -3 52.7660 8.99954   1
   4  -7  -3 60.0495 9.28022   1
  -4  -7   3 62.4814 5.45385   3
  -4  -7   3 48.8060 10.7223   1
  -4  -7   3 64.7025 5.66055   2
   4   7  -3 47.8866 10.8481   1
  -4   7   3 66.7825 6.76358   3
   4   7  -3 45.9404 7.00728   2
   4   7  -3 68.8879 4.78966   3
   3  -7  -3 1765.45 108.730   1
  -3  -7   3 1757.12 110.866   1
  -3  -7   3 1767.99 106.014   3
  -3  -7   3 1791.41 106.014   2
   3  -7  -3 1799.83 109.064   1
   3   7  -3 1771.46 109.777   1
  -3   7   3 1804.65 106.615   3
   3   7  -3 1822.22 105.803   3
   2  -7  -3 -7.0078 4.14499   1
  -2  -7   3 1.49647 1.14243   2
  -2  -7   3 4.85124 5.58723   1
   2   7  -3 -6.3582 4.33477   1
  -2   7   3 -0.5147 1.68219   3
   2   7  -3 1.94628 1.98651   2
   2   7  -3 1.27357 1.09486   3
  -1  -7   3 1382.91 83.3714   1
  -1  -7   3 1357.56 79.6838   2
   1  -7  -3 1354.43 82.6854   1
   1   7  -3 1357.47 81.9285   1
  -1   7   3 1328.97 80.2249   3
   1   7  -3 1242.28 79.9160   2
   1   7  -3 1387.50 79.8488   3
   0  -7   3 46.5804 8.80874   1
   0  -7   3 48.1849 3.69906   2
   0  -7  -3 45.1044 4.92449   3
   0  -7  -3 50.7243 8.50153   1
   0   7  -3 51.0526 6.78575   1
   0   7  -3 40.7548 5.11181   2
   0   7   3 46.8301 4.77367   3
   0   7  -3 54.3378 4.26678   3
  -1  -7  -3 10.0148 1.01317   2
  -1  -7  -3 10.0850 2.47701   3
  -1  -7  -3 3.29393 4.71564   1
   1  -7   3 10.7557 4.14899   1
   1  -7   3 7.25880 2.83130   1
   1   7   3 10.2430 2.04446   3
  -1   7  -3 7.02845 1.67141   3
   2  -7   3 16.1575 3.61765   1
   2  -7   3 19.4196 3.95812   1
  -2  -7  -3 11.3299 5.49501   1
  -2  -7  -3 24.2021 2.57075   2
  -2  -7  -3 19.4389 3.16902   3
  -2   7  -3 27.3642 3.79982   3
  -2   7  -3 21.8282 3.10879   2
   2   7   3 18.8676 6.37337   1
   2   7   3 23.1802 3.56255   3
  -3  -7  -3 1051.45 63.2880   3
   3  -7   3 1061.73 62.4315   1
  -3  -7  -3 972.811 62.0466   2
  -3  -7  -3 1033.75 65.9394   1
   3  -7   3 907.143 62.6146   1
  -3   7  -3 1096.52 64.6010   3
   3   7   3 1079.06 62.2203   3
  -3   7  -3 1155.20 61.8527   2
  -3   7  -3 1028.74 61.7549   2
   3   7   3 1017.89 66.3919   1
  -3   7  -3 1026.10 62.5483   3
  -4  -7  -3 23.1120 7.63061   1
  -4  -7  -3 27.3165 4.09206   2
   4   7   3 31.9971 3.68145   3
  -4   7  -3 33.8514 3.18055   2
  -4   7  -3 31.5577 3.25076   2
   4   7   3 13.3621 8.54974   1
  -5  -7  -3 322.579 25.9668   1
   5  -7   3 309.345 19.1678   1
   5  -7   3 310.763 19.6008   1
  -5  -7  -3 308.309 20.0074   2
  -5   7  -3 306.140 19.2487   2
   5   7   3 294.897 29.3539   1
   5   7   3 312.425 19.5305   3
  -5   7  -3 312.487 19.2152   2
  -6  -7  -3 22.0445 10.2549   1
  -6  -7  -3 32.0406 4.41660   2
   6  -7   3 23.4334 5.25937   1
  -6   7  -3 27.3177 4.13003   2
  -6   7  -3 26.9669 3.80819   2
   6   7   3 24.7115 3.67008   3
   6   7   3 32.6557 14.9909   1
  -7  -7  -3 -3.3182 13.2604   1
   7  -7   3 -4.2378 7.07438   1
  -7  -7  -3 10.9384 3.69666   2
  -7   7  -3 3.81508 2.25927   2
   7   7   3 12.2651 2.79911   3
  -8  -7  -3 -0.0755 3.83755   2
   8   7   3 0.58261 2.99733   3
  -8   7  -3 -1.3942 2.48877   2
   9   7   3 34.9842 5.77595   3
  -9   7  -3 33.9093 4.82366   2
 -10  -7  -3 9.72534 5.15178   2
  10   7   3 -1.8800 3.83607   3
 -10  -8   3 38.8944 7.07502   2
 -10   8   3 39.4536 7.93797   3
  -9  -8   3 0.42466 4.82777   2
  -9   8   3 2.16407 3.48324   2
  -9   8   3 -3.1909 5.12300   3
   9   8  -3 -0.5036 3.54217   3
  -8  -8   3 5.53263 4.27759   2
  -8   8   3 7.99477 4.79019   3
  -8   8   3 9.27376 2.89360   2
   8   8  -3 5.92922 2.76502   3
  -7  -8   3 28.8667 4.71317   2
  -7   8   3 12.0262 4.92897   3
  -7   8   3 18.0469 2.92196   2
   7   8  -3 14.1397 2.88147   3
  -6  -8   3 15.7571 3.46546   2
   6   8  -3 14.8075 2.47664   3
  -6   8   3 14.5755 4.39657   3
  -6   8   3 18.5156 2.62250   2
  -6   8   3 16.8301 2.57581   2
  -5  -8   3 4.23165 2.31985   2
  -5  -8   3 2.24994 2.83433   3
   5   8  -3 2.50363 1.56581   3
   5   8  -3 12.5674 15.8084   1
  -5   8   3 0.77250 2.85253   3
  -4  -8   3 -0.5695 2.54492   3
  -4  -8   3 1.58128 1.96102   2
   4   8  -3 -0.6522 9.98219   1
  -4   8   3 1.79288 2.77820   3
   4   8  -3 -6.0673 4.21319   2
   4   8  -3 1.25180 1.52655   3
  -3  -8   3 47.1947 4.10919   2
   3  -8  -3 31.0455 8.43754   1
  -3  -8   3 29.1188 10.4321   1
   3   8  -3 42.8358 3.91371   3
   3   8  -3 21.8336 8.29746   1
  -3   8   3 46.1727 5.64761   3
   2  -8  -3 25.9490 6.53252   1
  -2  -8   3 12.2952 8.04385   1
   2  -8  -3 10.0756 6.42967   1
  -2  -8   3 18.7002 2.40079   2
   2   8  -3 9.73552 2.92675   2
   2   8  -3 16.1115 2.51821   3
  -2   8   3 19.3191 2.96208   3
   2   8  -3 7.33316 5.98495   1
   1  -8  -3 5.78432 5.35547   1
   1  -8  -3 6.86893 5.73373   1
  -1  -8   3 7.77583 6.60576   1
  -1  -8   3 2.96034 1.25707   2
   1   8  -3 -1.9941 2.06099   2
  -1   8   3 3.60299 2.19089   3
   1   8  -3 9.25357 4.88040   1
   1   8  -3 3.11863 1.57129   3
   0  -8  -3 550.198 37.9314   1
   0  -8   3 581.011 37.9931   1
   0   8   3 583.300 34.4946   3
   0   8  -3 529.184 34.0154   2
   0   8  -3 579.374 34.1570   3
  -1  -8  -3 23.9233 7.18477   1
  -1  -8  -3 11.6196 6.45242   1
   1  -8   3 15.8082 5.72501   1
   1   8   3 13.5663 2.41756   3
  -1   8  -3 14.7627 2.23075   3
  -2  -8  -3 204.659 19.5155   1
   2  -8   3 216.112 15.2339   1
  -2  -8  -3 211.422 13.1202   2
   2  -8   3 224.793 16.6924   1
   2   8   3 214.196 14.0485   3
   2   8   3 222.760 20.2062   1
  -2   8  -3 218.422 14.1137   3
  -3  -8  -3 109.482 15.8052   1
   3  -8   3 112.427 10.5800   1
  -3  -8  -3 115.619 8.00297   2
   3  -8   3 118.465 10.6325   1
  -3   8  -3 115.260 7.78151   2
  -3   8  -3 122.327 9.22954   3
   3   8   3 112.028 8.67702   3
  -3   8  -3 126.101 7.83618   2
   3   8   3 107.633 17.9067   1
  -4  -8  -3 10.0363 2.38314   2
  -4  -8  -3 14.6182 8.41922   1
   4   8   3 1.05501 9.74127   1
  -4   8  -3 6.47590 2.92059   3
  -4   8  -3 9.01694 1.84786   2
   4   8   3 7.87131 2.22654   3
  -4   8  -3 9.75803 1.78625   2
  -5  -8  -3 71.1033 6.80626   2
  -5  -8  -3 61.3891 12.5429   1
  -5   8  -3 67.0456 5.89669   2
  -5   8  -3 67.1766 8.28318   3
  -5   8  -3 71.9437 5.57854   2
   5   8   3 58.9797 14.7419   1
   5   8   3 64.7650 6.24236   3
  -6  -8  -3 560.012 47.8998   1
  -6  -8  -3 694.694 39.5760   2
   6   8   3 677.194 38.8889   3
  -6   8  -3 683.414 40.6071   3
   6   8   3 514.790 50.9336   1
  -6   8  -3 611.112 38.4131   2
  -7  -8  -3 3.39377 3.74506   2
   7   8   3 7.34404 2.88160   3
  -7   8  -3 3.12046 2.31227   2
  -8   8  -3 153.398 11.9825   2
   8   8   3 183.002 12.5359   3
  -9  -8  -3 80.0683 10.4102   2
   9   8   3 49.6549 6.48218   3
  -9   8  -3 47.0259 7.25409   2
  -9  -9   3 144.396 14.6335   2
  -9   9   3 170.956 15.7287   3
   8   9  -3 4.33642 3.17176   3
  -8   9   3 -1.2858 5.10448   3
  -7  -9   3 205.605 15.2907   2
  -7   9   3 184.519 16.8265   3
   7   9  -3 217.012 13.7613   3
  -6  -9   3 171.238 12.4842   2
  -6   9   3 149.569 14.1340   3
   6   9  -3 170.242 11.2338   3
  -5  -9   3 3.86073 2.46365   2
   5   9  -3 3.56398 1.85960   3
  -5   9   3 4.71908 3.45551   3
  -4  -9   3 286.993 17.7544   2
  -4   9   3 292.304 18.9999   3
   4   9  -3 290.802 17.4841   3
   4   9  -3 236.800 20.2352   2
  -3  -9   3 449.770 27.6363   2
  -3   9   3 459.932 28.8467   3
   3   9  -3 454.450 27.6656   3
  -2  -9   3 0.98554 1.27429   2
   2   9  -3 2.71185 3.28243   2
   2   9  -3 2.30282 1.59876   3
  -2   9   3 0.04926 2.42263   3
  -1  -9   3 503.976 30.2749   2
  -1   9   3 507.933 31.2803   3
   1   9  -3 502.705 30.7198   3
   0  -9   3 200.085 16.2817   1
   0   9  -3 168.224 12.8188   2
   0   9   3 206.887 13.3458   3
   0   9  -3 208.210 12.8360   3
   1  -9   3 3.90815 4.61066   1
  -1   9  -3 0.51556 1.84479   3
   1   9   3 0.39802 2.13108   3
  -2  -9  -3 261.624 16.1444   2
   2  -9   3 267.066 19.1360   1
   2   9   3 286.980 17.4197   3
  -2   9  -3 266.908 17.5089   3
   3  -9   3 200.748 16.7976   1
  -3  -9  -3 233.545 14.1194   2
  -3   9  -3 253.782 15.1379   2
  -3   9  -3 210.226 15.0924   2
   3   9   3 233.912 15.0933   3
  -3   9  -3 235.760 15.4615   3
   3   9   3 212.022 25.6150   1
  -4  -9  -3 7.86422 2.10882   2
   4   9   3 5.90504 16.1146   1
  -4   9  -3 3.47916 3.09630   3
  -4   9  -3 8.58545 2.15428   2
   4   9   3 6.59541 2.35170   3
  -4   9  -3 5.72163 1.72742   2
  -5  -9  -3 127.323 9.50946   2
   5   9   3 124.966 9.39281   3
  -5   9  -3 114.057 8.51519   2
  -5   9  -3 131.400 11.2428   3
  -6  -9  -3 35.4641 5.01409   2
   6   9   3 31.6559 4.43374   3
  -6   9  -3 47.1216 6.74016   3
  -6   9  -3 34.6104 4.60271   2
  -7  -9  -3 3.15644 3.96610   2
   7   9   3 0.14953 2.87352   3
  -7   9  -3 1.10144 2.55932   2
  -7   9  -3 -0.0226 5.11936   3
  -8  -9  -3 33.3015 6.33997   2
   8   9   3 14.7888 4.08721   3
  -8   9  -3 15.1828 6.36182   3
  -8   9  -3 21.0504 3.94016   2
  -8 -10   3 1.44460 4.90487   2
  -8  10   3 -6.1192 5.49046   3
  -7 -10   3 18.7851 4.56986   2
   7  10  -3 9.91547 3.28298   3
  -7  10   3 9.24347 5.81494   3
  -6 -10   3 8.13860 3.50011   2
  -6  10   3 16.1091 5.19060   3
   6  10  -3 7.90621 2.75763   3
  -5 -10   3 44.1524 5.32789   2
   5  10  -3 38.6958 4.64051   3
  -4 -10   3 0.87831 2.09088   2
  -4  10   3 1.98068 3.53205   3
   4  10  -3 -2.6347 1.96726   3
  -3 -10   3 40.7777 4.20493   2
   3  10  -3 43.4882 4.63638   3
  -3  10   3 44.7638 6.74687   3
  -2 -10   3 2.50620 1.43952   2
   2  10  -3 2.05141 5.45008   2
  -2  10   3 -1.0371 2.68886   3
   2  10  -3 1.61413 1.87301   3
  -1  10   3 20.1364 3.63347   3
   1  10  -3 15.9868 3.88682   2
   1  10  -3 19.0866 2.90412   3
   0  10   3 136.901 10.1014   3
   0  10  -3 131.028 9.55411   3
  -1  10  -3 27.2315 4.69542   2
   1  10   3 41.5017 5.05992   3
  -1  10  -3 42.8496 4.80039   3
  -2  10  -3 41.6232 5.21148   3
  -2  10  -3 36.2251 3.08361   2
  -2  10  -3 31.2015 4.30849   2
   2  10   3 33.4715 5.19633   3
  -3 -10  -3 211.768 14.4356   2
   3  10   3 257.025 15.6580   3
  -3  10  -3 224.079 14.3697   2
  -3  10  -3 240.039 15.9518   3
  -4 -10  -3 2.55557 1.81116   2
   4  10   3 4.88872 2.59143   3
  -4  10  -3 5.13068 3.51625   3
  -5 -10  -3 95.9688 7.75199   2
   5  10   3 105.935 8.28705   3
  -5  10  -3 84.8960 10.9580   3
  -5  10  -3 87.7049 7.17254   2
  -6 -10  -3 128.939 10.5894   2
  -6  10  -3 126.152 13.0224   3
   6  10   3 126.971 10.4322   3
  -7 -10  -3 7.26590 4.49014   2
  -7  10  -3 13.2741 6.17110   3
   7  10   3 3.45757 3.49605   3
   8  10   3 43.6586 5.80085   3
  -7  11   3 14.7648 6.69119   3
  -6 -11   3 175.451 13.7256   2
   6  11  -3 201.635 13.1696   3
  -6  11   3 187.906 16.5168   3
  -5 -11   3 2.62108 2.66521   2
   5  11  -3 0.45378 2.54379   3
  -5  11   3 -8.6919 4.06408   3
  -4 -11   3 217.628 14.4366   2
   4  11  -3 232.128 14.6349   3
  -4  11   3 219.022 16.8607   3
  -3 -11   3 69.4745 5.75711   2
  -3  11   3 76.7611 11.0686   3
   3  11  -3 72.1310 6.47928   3
  -2 -11   3 2.33897 1.51215   2
  -2  11   3 -3.8056 3.13328   3
   2  11  -3 0.82644 2.17490   3
   1  11  -3 28.5138 3.69591   3
  -1  11   3 25.3565 4.28598   3
   0  11  -3 270.442 17.7351   3
   0  11   3 277.182 18.3475   3
   1  11   3 0.34724 2.75586   3
  -1  11  -3 4.50346 2.52576   3
  -2  11  -3 207.688 14.5033   3
   2  11   3 207.881 14.5025   3
  -3  11  -3 34.4651 4.97223   3
   3  11   3 34.9719 4.69485   3
  -4  11  -3 11.0183 6.53526   3
   4  11   3 18.8164 5.37678   3
  -5  11  -3 5.54416 4.78510   3
   5  11   3 8.84289 4.23166   3
   6  11   3 35.4065 5.15595   3
  -6  11  -3 32.8711 7.06392   3
  -5  12   3 13.9576 5.63372   3
   5  12  -3 12.3254 3.72289   3
  -4  12   3 -1.4799 4.63216   3
   4  12  -3 -2.1934 2.88152   3
  -3  12   3 82.4492 9.91267   3
   3  12  -3 91.0342 7.74742   3
   2  12  -3 3.17120 2.59890   3
  -2  12   3 -2.7538 3.32846   3
  -1  12   3 -2.4276 3.33892   3
   1  12  -3 -1.5530 2.74495   3
   0  12   3 15.7455 3.98915   3
   0  12  -3 8.56334 3.35437   3
  -1  12  -3 16.7918 3.63126   3
   1  12   3 13.9523 3.68255   3
  -2  12  -3 4.53848 5.61652   3
  -3  12  -3 219.005 16.1868   3
   3  12   3 224.417 15.6805   3
  -4  12  -3 -4.3575 4.42986   3
   4  12   3 -4.1076 3.18417   3
  -2  13   3 0.06299 4.16157   3
   1  13  -3 10.3936 4.30434   3
  -1  13   3 13.7130 4.73372   3
   0  13   3 76.3996 9.13339   3
   0  13  -3 83.5695 8.29621   3
   1  13   3 -0.6099 3.81563   3
  -1  13  -3 -3.9130 3.44883   3
 -12   0   4 261.795 19.1097   2
 -11   0   4 3.31767 3.39189   2
 -10   0   4 306.662 20.7359   2
  -9   0   4 19.0511 4.14778   2
   8   0  -4 173.034 27.5518   1
  -8   0   4 121.121 20.1296   1
  -8   0   4 145.937 10.3740   2
  -8   0   4 133.676 10.6234   3
  -7   0   4 3.35997 2.63257   3
  -7   0   4 7.30564 2.94648   2
   7   0  -4 3.13081 4.26932   2
   7   0  -4 1.75310 11.2672   1
  -7   0   4 3.63345 8.05671   1
  -6   0   4 491.879 36.2186   1
   6   0  -4 435.355 36.8600   1
  -6   0   4 516.456 28.8401   3
  -6   0   4 501.653 29.0952   2
   6   0  -4 393.016 28.7609   2
  -5   0   4 4.57210 6.03113   1
   5   0  -4 3.24538 1.70930   2
   5   0  -4 -4.6005 6.98580   1
  -5   0   4 3.71763 1.67945   2
  -5   0   4 1.42357 1.61300   3
   4   0  -4 204.044 13.7477   2
  -4   0   4 215.692 13.6574   3
  -4   0   4 244.119 14.0342   2
   4   0  -4 221.873 19.5159   1
  -4   0   4 209.743 18.9041   1
   3   0  -4 19.0422 5.35373   1
  -3   0   4 31.7694 5.93683   1
  -2   0   4 7.00230 2.85875   1
   2   0  -4 4.40434 0.81587   2
  -2   0   4 7.99991 0.80506   3
  -2   0   4 6.09095 0.92877   2
   2   0  -4 7.96247 3.03482   1
   1   0  -4 1.44531 0.60647   2
  -1   0   4 1.70340 1.45611   1
  -1   0   4 2.53978 0.43457   3
  -1   0   4 2.89635 0.62768   2
   1   0  -4 2.24723 1.72722   1
   0   0   4 324.953 20.2793   2
   0   0  -4 340.761 20.2337   3
   0   0   4 335.921 20.2617   3
   0   0   4 352.872 21.1362   1
   0   0  -4 346.446 21.1707   1
   0   0  -4 340.174 20.2791   2
  -1   0  -4 2.31050 1.39722   1
  -1   0  -4 3.47648 1.23241   1
  -1   0  -4 6.51389 0.99120   2
   1   0   4 5.08912 0.81060   3
   2   0   4 936.057 56.9056   1
  -2   0  -4 943.917 56.8611   1
   2   0   4 944.815 56.1584   3
  -2   0  -4 950.643 56.1409   3
  -3   0  -4 6.64386 1.31266   2
  -3   0  -4 5.57636 2.12611   1
  -3   0  -4 6.93771 1.52295   3
   3   0   4 12.6419 2.57947   1
   4   0   4 6.65085 1.53931   3
   4   0   4 2.94697 2.81522   1
  -4   0  -4 7.72252 1.33455   2
  -4   0  -4 2.23335 2.86162   1
   5   0   4 1.97605 1.78037   3
  -5   0  -4 0.48713 2.31367   3
  -5   0  -4 1.13621 3.55861   1
   5   0   4 12.8785 4.78089   1
  -5   0  -4 2.23992 1.63757   2
   6   0   4 1182.23 69.3276   1
  -6   0  -4 1041.01 65.6967   3
  -6   0  -4 1096.04 65.0780   2
   6   0   4 1080.27 65.3575   3
  -6   0  -4 1037.22 68.4616   1
  -7   0  -4 4.93921 6.59839   1
  -7   0  -4 0.82121 1.62062   2
   7   0   4 0.73792 1.98664   3
   7   0   4 7.69058 8.26799   1
   8   0   4 971.230 56.9186   3
  -8   0  -4 860.574 61.9674   1
  -8   0  -4 961.057 56.5951   2
   9   0   4 8.08640 4.06584   3
 -10   0  -4 1.25076 2.73534   2
  10   0   4 -3.5931 3.32949   3
 -11   0  -4 2.51994 3.79977   2
 -12   0  -4 262.985 18.9017   2
 -12  -1   4 16.0867 5.47927   2
 -11  -1   4 -1.1180 3.54927   2
 -10  -1   4 79.0630 9.18588   2
  -9  -1   4 662.670 41.8043   2
  -9   1   4 687.795 41.7484   2
   8  -1  -4 -14.901 12.2584   1
  -8  -1   4 -0.3421 2.92734   3
  -8  -1   4 -12.854 9.15490   1
  -8  -1   4 -0.6800 2.27990   2
   8   1  -4 12.4737 14.9397   1
  -8   1   4 10.9872 10.2093   1
  -8   1   4 -2.8513 2.24286   2
  -8   1   4 -7.0517 3.15870   3
  -7  -1   4 2035.47 127.839   1
  -7  -1   4 2073.48 120.966   3
   7  -1  -4 2002.90 128.280   1
  -7  -1   4 2102.40 121.355   2
   7  -1  -4 1823.76 121.108   2
  -7   1   4 1917.48 120.975   3
   7   1  -4 2181.91 130.338   1
  -7   1   4 2107.98 121.240   2
  -7   1   4 2057.03 128.311   1
  -6  -1   4 152.952 10.4143   3
   6  -1  -4 149.156 10.8260   2
   6  -1  -4 153.925 19.8227   1
  -6  -1   4 168.609 18.5799   1
  -6  -1   4 167.391 10.9676   2
  -6   1   4 149.527 10.5395   3
   6   1  -4 159.416 22.2239   1
  -6   1   4 168.245 10.8463   2
   6   1  -4 124.405 10.7302   2
  -6   1   4 148.717 18.7669   1
  -5  -1   4 7.61519 2.01214   2
  -5  -1   4 11.0962 1.78444   3
   5  -1  -4 10.1837 6.90722   1
   5  -1  -4 5.36396 1.84992   2
  -5  -1   4 18.1717 6.90507   1
  -5   1   4 9.30275 1.87428   3
   5   1  -4 7.86689 2.01635   2
  -5   1   4 6.23264 1.73631   2
   5   1  -4 4.18644 8.09574   1
  -5   1   4 13.1931 6.43007   1
   4  -1  -4 252.370 17.6335   2
   4  -1  -4 265.597 22.0443   1
  -4  -1   4 284.776 17.5058   3
  -4  -1   4 309.135 23.4942   1
  -4   1   4 297.714 22.7454   1
  -4   1   4 297.371 17.7795   3
   4   1  -4 305.123 24.3239   1
  -4   1   4 311.573 17.8711   2
   4   1  -4 268.784 17.6841   2
  -3  -1   4 4159.95 232.027   2
  -3  -1   4 3766.88 235.938   1
   3  -1  -4 3686.53 231.818   2
   3  -1  -4 4380.79 234.789   1
  -3  -1   4 3436.77 231.658   3
   3   1  -4 3709.14 235.911   1
  -3   1   4 4168.75 231.940   2
  -3   1   4 4090.86 231.852   3
   3   1  -4 3916.10 231.899   2
   2  -1  -4 41.3544 5.16218   1
   2  -1  -4 38.4887 2.75646   2
  -2  -1   4 38.6307 2.41832   3
  -2  -1   4 39.0412 2.89415   2
  -2  -1   4 40.2162 6.54687   1
  -2   1   4 38.0619 2.76240   2
  -2   1   4 44.0233 2.76977   3
   2   1  -4 39.0353 2.87998   2
  -2   1   4 36.5104 5.02274   1
  -1  -1   4 9252.56 537.883   1
   1  -1  -4 9242.94 537.579   1
   1   1  -4 8583.94 538.073   1
  -1   1   4 9285.98 537.632   1
   0  -1   4 903.060 50.9710   1
   0  -1  -4 896.373 51.4127   1
   0  -1   4 821.008 50.3116   2
   0  -1  -4 836.770 50.2481   2
   0  -1  -4 853.515 50.2960   3
   0  -1   4 818.592 50.3288   3
   0   1   4 816.210 50.3059   3
   0   1  -4 853.312 50.2291   3
   0   1   4 863.215 51.3538   1
   0   1  -4 857.369 50.3083   2
   0   1  -4 889.068 51.1910   1
   0   1   4 782.375 50.2467   2
   1   1   4 10.0543 2.14058   1
  -1   1  -4 12.0587 1.74481   1
  -2  -1  -4 198.659 13.7295   1
   2  -1   4 190.984 12.8840   3
  -2  -1  -4 221.859 12.6655   3
   2  -1   4 199.794 13.0463   1
  -2   1  -4 210.067 13.1338   1
  -2   1  -4 211.291 12.8462   3
   3  -1   4 4247.23 237.152   1
  -3  -1  -4 4235.55 237.780   1
   3  -1   4 3553.49 236.479   3
  -3  -1  -4 4051.51 236.346   3
  -3  -1  -4 3936.71 236.228   2
  -3   1  -4 4205.18 237.344   1
   3   1   4 3805.25 236.273   3
  -3   1  -4 3950.66 236.561   3
  -4  -1  -4 43.3755 4.06740   3
  -4  -1  -4 32.4760 6.16606   1
  -4  -1  -4 46.6927 3.61107   2
   4  -1   4 45.5580 5.84858   1
   4  -1   4 55.3526 4.32700   3
  -4   1  -4 33.6731 5.99003   1
  -4   1  -4 47.2619 3.59218   2
  -4   1  -4 42.6018 4.62418   3
   4   1   4 51.5852 3.77644   3
  -5  -1  -4 2492.81 142.552   3
  -5  -1  -4 2535.80 145.007   1
   5  -1   4 2637.39 144.666   1
  -5  -1  -4 2430.57 142.229   2
   5  -1   4 2179.22 142.483   3
   5   1   4 2381.00 142.294   3
  -5   1  -4 2278.06 144.698   1
  -5   1  -4 2403.22 142.138   2
  -5   1  -4 2244.15 142.713   3
  -6  -1  -4 157.190 11.6543   3
  -6  -1  -4 159.316 10.6533   2
   6  -1   4 177.164 15.6502   1
   6  -1   4 146.834 10.9892   3
  -6  -1  -4 144.090 14.6385   1
  -6   1  -4 141.350 11.8604   3
   6   1   4 163.739 10.8521   3
  -6   1  -4 157.838 10.4952   2
  -6   1  -4 148.894 14.9833   1
  -7  -1  -4 1.29320 1.87148   2
  -7  -1  -4 9.88062 6.47112   1
   7  -1   4 6.29036 8.16476   1
   7  -1   4 3.48601 2.41371   3
   7   1   4 -9.4143 11.1719   1
  -7   1  -4 -4.2222 5.82659   1
  -7   1  -4 -0.1287 1.54973   2
  -8  -1  -4 22.8715 9.86299   1
   8  -1   4 33.5535 4.73165   3
  -8  -1  -4 20.0543 3.60337   2
   8   1   4 17.9501 3.66989   3
  -8   1  -4 22.2893 9.63709   1
  -8   1  -4 18.7522 3.41325   2
  -9  -1  -4 337.485 22.3672   2
   9   1   4 362.805 22.7141   3
  -9   1  -4 332.543 22.2129   2
 -10  -1  -4 -1.3469 3.07746   2
  10   1   4 -0.2393 3.20548   3
 -10   1  -4 0.66752 2.50968   2
 -11  -1  -4 36.8204 5.64262   2
  11   1   4 56.1530 8.51700   3
 -11   1  -4 42.6112 5.84609   2
 -12  -1  -4 5.94433 4.40271   2
 -12   1  -4 4.24023 4.51895   2
 -12  -2   4 155.087 13.4513   2
 -12   2   4 150.478 12.9505   2
 -11  -2   4 5.04559 3.74808   2
 -10  -2   4 357.252 22.8661   2
 -10   2   4 313.800 22.2000   2
  -9  -2   4 58.6271 7.24134   3
  -9  -2   4 82.3924 8.23373   2
  -9  -2   4 45.7446 16.5538   1
  -9   2   4 82.6520 7.70704   2
  -8  -2   4 30.1299 4.23442   3
   8  -2  -4 23.3397 13.4925   1
  -8  -2   4 33.8113 5.18589   2
  -8   2   4 5.00019 11.3676   1
  -8   2   4 33.7173 4.68111   2
   8   2  -4 25.1880 17.6786   1
  -7  -2   4 137.912 10.0769   3
  -7  -2   4 128.209 18.8627   1
   7  -2  -4 133.396 10.9916   2
  -7  -2   4 160.092 11.0045   2
   7  -2  -4 114.310 20.8157   1
  -7   2   4 131.829 20.0161   1
  -7   2   4 124.139 10.5058   3
   7   2  -4 153.046 27.1660   1
  -7   2   4 161.526 10.5599   2
  -6  -2   4 188.862 11.7360   2
  -6  -2   4 181.594 19.5304   1
  -6  -2   4 165.883 10.7946   3
   6  -2  -4 118.035 19.4346   1
   6  -2  -4 169.394 11.4887   2
  -6   2   4 159.528 11.2426   3
   6   2  -4 139.641 11.2907   2
  -6   2   4 169.197 19.3046   1
   6   2  -4 187.972 24.7959   1
   5  -2  -4 9.77063 6.46490   1
  -5  -2   4 13.5434 1.75859   3
   5  -2  -4 13.3410 2.32382   2
  -5  -2   4 7.81675 6.67385   1
  -5  -2   4 16.6170 2.48496   2
  -5   2   4 10.1009 1.98305   2
  -5   2   4 14.3847 2.21649   3
  -5   2   4 6.92602 5.95249   1
   5   2  -4 5.15094 8.66815   1
  -4  -2   4 273.164 14.9579   3
   4  -2  -4 209.846 15.3066   2
  -4  -2   4 265.824 21.2196   1
   4  -2  -4 234.549 18.8719   1
  -4  -2   4 256.847 15.6018   2
  -4   2   4 260.696 15.4245   2
   4   2  -4 220.772 22.0527   1
   4   2  -4 227.955 15.4314   2
  -4   2   4 266.297 19.6467   1
  -3  -2   4 4.87572 4.91903   1
   3  -2  -4 17.8596 2.04077   2
   3  -2  -4 15.5180 3.95141   1
  -3  -2   4 14.4802 1.20250   3
  -3   2   4 15.0613 4.05256   1
   3   2  -4 0.66480 5.41758   1
   2  -2  -4 5.29834 2.53164   1
  -2  -2   4 6.32703 3.88774   1
   2  -2  -4 7.23623 1.10049   2
  -2   2   4 4.83963 2.42514   1
   2   2  -4 0.49340 4.14331   1
  -2   2   4 7.08462 1.05726   3
   1  -2  -4 23.2627 3.81672   1
  -1  -2   4 18.7342 3.65973   1
   1  -2  -4 18.9120 1.82383   3
   1  -2  -4 19.2302 1.54204   2
  -1  -2   4 17.6814 1.83190   2
  -1   2   4 24.4495 1.57418   2
   1   2  -4 19.4460 1.37011   3
   1   2  -4 21.2125 1.31224   3
   1   2  -4 19.3487 1.84233   2
  -1   2   4 22.6205 3.56746   1
   0  -2  -4 392.588 23.9548   2
   0  -2   4 414.493 24.7585   1
   0  -2  -4 408.453 25.4230   1
   0  -2  -4 424.317 24.1239   3
   0  -2   4 396.161 24.0809   2
   0  -2  -4 416.624 25.4726   1
   0   2  -4 411.063 24.0791   2
   0   2   4 401.639 24.1416   3
   0   2  -4 366.084 24.0863   3
  -1  -2  -4 61.4248 5.46081   1
  -1  -2  -4 58.9048 3.89390   3
  -1   2  -4 58.3159 3.79771   1
  -1   2  -4 56.6388 4.39089   1
   1   2   4 55.4465 3.87375   3
  -1   2  -4 56.7152 4.19519   3
  -1   2  -4 59.7304 3.82147   2
   1   2   4 55.0389 5.50956   1
  -2  -2  -4 566.387 31.1782   2
  -2  -2  -4 545.228 31.2567   3
  -2  -2  -4 512.475 32.5522   1
   2   2   4 532.458 31.2070   3
  -2   2  -4 522.575 31.4404   1
  -2   2  -4 456.450 31.4767   3
  -2   2  -4 498.096 31.2947   2
   2   2   4 530.790 32.8552   1
  -3  -2  -4 566.804 32.4648   2
  -3  -2  -4 560.067 34.2809   1
   3  -2   4 550.456 32.8444   1
  -3  -2  -4 583.275 32.5279   3
   3  -2   4 469.320 32.8770   3
  -3   2  -4 481.623 33.4883   1
   3   2   4 558.814 32.4400   3
   3   2   4 545.643 34.5329   1
  -4  -2  -4 7.46781 1.67710   3
   4  -2   4 6.00355 2.44966   1
  -4  -2  -4 1.85583 1.16919   2
  -4  -2  -4 6.84038 3.33815   1
   4  -2   4 6.43130 1.97158   3
  -4   2  -4 2.86230 1.11895   2
  -4   2  -4 3.48470 2.34318   3
   4   2   4 2.45814 3.71340   1
  -4   2  -4 0.01916 3.12220   1
   5  -2   4 128.615 10.6487   1
  -5  -2  -4 101.387 7.49662   2
  -5  -2  -4 103.123 7.93489   3
   5  -2   4 99.6210 8.25163   3
  -5  -2  -4 104.706 11.0696   1
  -5   2  -4 90.6830 11.5607   1
   5   2   4 109.018 7.59507   3
   5   2   4 119.601 13.0103   1
  -5   2  -4 108.783 7.33448   2
  -5   2  -4 104.611 8.85075   3
   6  -2   4 855.851 54.0126   1
  -6  -2  -4 763.545 50.8570   2
  -6  -2  -4 865.918 54.7108   1
   6  -2   4 898.001 51.6182   3
  -6  -2  -4 802.366 51.3155   3
   6   2   4 849.823 56.0140   1
  -6   2  -4 807.842 50.7269   2
  -6   2  -4 922.899 52.3829   3
   6   2   4 848.307 50.8923   3
  -6   2  -4 838.330 54.9728   1
  -7  -2  -4 19.5328 7.16044   1
   7  -2   4 13.5444 8.07366   1
  -7  -2  -4 14.5701 2.75235   2
   7  -2   4 27.2822 3.98310   3
   7   2   4 15.6358 10.5348   1
  -7   2  -4 21.2436 3.16239   2
   7   2   4 16.0165 2.70673   3
  -7   2  -4 23.0326 8.03274   1
  -8  -2  -4 633.844 40.9428   2
  -8   2  -4 685.286 40.8304   2
   8   2   4 681.686 41.0213   3
  -9  -2  -4 204.050 14.2030   2
  -9   2  -4 184.780 13.7330   2
   9   2   4 198.301 14.0626   3
 -10   2  -4 -0.2928 2.75031   2
  10   2   4 -5.8618 3.00134   3
 -11  -2  -4 68.6086 8.33172   2
 -11   2  -4 55.9909 7.85731   2
  11   2   4 63.8453 9.18373   3
 -12  -2  -4 200.497 15.8922   2
  12   2   4 223.072 16.7551   3
 -12   2  -4 193.551 15.7573   2
 -12  -3   4 42.7852 7.02246   2
 -12   3   4 63.2411 8.65041   2
 -11  -3   4 -3.7676 3.64615   2
 -10  -3   4 217.140 16.1286   2
 -10   3   4 201.304 15.1876   2
  -9  -3   4 318.668 21.2715   2
  -9  -3   4 258.937 35.6660   1
  -9   3   4 333.932 20.8406   2
  -8  -3   4 9.06889 10.6078   1
  -8  -3   4 -0.6484 2.62097   2
  -8  -3   4 4.16409 3.10735   3
  -8   3   4 1.73241 2.19504   2
   8   3  -4 -18.888 17.8751   1
  -8   3   4 6.44302 12.5946   1
  -7  -3   4 858.145 63.5382   1
  -7  -3   4 902.265 56.4959   3
  -7  -3   4 1030.62 57.4270   2
   7  -3  -4 966.992 57.1252   2
   7   3  -4 947.148 68.1590   1
  -7   3   4 861.030 64.4431   1
   7   3  -4 992.830 56.4962   3
  -6  -3   4 848.230 49.0807   2
  -6  -3   4 783.320 63.9119   1
   6  -3  -4 917.676 48.8925   2
  -6  -3   4 821.311 48.4605   3
   6   3  -4 730.255 58.0677   1
  -6   3   4 834.778 55.4045   1
   6   3  -4 812.911 48.2522   3
   6   3  -4 703.671 48.8102   2
  -6   3   4 766.800 48.8021   3
  -5  -3   4 -0.8833 6.15729   1
   5  -3  -4 -7.4969 5.78877   1
  -5  -3   4 0.12329 1.65816   2
  -5  -3   4 2.36130 1.04305   3
   5  -3  -4 1.61717 1.87977   2
  -5   3   4 -2.1943 1.31492   2
   5   3  -4 -0.3254 1.85239   2
   5   3  -4 2.66431 8.82328   1
   5   3  -4 2.80821 1.14478   3
  -5   3   4 3.60250 5.92111   1
  -4  -3   4 1780.42 99.6672   2
   4  -3  -4 1575.90 99.6733   2
   4  -3  -4 1749.07 102.448   1
  -4  -3   4 1513.31 103.961   1
  -4  -3   4 1740.94 98.9335   3
   4   3  -4 1508.72 104.755   1
   4   3  -4 1528.43 99.4443   2
  -4   3   4 1825.71 99.6681   3
  -4   3   4 1899.54 103.237   1
   4   3  -4 1599.60 98.9836   3
  -3  -3   4 1739.40 124.640   1
   3  -3  -4 2232.06 123.267   1
  -3  -3   4 2024.84 120.434   3
  -3  -3   4 2136.73 120.992   2
  -3   3   4 2056.99 120.686   2
   3   3  -4 1998.45 120.454   3
  -3   3   4 2097.78 121.003   3
  -3   3   4 2226.74 123.502   1
   3   3  -4 1910.77 125.161   1
   3   3  -4 1963.62 120.895   2
   2  -3  -4 33.7437 2.48443   2
  -2  -3   4 32.2492 2.76183   2
  -2  -3   4 30.3586 5.95882   1
   2  -3  -4 32.0646 5.40759   1
  -2   3   4 36.7738 2.86447   3
   2   3  -4 34.2213 2.14672   3
  -2   3   4 34.6299 2.34002   2
   2   3  -4 26.6664 5.82776   1
   2   3  -4 36.1839 2.80729   2
  -2   3   4 29.5957 5.20955   1
   1  -3  -4 3793.61 211.927   1
  -1  -3   4 3130.93 210.304   2
   1  -3  -4 3588.95 210.582   3
   1  -3  -4 3497.98 210.069   2
   1   3  -4 3627.25 210.299   2
  -1   3   4 3369.08 210.387   3
   1   3  -4 3646.44 212.316   1
  -1   3   4 3836.52 212.062   1
   0  -3   4 2462.70 154.385   2
   0  -3   4 2618.64 155.621   1
   0  -3  -4 2741.74 156.037   1
   0  -3  -4 2467.02 154.699   3
   0  -3  -4 2491.24 154.222   2
   0  -3  -4 2833.19 156.126   1
   0   3   4 2486.96 154.523   3
   0   3  -4 2661.52 154.405   2
   0   3  -4 2762.35 155.187   1
  -1  -3  -4 1.23216 2.02927   1
  -1   3  -4 0.58623 1.31818   3
   1   3   4 3.86974 2.26298   1
   1   3   4 4.36203 0.97067   3
  -2  -3  -4 2319.27 135.791   1
  -2  -3  -4 2313.63 134.085   3
  -2  -3  -4 2298.95 134.040   2
   2   3   4 2168.82 134.046   3
   2   3   4 2350.35 136.045   1
  -2   3  -4 2142.58 134.125   2
  -3  -3  -4 1932.84 111.169   3
   3  -3   4 1899.50 110.934   1
  -3  -3  -4 1864.21 111.151   2
  -3  -3  -4 1898.98 113.136   1
   3   3   4 1869.73 111.107   3
   3   3   4 1936.95 113.532   1
  -3   3  -4 1607.54 111.653   3
  -3   3  -4 1981.59 111.138   1
  -4  -3  -4 17.7146 2.85509   3
   4  -3   4 22.8294 3.96881   1
  -4  -3  -4 20.4014 2.73832   2
  -4  -3  -4 17.7354 4.42940   1
   4   3   4 18.6247 2.40320   3
  -4   3  -4 25.1070 2.44178   2
  -4   3  -4 13.8378 3.93760   1
   4   3   4 36.0675 6.08736   1
  -4   3  -4 20.9484 3.63083   3
   5  -3   4 1308.49 76.5904   1
  -5  -3  -4 1264.30 75.3503   3
  -5  -3  -4 1179.59 77.9405   1
  -5  -3  -4 1111.45 75.1597   2
   5   3   4 1262.85 79.0912   1
   5   3   4 1241.51 75.1147   3
  -5   3  -4 1258.09 77.9514   1
  -5   3  -4 1437.45 76.4262   3
  -5   3  -4 1271.38 75.0179   2
  -6  -3  -4 628.455 41.8632   1
  -6  -3  -4 579.782 37.9132   2
   6  -3   4 634.503 40.6165   1
  -6  -3  -4 662.533 39.0505   3
   6   3   4 624.265 43.9676   1
   6   3   4 622.757 37.8408   3
  -6   3  -4 607.563 37.6798   2
  -7  -3  -4 1.42919 6.87713   1
   7  -3   4 9.56240 7.55212   1
  -7  -3  -4 0.77445 2.05214   2
  -7   3  -4 -1.2401 7.67455   1
  -7   3  -4 -0.7942 1.50613   2
   7   3   4 0.01720 10.9502   1
   7   3   4 1.78634 1.92999   3
  -8  -3  -4 199.656 14.5557   2
   8   3   4 221.975 14.4834   3
  -8   3  -4 206.378 14.1080   2
  -9  -3  -4 130.709 10.9921   2
  -9   3  -4 139.197 10.5340   2
   9   3   4 136.005 10.8615   3
 -10  -3  -4 0.33763 4.27788   2
  10   3   4 -2.0298 3.16476   3
 -10   3  -4 0.49854 2.85922   2
 -11  -3  -4 25.1353 5.15168   2
 -11   3  -4 24.4243 4.53680   2
  11   3   4 29.4295 5.61092   3
 -12  -4   4 40.3276 6.70335   2
 -11  -4   4 29.7557 5.49756   2
 -11   4   4 32.7641 7.35349   2
 -10   4   4 86.3096 8.92547   2
  -9  -4   4 190.248 15.0197   2
  -9   4   4 203.257 14.0135   2
  -8  -4   4 21.0127 4.13696   2
  -8  -4   4 18.6313 3.64497   3
  -8  -4   4 13.5475 11.7432   1
   8   4  -4 12.2649 19.8563   1
  -8   4   4 22.2761 3.35311   2
   8   4  -4 19.1494 2.83306   3
  -7  -4   4 270.441 16.8011   3
   7  -4  -4 284.206 17.7991   2
  -7  -4   4 235.448 25.9124   1
  -7  -4   4 289.243 18.0663   2
   7   4  -4 190.960 34.8455   1
  -7   4   4 283.092 28.3848   1
   7   4  -4 243.204 16.5856   3
   6  -4  -4 46.2455 11.4828   1
   6  -4  -4 84.4361 6.90697   2
  -6  -4   4 60.7811 11.3780   1
  -6  -4   4 76.1474 7.00633   2
  -6  -4   4 81.1459 5.61972   3
  -6   4   4 76.8269 12.2385   1
   6   4  -4 48.5925 14.8317   1
   6   4  -4 68.1734 5.48059   3
  -6   4   4 77.2370 6.84899   3
  -6   4   4 74.2640 7.07803   3
  -5  -4   4 37.3013 4.12948   2
   5  -4  -4 19.6196 12.3591   1
  -5  -4   4 34.0477 2.84610   3
   5  -4  -4 28.4278 3.89808   2
  -5  -4   4 24.6790 8.06770   1
   5   4  -4 27.7916 4.54705   2
   5   4  -4 34.8813 2.89285   3
   5   4  -4 15.8785 16.9881   1
  -5   4   4 27.8667 7.40683   1
  -5   4   4 32.3238 3.99582   3
  -5   4   4 33.7488 3.57317   2
  -4  -4   4 14.6098 6.47368   1
  -4  -4   4 21.6417 3.42887   2
   4  -4  -4 15.2729 2.18902   2
  -4   4   4 11.9614 5.03219   1
  -4   4   4 16.0833 2.51679   2
   4   4  -4 18.0877 1.90503   3
   4   4  -4 12.9291 2.45877   2
  -4   4   4 18.4694 2.74352   3
   4   4  -4 31.6831 9.29768   1
  -3  -4   4 6.63433 0.90802   3
   3  -4  -4 2.04409 3.57281   1
   3  -4  -4 8.37620 1.35545   2
  -3  -4   4 9.92548 1.73674   2
  -3   4   4 2.95787 3.26813   1
  -3   4   4 3.96554 0.92813   2
   3   4  -4 5.96499 5.41084   1
   2  -4  -4 4.53968 0.90123   2
  -2  -4   4 7.72485 4.41391   1
  -2  -4   4 5.08795 1.11183   2
   2  -4  -4 3.52964 3.05065   1
  -2   4   4 4.76407 2.83272   1
   2   4  -4 10.2049 1.45112   2
  -2   4   4 7.88530 0.82283   2
  -2   4   4 5.96203 1.32595   3
   2   4  -4 7.68969 0.92052   3
   2   4  -4 2.84618 3.64690   1
   1  -4  -4 3.98327 2.66143   1
   1  -4  -4 4.57662 0.56958   2
  -1  -4   4 3.32272 1.10346   2
   1  -4  -4 7.58073 1.42076   3
   1  -4  -4 1.51746 2.75975   1
  -1  -4   4 -1.1274 3.58944   1
   1   4  -4 3.03003 0.69861   3
   1   4  -4 7.45042 2.59146   1
   1   4  -4 4.90476 1.24171   2
   0  -4  -4 89.8643 4.99882   2
   0  -4  -4 82.1065 5.44718   3
   0  -4  -4 66.6188 7.47470   1
   0  -4  -4 78.7237 4.83512   2
   0  -4  -4 80.2234 7.61770   1
   0   4   4 77.3106 5.44898   3
   0   4  -4 79.5196 6.00912   1
   0   4  -4 75.5335 5.19192   2
   0   4  -4 75.2638 5.10141   3
  -1  -4  -4 0.96385 0.80049   2
  -1  -4  -4 2.01355 2.74066   1
   1   4   4 1.64474 2.68861   1
  -1   4  -4 1.59399 0.89428   2
   1   4   4 0.40653 0.96330   3
  -1   4  -4 1.68739 1.91106   3
  -2  -4  -4 117.506 10.1060   1
  -2  -4  -4 122.970 7.77873   2
  -2  -4  -4 124.642 7.79261   3
   2   4   4 127.840 10.8930   1
  -2   4  -4 121.706 7.55522   2
  -2   4  -4 96.7734 8.65982   3
   2   4   4 117.776 7.73788   3
  -3  -4  -4 679.965 40.5332   3
  -3  -4  -4 670.768 42.8215   1
  -3  -4  -4 654.132 40.5515   2
   3   4   4 679.762 43.3940   1
  -3   4  -4 693.473 40.3130   2
   3   4   4 693.319 40.4709   3
  -3   4  -4 648.081 41.3985   3
   4  -4   4 4.03625 1.67057   1
  -4  -4  -4 5.39948 4.13204   1
  -4  -4  -4 5.20980 1.96445   3
  -4  -4  -4 4.68267 1.65080   2
   4   4   4 6.55695 1.51963   3
  -4   4  -4 5.39379 1.61658   1
  -4   4  -4 5.48398 1.35993   2
  -4   4  -4 8.64543 3.27966   3
   4   4   4 9.11109 5.40580   1
  -5  -4  -4 489.174 34.2151   1
  -5  -4  -4 480.331 30.6861   3
   5  -4   4 530.480 31.6495   1
  -5  -4  -4 428.787 30.5858   2
   5   4   4 479.157 35.3974   1
  -5   4  -4 512.680 31.7405   1
  -5   4  -4 579.367 32.4232   3
  -5   4  -4 508.441 30.3411   2
   5   4   4 497.314 30.4688   3
  -6  -4  -4 278.117 22.7142   1
   6  -4   4 274.923 23.4660   1
  -6  -4  -4 258.871 17.8710   2
   6   4   4 290.695 17.6541   3
  -6   4  -4 289.503 17.4864   2
  -6   4  -4 246.466 20.6833   1
   6   4   4 296.662 26.0502   1
  -7  -4  -4 -0.1465 7.97033   1
  -7  -4  -4 3.49658 2.47200   2
   7  -4   4 1.63325 8.52233   1
  -7   4  -4 2.14124 1.73082   2
   7   4   4 8.36621 12.1994   1
  -7   4  -4 6.74549 7.19328   1
  -8  -4  -4 217.373 14.5713   2
   8   4   4 199.263 14.1157   3
  -8   4  -4 198.127 13.8976   2
  -9  -4  -4 408.126 24.7065   2
   9   4   4 363.584 24.3365   3
  -9   4  -4 355.777 24.0064   2
 -10  -4  -4 0.15493 3.28365   2
 -10   4  -4 0.26413 3.32295   2
 -11  -4  -4 219.035 15.3066   2
 -11   4  -4 176.677 14.2487   2
  11   4   4 174.450 14.7798   3
 -11  -5   4 -4.4658 4.35125   2
 -11   5   4 3.46144 6.31264   2
 -11   5   4 2.01979 4.12593   3
 -10  -5   4 257.683 19.1299   2
 -10   5   4 263.079 17.9021   2
  -9  -5   4 69.0034 8.52272   2
  -9   5   4 46.0213 6.54482   3
   9   5  -4 40.4111 5.90508   3
  -8  -5   4 4.02011 12.4773   1
  -8  -5   4 3.95549 3.08780   3
  -8  -5   4 -0.2317 2.93951   2
   8   5  -4 -1.9098 1.93991   3
  -8   5   4 6.24529 3.47157   3
  -8   5   4 1.49359 2.38678   2
   8   5  -4 -23.116 21.0223   1
   7  -5  -4 143.565 11.5817   2
  -7  -5   4 151.821 10.3073   3
  -7  -5   4 170.296 12.0210   2
  -7  -5   4 126.999 20.8703   1
   7   5  -4 105.176 22.4257   1
   7   5  -4 152.200 10.0557   3
  -7   5   4 149.394 12.2168   3
  -7   5   4 127.878 22.3713   1
  -6  -5   4 1124.13 65.3134   2
  -6  -5   4 898.775 70.9413   1
   6  -5  -4 1066.39 64.7386   2
  -6  -5   4 1080.58 64.2798   3
   6   5  -4 1096.61 64.2586   3
  -6   5   4 1061.27 65.4874   3
   6   5  -4 1047.18 74.7042   1
  -6   5   4 1217.71 64.7893   2
   5  -5  -4 -4.7724 6.61176   1
   5  -5  -4 2.60282 1.91513   2
  -5  -5   4 4.82667 1.33092   3
  -5  -5   4 1.48677 7.21804   1
  -5  -5   4 0.78028 2.02480   2
   5   5  -4 8.79624 2.89249   2
   5   5  -4 2.30262 1.53217   3
   5   5  -4 3.65651 9.61417   1
  -5   5   4 6.44711 6.60283   1
  -5   5   4 1.80309 1.53193   2
  -5   5   4 3.95117 2.50669   3
  -4  -5   4 2427.63 139.304   2
   4  -5  -4 2380.67 138.826   2
  -4  -5   4 2394.99 138.701   3
  -4  -5   4 2050.52 143.624   1
  -4   5   4 2381.48 139.527   3
   4   5  -4 2365.57 138.623   3
  -4   5   4 2371.43 138.735   2
   4   5  -4 2374.87 144.392   1
  -4   5   4 2342.49 142.212   1
  -3  -5   4 235.121 13.7742   3
  -3  -5   4 237.748 14.2478   2
  -3  -5   4 210.963 19.2060   1
  -3   5   4 227.855 14.5595   3
  -3   5   4 224.200 13.5069   2
   3   5  -4 233.097 13.6379   3
   3   5  -4 199.408 14.2831   2
   3   5  -4 240.191 19.2193   1
  -3   5   4 214.680 17.1232   1
   2  -5  -4 5.14750 3.76098   1
  -2  -5   4 10.7389 1.48597   2
   2  -5  -4 3.38533 3.75517   1
  -2   5   4 5.91019 1.61076   3
   2   5  -4 8.40709 1.61640   2
   2   5  -4 8.14452 1.26274   3
   1  -5  -4 549.200 36.1512   1
  -1  -5   4 581.065 33.4978   2
   1  -5  -4 550.104 35.7032   1
   1  -5  -4 577.220 33.7241   3
  -1  -5   4 532.730 36.6824   1
   1   5  -4 568.818 33.3646   3
   1   5  -4 568.492 35.3015   1
   1   5  -4 550.768 33.5442   2
  -1   5   4 553.085 33.7881   3
   0  -5   4 2602.80 160.424   2
   0  -5  -4 2778.90 162.752   1
   0  -5   4 2400.09 162.406   1
   0  -5  -4 2937.40 160.729   3
   0  -5  -4 2601.22 160.131   2
   0  -5  -4 2843.49 162.812   1
   0   5  -4 2868.86 161.269   1
   0   5   4 2698.64 160.727   3
   0   5  -4 2699.19 160.512   2
  -1  -5  -4 8.93171 3.55462   1
   1  -5   4 10.6670 3.39095   1
  -1  -5  -4 9.90592 1.49739   2
   1  -5   4 14.9579 2.17042   1
  -1  -5  -4 15.7016 2.42075   3
   1   5   4 12.7002 3.99067   1
   1   5   4 16.0571 2.31281   3
  -1   5  -4 18.6200 1.84095   2
  -2  -5  -4 2951.92 169.795   1
  -2  -5  -4 2956.02 167.392   3
   2   5   4 2863.75 167.360   3
   2   5   4 2917.92 170.023   1
  -2   5  -4 2801.10 167.087   2
  -2   5  -4 2470.87 167.918   3
  -3  -5  -4 177.060 11.5427   3
  -3  -5  -4 174.309 14.7011   1
   3   5   4 169.323 15.4541   1
  -3   5  -4 173.056 11.0538   2
   3   5   4 176.548 11.3140   3
  -3   5  -4 182.766 12.9296   3
  -4  -5  -4 25.2883 3.28636   3
  -4  -5  -4 22.5444 3.69051   2
  -4  -5  -4 35.0510 6.46775   1
  -4   5  -4 30.3447 5.07175   3
  -4   5  -4 36.8158 3.06883   2
  -4   5  -4 29.4419 3.25334   2
   4   5   4 27.2706 7.20026   1
   4   5   4 31.5175 3.28004   3
   5  -5   4 189.908 12.2789   1
  -5  -5  -4 168.574 17.1426   1
  -5  -5  -4 158.976 12.4215   2
  -5   5  -4 202.094 11.9794   2
   5   5   4 201.606 12.1657   3
  -5   5  -4 177.448 12.0146   2
   5   5   4 172.333 19.2428   1
   6  -5   4 960.350 55.9774   1
  -6  -5  -4 830.094 55.0456   2
  -6  -5  -4 880.852 59.5308   1
   6   5   4 952.380 54.8081   3
  -6   5  -4 939.528 54.6189   2
  -6   5  -4 909.252 55.5532   1
   6   5   4 880.008 61.4680   1
   7  -5   4 0.94745 6.63035   1
  -7  -5  -4 7.11178 2.88078   2
   7   5   4 10.0311 14.8854   1
  -7   5  -4 3.10419 1.97337   2
  -7   5  -4 9.77512 6.05793   1
   7   5   4 2.28517 2.18553   3
  -8  -5  -4 244.572 16.2084   2
   8   5   4 231.184 15.5412   3
  -8   5  -4 214.523 15.2309   2
  -9  -5  -4 20.4456 4.61691   2
  -9   5  -4 15.8868 3.75666   2
   9   5   4 7.52092 3.85939   3
 -10  -5  -4 4.97725 3.73310   2
  10   5   4 2.75272 3.53395   3
 -11  -5  -4 12.4318 5.32036   2
 -11   5  -4 0.33360 3.97493   2
  11   5   4 -0.4556 4.54198   3
 -11  -6   4 11.2083 5.22847   2
 -11   6   4 25.4685 7.03100   2
 -11   6   4 19.5931 5.31700   3
 -10  -6   4 6.69091 4.90621   2
 -10   6   4 -3.2118 4.85114   3
  -9  -6   4 112.186 10.4770   2
  -9   6   4 102.755 8.72478   2
  -9   6   4 94.6128 10.8927   3
   9   6  -4 80.5448 8.02614   3
  -8  -6   4 1.82715 3.33931   2
  -8  -6   4 12.2351 24.2802   1
   8   6  -4 -1.9185 2.06236   3
  -8   6   4 1.54455 2.54041   2
  -8   6   4 -3.9771 3.37470   3
   8   6  -4 18.0246 24.9528   1
  -7  -6   4 319.701 20.2244   2
  -7  -6   4 298.288 18.8990   3
  -7  -6   4 249.714 30.9047   1
   7   6  -4 251.502 40.4418   1
  -7   6   4 288.610 20.3775   3
   7   6  -4 315.780 18.6261   3
  -6  -6   4 1.11942 2.66628   2
   6  -6  -4 -14.858 16.0749   1
  -6  -6   4 2.10648 9.78313   1
  -6  -6   4 0.59611 1.92936   3
   6   6  -4 -0.2893 1.56012   3
  -6   6   4 -0.3197 1.80950   2
   6   6  -4 -5.9990 13.4198   1
  -6   6   4 1.55284 8.26224   1
  -6   6   4 2.12772 3.11159   3
  -5  -6   4 18.6771 2.87109   3
  -5  -6   4 14.5219 2.83013   2
   5  -6  -4 20.7465 7.95406   1
  -5  -6   4 16.8201 8.56008   1
   5   6  -4 16.7808 2.29926   3
  -5   6   4 10.1278 6.37231   1
  -5   6   4 10.7816 3.00844   3
   5   6  -4 4.26100 4.13763   2
  -5   6   4 20.5290 2.61918   2
   5   6  -4 7.66104 10.4847   1
  -4  -6   4 2.17994 2.05003   2
  -4  -6   4 2.42505 6.93615   1
   4  -6  -4 3.85598 5.88277   1
  -4   6   4 2.11715 0.84068   2
   4   6  -4 -0.3354 2.64902   2
   4   6  -4 -2.3018 7.20746   1
  -4   6   4 0.66930 5.17552   1
  -4   6   4 0.46449 2.38617   3
  -3  -6   4 20.9998 7.31141   1
  -3  -6   4 24.0283 3.05441   2
   3   6  -4 22.1477 6.40706   1
   3   6  -4 18.2583 2.48992   3
  -3   6   4 19.6707 2.96056   3
   3   6  -4 19.8742 2.85821   2
   2  -6  -4 2.33479 4.28426   1
   2  -6  -4 6.61631 4.57049   1
  -2  -6   4 1.20252 1.10562   2
  -2  -6   4 -3.0545 5.35836   1
  -2   6   4 4.96292 1.70009   3
   2   6  -4 1.79103 1.54549   2
   2   6  -4 0.90954 3.86877   1
   1  -6  -4 12.5157 4.53503   1
  -1  -6   4 26.9421 2.53890   2
   1  -6  -4 23.3301 3.27604   3
   1  -6  -4 20.6854 5.04132   1
  -1  -6   4 25.7732 5.89588   1
   1   6  -4 24.8926 2.44681   3
   1   6  -4 19.5750 2.86839   2
   1   6  -4 32.0962 6.03343   1
   0  -6  -4 1.20549 1.76429   3
   0  -6  -4 -1.5245 3.67884   1
   0  -6   4 3.67936 1.17404   2
   0  -6  -4 6.02530 4.24675   1
   0  -6   4 0.88552 4.04734   1
   0   6  -4 3.30285 2.40940   1
   0   6   4 1.71794 1.72082   3
   0   6  -4 0.96105 1.16617   3
   0   6  -4 0.81358 1.20789   2
   1  -6   4 3.00328 1.67160   1
   1  -6   4 0.78969 3.30249   1
  -1  -6  -4 -1.1266 3.76112   1
  -1  -6  -4 1.17920 0.89023   2
  -1   6  -4 1.67469 1.02475   2
   1   6   4 2.42773 1.40740   3
  -1   6  -4 2.85372 1.29947   3
  -2  -6  -4 44.5674 6.95074   1
  -2  -6  -4 55.0144 4.73194   3
   2   6   4 50.4447 4.38784   3
  -2   6  -4 52.2226 6.22465   3
  -2   6  -4 50.2708 3.88801   2
   2   6   4 57.1762 9.80541   1
  -3  -6  -4 594.496 39.6037   1
  -3  -6  -4 619.357 36.5201   3
  -3   6  -4 614.380 36.0184   2
   3   6   4 619.581 36.3803   3
   3   6   4 626.718 40.6173   1
  -3   6  -4 528.758 37.3307   3
  -4  -6  -4 25.8673 4.01217   2
  -4  -6  -4 31.7718 7.10998   1
  -4   6  -4 25.3506 2.97101   2
  -4   6  -4 26.5412 3.17088   2
   4   6   4 27.7275 3.41554   3
   4   6   4 12.4821 8.83208   1
  -5  -6  -4 387.457 25.4375   2
  -5  -6  -4 401.917 30.1858   1
   5   6   4 415.605 44.0552   1
   5   6   4 416.171 25.0832   3
  -5   6  -4 422.906 24.8428   2
  -5   6  -4 391.322 24.8679   2
  -6  -6  -4 17.4909 3.64495   2
  -6  -6  -4 4.33024 8.47832   1
   6   6   4 10.3588 3.06700   3
  -6   6  -4 11.7137 2.70946   2
  -6   6  -4 16.1275 3.65563   2
   6   6   4 16.1676 12.0604   1
   7  -6   4 6.45971 5.36619   1
  -7  -6  -4 -11.123 10.9203   1
  -7  -6  -4 4.29822 3.01082   2
  -7   6  -4 1.66868 1.97245   2
   7   6   4 3.82310 2.23775   3
  -8  -6  -4 44.3008 7.15977   2
  -8   6  -4 32.5608 5.43674   2
   8   6   4 37.3837 6.01569   3
   9   6   4 365.732 23.3198   3
  -9   6  -4 342.957 22.8514   2
 -10  -6  -4 7.49000 4.17904   2
 -10   6  -4 2.88556 3.89299   2
  10   6   4 3.45408 3.87342   3
 -10  -7   4 165.059 14.7667   2
 -10   7   4 170.443 12.9351   2
  10   7  -4 148.023 14.7111   3
 -10   7   4 164.152 15.0598   3
  -9  -7   4 13.8623 6.49663   2
  -9   7   4 9.26856 5.16125   3
   9   7  -4 8.19088 3.37423   3
  -9   7   4 5.14001 3.41344   2
  -8  -7   4 0.28033 3.43959   2
  -8   7   4 5.20935 2.70625   2
  -8   7   4 4.00441 4.34253   3
   8   7  -4 0.39897 2.38676   3
  -7  -7   4 18.0062 4.09961   2
   7   7  -4 8.90913 2.53412   3
  -7   7   4 15.5306 2.81556   2
  -7   7   4 13.2775 4.76868   3
  -6  -7   4 727.721 69.2961   1
  -6  -7   4 700.057 43.5708   3
  -6  -7   4 761.130 44.4898   2
  -6   7   4 703.106 45.0584   3
   6   7  -4 660.573 56.2017   1
   6   7  -4 760.782 43.3633   3
  -5  -7   4 4.03986 2.01836   3
  -5  -7   4 3.65548 2.39066   2
  -5  -7   4 -3.7555 9.91053   1
   5   7  -4 0.42643 1.30091   3
  -5   7   4 3.73229 2.90092   3
   5   7  -4 8.43796 11.3455   1
  -5   7   4 2.96527 0.98881   2
   4  -7  -4 1336.27 84.7570   1
  -4  -7   4 1314.23 80.9723   3
  -4  -7   4 1199.47 86.9995   1
  -4  -7   4 1444.29 81.3599   2
   4  -7  -4 1388.66 85.4231   1
  -4   7   4 1364.57 81.9154   3
   4   7  -4 1456.00 80.7814   3
   4   7  -4 1365.62 86.7490   1
   3  -7  -4 94.5472 12.2193   1
  -3  -7   4 66.9942 11.5905   1
  -3  -7   4 78.3765 6.03782   2
   3  -7  -4 71.4243 12.1577   1
   3   7  -4 73.6473 13.1937   1
   3   7  -4 80.1948 5.50483   3
   3   7  -4 73.7465 6.92598   2
  -3   7   4 86.3089 7.14044   3
   2  -7  -4 -0.4465 4.87454   1
  -2  -7   4 2.10538 6.65382   1
  -2  -7   4 2.30162 1.29296   2
   2  -7  -4 -2.7971 5.34366   1
   2   7  -4 3.91918 4.82990   1
   2   7  -4 8.85988 2.25611   2
   2   7  -4 0.05388 1.05942   3
  -2   7   4 4.72240 2.08348   3
  -1  -7   4 11.3406 5.93966   1
  -1  -7   4 17.5953 2.54145   2
   1  -7  -4 11.4129 5.13042   1
   1   7  -4 12.0931 4.24176   1
   1   7  -4 14.2408 1.97306   3
  -1   7   4 15.0577 2.76191   3
   1   7  -4 13.3290 2.29943   2
   0  -7  -4 1555.18 95.7601   1
   0  -7   4 1557.09 92.4920   2
   0  -7  -4 1530.62 95.6991   1
   0  -7  -4 1626.11 93.1867   3
   0  -7   4 1537.46 95.6966   1
   0   7  -4 1596.51 92.6555   2
   0   7   4 1550.73 93.0116   3
   0   7  -4 1533.16 92.6786   3
   0   7  -4 1560.27 93.8473   1
  -1  -7  -4 47.7085 7.50995   1
  -1  -7  -4 50.3743 3.26147   2
   1  -7   4 57.4875 8.74902   1
  -1  -7  -4 50.8886 3.22215   2
  -1  -7  -4 50.6636 5.58554   3
   1   7   4 48.7457 4.62009   3
  -1   7  -4 52.3079 4.01046   2
  -1   7  -4 50.6398 4.28201   3
  -2  -7  -4 1757.93 107.010   2
  -2  -7  -4 1773.42 110.561   1
  -2   7  -4 1854.83 107.510   3
  -2   7  -4 1845.77 107.023   2
  -2   7  -4 1703.92 108.192   3
   2   7   4 1885.67 107.486   3
   2   7   4 1818.53 111.042   1
  -3  -7  -4 71.2842 6.21347   2
  -3  -7  -4 92.9689 12.7831   1
   3   7   4 73.9872 13.6737   1
  -3   7  -4 74.7994 5.69040   2
   3   7   4 79.9192 6.49924   3
  -3   7  -4 89.9658 7.10136   3
  -4  -7  -4 2.16205 2.09218   2
  -4  -7  -4 10.0582 7.19184   1
  -4   7  -4 3.96922 1.73404   2
   4   7   4 2.28551 1.94189   3
   4   7   4 1.84360 8.43742   1
  -4   7  -4 4.84771 1.54477   2
  -5  -7  -4 10.0927 8.31829   1
  -5  -7  -4 16.0842 3.44075   2
   5   7   4 9.13375 2.81677   3
  -5   7  -4 14.7094 2.83463   2
   5   7   4 35.7044 11.7549   1
  -6  -7  -4 453.623 26.9833   2
  -6  -7  -4 406.242 34.0761   1
  -6   7  -4 408.029 26.9028   2
  -6   7  -4 415.450 25.8939   2
   6   7   4 344.621 38.7187   1
   6   7   4 448.020 26.2905   3
  -7  -7  -4 9.09830 3.75936   2
  -7   7  -4 6.02797 2.39258   2
   7   7   4 3.77035 2.52733   3
  -8  -7  -4 290.797 18.0020   2
   8   7   4 238.716 16.5912   3
  -8   7  -4 214.634 16.1621   2
  -9  -7  -4 2.13969 5.18109   2
  -9   7  -4 6.84381 3.52255   2
   9   7   4 -3.9637 3.66467   3
 -10  -7  -4 -5.6088 4.83227   2
  10   7   4 2.44337 4.15891   3
 -10   7  -4 2.49829 3.76564   2
 -10  -8   4 33.4409 6.94299   2
 -10   8   4 31.1209 7.27934   3
  -9  -8   4 22.6644 5.45377   2
   9   8  -4 23.4543 4.94131   3
  -9   8   4 27.3626 6.53162   3
  -8  -8   4 18.3476 4.74777   2
  -8   8   4 9.47507 2.99280   2
   8   8  -4 6.08214 2.97493   3
  -8   8   4 12.1483 5.31152   3
  -7  -8   4 143.973 12.0162   2
  -7   8   4 124.110 13.1268   3
   7   8  -4 161.064 10.2188   3
  -6  -8   4 3.14393 2.88802   2
   6   8  -4 6.37198 1.98718   3
  -6   8   4 3.93599 3.80719   3
  -5  -8   4 15.3342 3.01832   3
  -5   8   4 13.2616 3.76116   3
   5   8  -4 9.11086 1.85072   3
  -4  -8   4 21.7656 3.00274   2
  -4   8   4 18.4418 3.85527   3
   4   8  -4 7.81877 10.8410   1
   4   8  -4 6.59778 4.63691   2
   4   8  -4 17.8005 2.83469   3
  -3  -8   4 12.5627 13.3290   1
  -3  -8   4 19.5484 2.49522   2
   3  -8  -4 13.1357 8.70698   1
   3  -8  -4 15.6573 8.70972   1
   3   8  -4 18.1141 2.67080   3
   3   8  -4 13.0246 3.64607   2
   3   8  -4 13.1250 7.69457   1
  -3   8   4 20.5451 3.43668   3
  -2  -8   4 31.7503 3.04431   2
   2  -8  -4 27.8026 7.75306   1
  -2  -8   4 18.0902 9.49334   1
   2  -8  -4 19.6024 6.87937   1
   2   8  -4 33.2515 6.97769   1
  -2   8   4 31.7451 4.35918   3
   2   8  -4 31.3888 2.98681   3
   2   8  -4 21.8968 3.48457   2
   1  -8  -4 11.0373 6.28849   1
  -1  -8   4 9.10591 1.62513   2
   1  -8  -4 3.88658 6.77777   1
  -1  -8   4 28.0675 8.26675   1
   1   8  -4 7.99127 1.79212   3
   1   8  -4 5.04753 2.33693   2
   1   8  -4 7.70749 4.88544   1
   0  -8   4 11.6280 1.68155   2
   0  -8  -4 5.34243 6.25678   1
   0  -8   4 14.6044 7.17958   1
   0  -8  -4 17.1273 7.33064   1
   0   8  -4 12.7875 2.29578   2
   0   8   4 15.3174 2.68218   3
   0   8  -4 10.8568 2.02328   3
  -1  -8  -4 4.58683 7.33712   1
   1  -8   4 -3.3883 5.68821   1
   1  -8   4 0.07536 3.05110   1
  -1  -8  -4 1.70388 6.16112   1
   1   8   4 1.09530 1.87060   3
  -1   8  -4 -0.4900 1.52089   2
  -1   8  -4 6.76187 1.82271   3
  -2  -8  -4 7.20092 1.22567   2
   2  -8   4 2.45671 4.38281   1
   2  -8   4 6.77558 2.77545   1
  -2  -8  -4 7.76660 6.79889   1
  -2   8  -4 5.15809 1.72413   2
  -2   8  -4 4.60481 2.23275   3
   2   8   4 3.03236 2.31737   3
  -3  -8  -4 365.350 29.4379   1
  -3  -8  -4 389.379 23.3360   2
   3   8   4 347.206 30.4345   1
  -3   8  -4 395.216 24.1552   3
   3   8   4 408.319 23.8064   3
  -3   8  -4 365.591 23.1953   2
  -4  -8  -4 3.02999 2.16484   2
  -4  -8  -4 -9.2258 8.06669   1
   4   8   4 6.74506 2.32129   3
   4   8   4 0.85244 10.1942   1
  -4   8  -4 0.51491 2.61426   3
  -4   8  -4 2.13055 1.53059   2
  -4   8  -4 3.05445 1.95751   2
  -5  -8  -4 104.838 20.1888   1
  -5  -8  -4 109.940 9.14681   2
  -5   8  -4 110.109 8.44694   2
  -5   8  -4 112.149 8.06559   2
  -5   8  -4 119.940 10.5853   3
   5   8   4 135.499 24.6693   1
   5   8   4 118.635 8.69486   3
  -6  -8  -4 78.1084 8.06286   2
  -6  -8  -4 31.3302 14.6423   1
  -6   8  -4 65.4822 6.09185   2
   6   8   4 69.0187 6.82897   3
  -7  -8  -4 1.79176 3.56628   2
  -7   8  -4 0.08485 2.39480   2
   7   8   4 -0.5768 2.64901   3
  -8  -8  -4 31.8090 5.98931   2
  -8   8  -4 16.1043 3.68349   2
  -9   8  -4 184.487 13.5133   2
   9   8   4 178.398 13.9485   3
  -9  -9   4 56.7000 8.29244   2
  -9   9   4 55.2051 9.02814   3
  -8  -9   4 -1.4845 6.95102   2
   8   9  -4 4.19146 3.81970   3
  -8   9   4 0.49399 4.86687   3
  -7  -9   4 131.177 10.7653   2
   7   9  -4 107.049 8.56583   3
  -7   9   4 97.2263 11.8934   3
  -6  -9   4 211.896 15.6715   2
  -6   9   4 225.768 18.2527   3
   6   9  -4 236.853 14.5147   3
  -5  -9   4 -0.9095 2.38948   2
  -5   9   4 1.28241 3.60850   3
   5   9  -4 1.81281 1.75035   3
  -4  -9   4 466.257 29.0150   2
  -4   9   4 454.013 30.2384   3
   4   9  -4 492.608 28.6407   3
  -3  -9   4 222.356 14.1983   2
   3   9  -4 224.965 14.0616   3
  -3   9   4 220.142 15.3663   3
  -2  -9   4 0.47845 1.42271   2
   2   9  -4 2.03077 1.54377   3
   2   9  -4 -3.4274 3.34185   2
  -2   9   4 -2.2868 2.26275   3
  -1  -9   4 394.896 22.6349   2
  -1   9   4 384.335 23.6979   3
   1   9  -4 319.123 23.3469   2
   1   9  -4 389.078 22.9475   3
   0  -9   4 441.647 30.7470   1
   0   9  -4 493.348 28.7366   3
   0   9   4 505.783 29.2645   3
   0   9  -4 436.511 28.7297   2
   1  -9   4 8.23186 4.29906   1
   1   9   4 10.5045 2.64053   3
  -1   9  -4 6.90570 2.13612   3
  -1   9  -4 11.0717 2.47709   2
   2  -9   4 470.413 30.1151   1
  -2   9  -4 485.626 29.4465   2
  -2   9  -4 480.916 30.0380   3
   2   9   4 505.853 30.1168   3
  -3  -9  -4 202.727 12.8072   2
   3   9   4 164.277 25.4544   1
  -3   9  -4 225.504 12.9498   2
  -3   9  -4 202.318 13.1007   2
   3   9   4 196.785 13.6848   3
  -3   9  -4 203.053 14.1066   3
  -4  -9  -4 7.04822 2.10538   2
  -4   9  -4 5.12797 3.14432   2
   4   9   4 5.65684 2.57762   3
  -4   9  -4 6.19769 3.28572   3
  -4   9  -4 7.35641 1.89197   2
   4   9   4 -22.541 14.7511   1
  -5  -9  -4 157.483 11.4060   2
   5   9   4 151.045 11.3917   3
  -5   9  -4 149.408 10.4460   2
  -5   9  -4 169.346 13.1197   3
  -6  -9  -4 171.035 12.5380   2
  -6   9  -4 146.990 10.9780   2
  -6   9  -4 170.536 15.3268   3
   6   9   4 159.294 11.8340   3
  -7  -9  -4 14.2036 4.72464   2
  -7   9  -4 11.2008 3.04220   2
  -7   9  -4 7.33743 5.61100   3
  -8  -9  -4 84.1219 12.0012   2
   8   9   4 62.5888 7.78306   3
  -8   9  -4 42.8301 7.18585   2
  -8   9  -4 86.5758 11.9236   3
  -8 -10   4 18.3032 5.42095   2
  -8  10   4 32.9627 7.09180   3
  -7 -10   4 27.1149 5.40310   2
  -7  10   4 18.4921 6.16654   3
   7  10  -4 30.3091 6.23655   3
  -6 -10   4 4.14289 3.46367   2
   6  10  -4 5.03685 2.54758   3
  -6  10   4 3.27062 4.70472   3
  -5 -10   4 2.96248 2.57006   2
  -5  10   4 9.38802 4.62554   3
   5  10  -4 1.84674 2.06733   3
  -4 -10   4 43.6723 4.88088   2
   4  10  -4 42.2407 4.55233   3
  -4  10   4 42.3710 5.94903   3
  -3 -10   4 4.12365 1.88710   2
   3  10  -4 5.83678 2.02895   3
  -3  10   4 7.64323 3.35950   3
  -2 -10   4 36.9227 3.57275   2
   2  10  -4 30.9120 3.95926   3
  -2  10   4 33.7707 4.61180   3
  -1  10   4 -0.4559 2.83481   3
   1  10  -4 4.08698 5.19160   2
   1  10  -4 -2.7736 1.86798   3
   0  10   4 59.2953 5.99912   3
   0  10  -4 53.8005 5.32864   3
   0  10  -4 46.4209 6.81535   2
  -1  10  -4 10.0713 3.35963   2
   1  10   4 6.96699 2.83380   3
  -1  10  -4 8.84338 2.47329   3
   2  10   4 7.24564 3.09017   3
  -2  10  -4 3.85845 2.58351   3
  -3 -10  -4 45.9352 3.97277   2
   3  10   4 50.6326 6.20516   3
  -3  10  -4 54.2308 4.51452   2
  -3  10  -4 52.9294 6.40344   3
  -4 -10  -4 12.5283 2.11362   2
  -4  10  -4 7.35144 2.07433   2
  -4  10  -4 9.81125 3.80754   3
   4  10   4 5.67722 3.00104   3
  -5 -10  -4 49.1441 5.74494   2
   5  10   4 49.1214 6.36410   3
  -5  10  -4 41.0120 4.92482   2
  -5  10  -4 45.0421 8.98319   3
  -6 -10  -4 122.169 10.2660   2
   6  10   4 126.156 10.7689   3
  -6  10  -4 128.887 12.6697   3
  -6  10  -4 101.355 9.13188   2
  -7 -10  -4 2.34824 4.49175   2
  -7  10  -4 4.71851 5.94258   3
   7  10   4 1.87628 3.47026   3
  -6 -11   4 21.3924 4.54364   2
  -6  11   4 38.1838 7.29479   3
  -5 -11   4 1.54001 2.74721   2
  -5  11   4 3.75526 4.60523   3
   5  11  -4 3.80212 2.57057   3
  -4 -11   4 46.1577 5.57041   2
  -4  11   4 65.1110 8.82452   3
   4  11  -4 51.1210 5.50156   3
  -3 -11   4 247.959 15.8527   2
  -3  11   4 252.839 17.8491   3
   3  11  -4 252.109 16.0818   3
  -2 -11   4 -0.0562 1.62714   2
   2  11  -4 3.02291 2.15899   3
   1  11  -4 355.186 22.0595   3
  -1  11   4 346.267 23.3592   3
   0  11  -4 32.4269 4.83155   3
   0  11   4 28.4205 4.58586   3
   1  11   4 7.84254 3.23224   3
  -1  11  -4 2.63083 2.65155   3
   2  11   4 87.1142 7.93396   3
  -2  11  -4 62.3809 7.52114   3
   3  11   4 188.035 15.6869   3
  -3  11  -4 177.504 13.4813   3
  -4  11  -4 -1.4260 4.54120   3
   4  11   4 5.19139 3.44897   3
  -5  11  -4 170.903 14.8361   3
   5  11   4 184.142 13.3472   3
  -6  11  -4 10.2072 6.13343   3
   6  11   4 12.5166 4.38181   3
  -5  12   4 -0.6235 5.19921   3
   4  12  -4 36.3376 5.48631   3
  -4  12   4 26.9550 6.14979   3
  -3  12   4 4.48061 4.26816   3
   3  12  -4 5.46209 2.88755   3
  -2  12   4 22.8757 4.55726   3
   2  12  -4 25.0689 3.53819   3
  -1  12   4 3.68646 3.76406   3
   1  12  -4 2.42053 2.84625   3
   0  12  -4 48.3111 6.13087   3
   0  12   4 45.0835 5.70097   3
  -1  12  -4 3.36725 2.95865   3
   1  12   4 2.30615 3.30805   3
   2  12   4 -0.3458 3.50953   3
   3  12   4 -0.0111 3.65250   3
  -3  12  -4 1.20450 3.85995   3
   4  12   4 12.8269 4.11293   3
  -4  12  -4 9.94625 4.63384   3
  -1  13   4 178.519 14.4207   3
   0  13   4 3.56362 4.12667   3
   0  13  -4 0.72540 3.78433   3
   1  13   4 -2.6618 3.81201   3
  -1  13  -4 -1.1220 3.54176   3
 -11   0   5 99.0162 9.63309   2
  -9   0   5 539.198 33.9184   2
  -8   0   5 1.18735 2.57902   2
   8   0  -5 18.6615 14.3993   1
  -8   0   5 -4.0358 2.72347   3
  -8   0   5 2.98624 10.1713   1
  -7   0   5 1529.85 93.4967   2
  -7   0   5 1523.99 100.668   1
   7   0  -5 1594.06 101.600   1
  -7   0   5 1591.56 93.1557   3
  -6   0   5 8.93005 2.24469   3
   6   0  -5 4.16848 9.38200   1
  -6   0   5 12.3400 2.78337   2
  -6   0   5 15.9346 8.06315   1
   6   0  -5 10.8804 2.78799   2
  -5   0   5 193.107 18.9317   1
   5   0  -5 150.852 11.3692   2
  -5   0   5 190.849 11.7388   2
   5   0  -5 192.818 19.9010   1
  -4   0   5 5.30898 5.60389   1
   4   0  -5 7.63624 1.67732   2
   4   0  -5 1.72793 5.68498   1
  -4   0   5 2.55426 1.61595   2
  -4   0   5 5.23135 1.25430   3
  -3   0   5 668.081 37.5044   2
  -3   0   5 618.984 41.1025   1
   3   0  -5 614.271 37.3640   2
  -3   0   5 631.935 37.1745   3
   3   0  -5 584.454 40.7602   1
   2   0  -5 8.66601 1.44543   2
  -2   0   5 11.8255 1.06446   3
   2   0  -5 3.09729 2.97817   1
  -2   0   5 6.40911 2.93815   1
  -1   0   5 697.846 43.0640   3
   1   0  -5 726.697 43.1713   2
  -1   0   5 765.051 44.7153   1
   1   0  -5 715.577 43.0411   3
   1   0  -5 736.476 44.7129   1
  -1   0   5 723.656 43.2011   2
   0   0   5 3.21187 0.69941   2
   0   0  -5 2.69404 0.59521   3
   0   0   5 3.16024 0.66877   3
   0   0   5 2.04891 1.37543   1
   0   0  -5 2.79470 0.70217   2
   0   0  -5 0.57699 1.47671   1
  -1   0  -5 17.5221 2.96857   1
  -1   0  -5 23.5398 1.81657   3
  -1   0  -5 19.9202 1.74757   2
   1   0   5 19.1651 1.81678   3
  -1   0  -5 15.6458 3.03331   1
  -2   0  -5 0.22289 1.57440   1
   2   0   5 1.71973 1.58361   1
   2   0   5 -0.0872 1.72556   3
  -3   0  -5 67.4646 5.01340   3
   3   0   5 71.7015 6.59536   1
   3   0   5 70.4688 5.07360   3
  -3   0  -5 62.0759 6.30828   1
  -4   0  -5 12.9835 2.03399   2
   4   0   5 20.4157 2.77186   3
  -5   0  -5 252.923 18.3571   1
  -5   0  -5 235.883 15.3335   2
  -5   0  -5 233.383 16.0347   3
   5   0   5 241.150 15.6296   3
   5   0   5 260.472 18.6492   1
   6   0   5 2.57935 2.19026   3
  -6   0  -5 0.36146 1.85636   2
   6   0   5 -2.8177 5.54040   1
  -6   0  -5 0.58988 3.55812   3
  -6   0  -5 1.71617 5.11280   1
   7   0   5 42.1267 4.62825   3
  -7   0  -5 40.1127 8.40949   1
  -7   0  -5 39.1870 4.20397   2
   7   0   5 24.4331 9.33470   1
   8   0   5 8.38818 3.40610   3
  -8   0  -5 3.72384 2.80514   2
   9   0   5 291.258 19.1564   3
  -9   0  -5 265.426 18.4420   2
  10   0   5 2.41804 5.35038   3
  11   0   5 324.869 20.7604   3
 -11   0  -5 249.426 19.4613   2
 -12  -1   5 49.2682 6.81477   2
 -12   1   5 40.7847 6.04380   2
 -11  -1   5 -0.7169 3.75092   2
 -11   1   5 0.22208 4.05511   2
 -10  -1   5 181.839 13.9379   2
 -10   1   5 169.261 13.4442   2
  -9  -1   5 23.6254 4.58629   2
  -9   1   5 19.0083 4.24577   2
  -8  -1   5 -3.6119 10.3003   1
  -8  -1   5 1.25406 2.96792   3
   8  -1  -5 -0.5184 13.0198   1
  -8  -1   5 3.61836 2.77738   2
  -8   1   5 5.08853 2.75473   2
  -8   1   5 5.98053 10.8243   1
  -8   1   5 10.5660 3.38134   3
   8   1  -5 -14.776 14.6428   1
  -7  -1   5 62.2623 13.0973   1
   7  -1  -5 63.2182 14.7622   1
  -7  -1   5 97.7303 8.02054   2
  -7  -1   5 86.5574 7.03624   3
  -7   1   5 66.5847 6.95492   3
  -7   1   5 61.5007 13.5938   1
   7   1  -5 79.7671 15.9167   1
  -6  -1   5 891.865 55.9820   2
  -6  -1   5 1057.63 63.5335   1
   6  -1  -5 803.721 55.6339   2
  -6  -1   5 1045.17 55.6012   3
   6  -1  -5 827.863 62.0228   1
   6   1  -5 1027.77 64.3494   1
  -6   1   5 929.561 63.0134   1
  -6   1   5 936.065 55.9204   2
  -6   1   5 850.234 55.5651   3
  -5  -1   5 4.29578 6.80956   1
  -5  -1   5 12.8863 1.84861   3
  -5  -1   5 11.1346 2.14015   2
   5  -1  -5 10.3983 2.09187   2
   5  -1  -5 6.42770 7.37524   1
   5   1  -5 11.8715 9.07292   1
  -5   1   5 8.66026 1.95782   2
  -5   1   5 10.1740 1.85465   3
   5   1  -5 10.9569 2.17825   2
  -5   1   5 17.1985 6.99301   1
  -4  -1   5 4059.36 234.078   1
  -4  -1   5 4059.90 228.589   2
   4  -1  -5 3465.11 228.269   2
  -4  -1   5 3833.61 228.149   3
   4  -1  -5 3676.01 231.826   1
  -4   1   5 4290.33 233.363   1
   4   1  -5 3801.71 233.578   1
   4   1  -5 3650.12 228.346   2
  -4   1   5 3935.06 228.465   2
  -3  -1   5 253.132 21.6273   1
  -3  -1   5 293.925 17.5771   2
  -3  -1   5 295.170 17.0805   3
   3  -1  -5 297.881 20.7835   1
  -3  -1   5 266.336 17.1810   3
   3   1  -5 286.702 17.4914   2
  -3   1   5 302.258 21.0238   1
  -3   1   5 291.111 17.3673   3
  -2  -1   5 129.575 9.27911   2
  -2  -1   5 161.862 12.5838   1
   2  -1  -5 148.287 8.92081   3
   2  -1  -5 155.921 9.01479   2
  -2  -1   5 145.326 8.68596   3
   2  -1  -5 148.096 11.2943   1
   2   1  -5 128.994 12.3819   1
  -2   1   5 144.896 11.3009   1
  -2   1   5 151.741 9.02792   2
  -2   1   5 142.380 8.96212   3
  -1  -1   5 365.573 20.8980   3
   1  -1  -5 361.297 21.0022   3
   1  -1  -5 352.478 22.6246   1
  -1  -1   5 343.280 22.5975   1
   1  -1  -5 368.108 21.0189   2
  -1   1   5 340.601 21.0192   2
  -1   1   5 357.344 22.6509   1
  -1   1   5 341.832 21.0246   3
   1   1  -5 349.131 20.8229   3
   1   1  -5 326.702 23.0018   1
   1   1  -5 354.514 21.0794   2
   0  -1  -5 4393.51 275.710   2
   0  -1   5 4827.86 276.600   1
   0  -1  -5 4569.83 275.748   3
   0  -1  -5 4895.56 277.086   1
   0   1  -5 4833.79 276.857   1
   0   1  -5 4567.93 275.772   2
   0   1   5 4877.60 277.072   1
   0   1   5 4415.44 275.775   3
  -1  -1  -5 69.6131 6.07273   1
  -1  -1  -5 72.0363 4.60811   3
  -1  -1  -5 74.0643 4.53808   2
   1  -1   5 69.4762 4.81631   3
  -1  -1  -5 71.0764 6.10921   1
  -1   1  -5 70.1999 5.24126   1
  -1   1  -5 67.0328 5.36870   1
  -1   1  -5 67.7008 4.55162   2
  -1   1  -5 69.2974 4.61438   3
   1   1   5 68.5180 4.63843   3
  -2  -1  -5 6167.55 359.355   3
  -2  -1  -5 6256.91 360.555   1
  -2   1  -5 6320.55 359.901   1
  -2   1  -5 5712.01 359.706   3
   2   1   5 5868.30 359.348   3
  -2   1  -5 6192.08 359.285   2
   3  -1   5 256.925 17.9920   3
  -3  -1  -5 285.530 19.3762   1
  -3  -1  -5 306.435 17.7351   2
  -3  -1  -5 296.840 17.8608   3
   3  -1   5 297.269 18.6726   1
  -3   1  -5 284.195 18.0284   3
  -3   1  -5 290.084 18.7480   1
   3   1   5 297.185 17.7983   3
  -4  -1  -5 347.250 20.3714   2
   4  -1   5 352.059 21.9576   1
  -4  -1  -5 346.764 20.6686   3
   4  -1   5 297.579 20.6465   3
  -4  -1  -5 329.899 22.4947   1
  -4   1  -5 303.909 20.7928   3
   4   1   5 334.631 20.4706   3
  -4   1  -5 352.215 20.3354   2
  -4   1  -5 325.036 22.0947   1
  -5  -1  -5 248.269 16.5899   3
  -5  -1  -5 255.082 19.1040   1
   5  -1   5 255.729 16.4918   3
  -5  -1  -5 250.729 16.0647   2
   5  -1   5 265.546 18.6918   1
  -5   1  -5 265.766 15.9807   2
   5   1   5 262.754 16.1901   3
  -5   1  -5 235.450 16.7950   3
  -5   1  -5 241.232 18.7672   1
   6  -1   5 2214.29 125.069   1
   6  -1   5 1877.86 122.225   3
  -6  -1  -5 2050.35 121.914   2
  -6  -1  -5 2124.81 125.418   1
  -6  -1  -5 2152.07 123.248   3
  -6   1  -5 1879.05 124.905   1
   6   1   5 2019.01 122.037   3
  -6   1  -5 2085.33 121.853   2
   7  -1   5 0.68994 2.36019   3
   7  -1   5 -3.3797 7.53731   1
  -7  -1  -5 2.06341 1.88064   2
  -7  -1  -5 1.77189 7.06124   1
   7   1   5 21.9499 9.94326   1
  -7   1  -5 3.31866 1.79701   2
   7   1   5 4.44286 2.20406   3
  -7   1  -5 -4.2159 5.74009   1
   8  -1   5 978.585 56.0482   3
  -8  -1  -5 880.823 55.3537   2
  -8   1  -5 896.984 55.2805   2
   8   1   5 898.043 55.5953   3
   9  -1   5 34.4156 5.60146   3
  -9  -1  -5 36.7848 5.98599   2
   9   1   5 31.1104 4.91697   3
  -9   1  -5 36.3723 5.66372   2
  10   1   5 14.0021 5.36364   3
 -11  -1  -5 11.6759 4.62005   2
 -11   1  -5 16.1755 4.38079   2
  11   1   5 17.9086 5.60355   3
 -12  -2   5 55.4383 9.02600   2
 -11  -2   5 48.8905 7.64433   2
 -10  -2   5 230.942 17.3497   2
 -10   2   5 235.265 16.7664   2
  -9  -2   5 307.716 23.0923   3
  -9  -2   5 384.346 23.6656   2
  -9  -2   5 365.073 39.0281   1
  -9   2   5 372.802 23.2139   2
   8  -2  -5 23.1315 15.1162   1
  -8  -2   5 26.0483 4.15097   2
  -8  -2   5 13.2125 11.5537   1
  -8  -2   5 23.4545 3.89226   3
  -8   2   5 25.9003 13.0549   1
   8   2  -5 34.7416 18.5379   1
  -8   2   5 32.7678 4.92078   2
   7  -2  -5 899.213 54.5290   2
  -7  -2   5 991.537 54.8202   2
  -7  -2   5 883.527 53.9442   3
   7  -2  -5 742.795 60.7236   1
  -7  -2   5 814.925 71.4785   1
  -7   2   5 1018.77 54.6081   2
   7   2  -5 1046.42 67.0443   1
  -7   2   5 856.814 62.1111   1
  -7   2   5 802.683 54.1974   3
   6  -2  -5 96.3180 7.21459   2
  -6  -2   5 105.331 15.9863   1
  -6  -2   5 88.3742 7.34204   2
  -6  -2   5 76.1370 7.29908   3
   6  -2  -5 75.0061 13.0620   1
  -6   2   5 74.0171 6.72602   3
   6   2  -5 70.2917 7.25511   2
  -6   2   5 77.2024 13.0031   1
  -6   2   5 95.2113 7.01963   2
   6   2  -5 83.4447 15.6890   1
  -5  -2   5 180.926 11.7439   2
  -5  -2   5 216.404 20.2268   1
  -5  -2   5 193.616 11.0235   3
   5  -2  -5 153.479 11.4393   2
  -5   2   5 198.986 18.2613   1
   5   2  -5 145.914 11.5522   2
  -5   2   5 181.382 11.5827   2
   5   2  -5 174.695 22.3523   1
  -4  -2   5 646.866 42.6452   1
   4  -2  -5 588.039 40.0260   1
  -4  -2   5 622.519 35.9416   3
  -4  -2   5 621.685 36.6752   2
   4   2  -5 581.475 43.0432   1
   4   2  -5 534.045 36.4181   2
  -4   2   5 611.242 36.4964   3
  -4   2   5 604.395 40.6024   1
  -4   2   5 634.260 36.4764   2
  -3  -2   5 506.638 37.9593   1
   3  -2  -5 572.325 36.0594   1
   3  -2  -5 529.567 33.3171   2
  -3  -2   5 600.366 33.5989   2
  -3   2   5 586.013 33.3714   2
  -3   2   5 572.294 36.3992   1
   3   2  -5 500.206 38.7508   1
   3   2  -5 565.798 33.4825   2
  -3   2   5 559.912 33.5205   3
   2  -2  -5 13.1297 3.34241   1
  -2  -2   5 19.5628 2.07626   2
   2  -2  -5 17.1610 1.73223   2
   2  -2  -5 18.3552 1.90417   3
  -2  -2   5 14.0152 4.73630   1
  -2   2   5 13.9729 3.25492   1
   2   2  -5 10.3855 5.02855   1
  -2   2   5 19.3514 1.72042   2
   2   2  -5 19.5115 2.06857   2
  -2   2   5 24.2016 2.08765   3
   1  -2  -5 309.764 18.3175   2
   1  -2  -5 293.099 20.1246   1
   1  -2  -5 313.816 18.4511   3
  -1  -2   5 312.299 20.5062   1
   1   2  -5 311.852 18.1409   3
  -1   2   5 299.217 18.4876   3
  -1   2   5 299.647 18.3203   2
  -1   2   5 309.247 20.1985   1
   0  -2   5 70.7265 5.37402   1
   0  -2  -5 71.0197 4.55941   3
   0  -2  -5 69.0872 4.38480   2
   0  -2  -5 70.8227 6.46926   1
   0  -2  -5 73.4715 6.54903   1
   0   2  -5 68.0148 4.56862   2
   0   2  -5 68.6631 4.44866   3
   0   2  -5 65.5228 6.92182   1
   0   2   5 65.1399 4.67213   3
  -1  -2  -5 56.5576 4.32149   3
  -1  -2  -5 63.1985 5.98016   1
  -1  -2  -5 59.5636 3.92171   2
  -1   2  -5 66.9666 4.95432   1
   1   2   5 53.5345 4.12846   3
  -1   2  -5 60.3930 4.28865   1
  -1   2  -5 59.9399 4.23851   3
  -2  -2  -5 148.482 11.3423   1
  -2  -2  -5 154.814 9.66601   3
  -2   2  -5 160.134 9.86009   1
  -2   2  -5 151.641 9.56530   2
   2   2   5 151.889 9.68052   3
  -2   2  -5 154.456 9.78726   1
   2   2   5 149.750 11.4876   1
   3  -2   5 12.1105 2.32726   3
   3  -2   5 17.6774 2.89702   1
  -3  -2  -5 16.4291 2.48936   3
  -3  -2  -5 15.6982 3.57525   1
  -3  -2  -5 16.6800 2.23224   2
   3   2   5 14.5000 3.94968   1
   3   2   5 16.1614 2.19308   3
  -3   2  -5 16.4113 2.68814   1
  -3   2  -5 15.4318 2.61846   3
  -4  -2  -5 53.2215 4.19649   2
  -4  -2  -5 57.7439 7.37233   1
   4  -2   5 57.9420 5.75939   1
   4  -2   5 55.5469 5.11841   3
  -4  -2  -5 48.6078 4.47277   3
   4   2   5 51.0904 4.18694   3
  -4   2  -5 53.2993 3.99462   2
  -4   2  -5 51.7483 5.41883   3
   4   2   5 52.3915 8.03141   1
  -4   2  -5 45.3501 6.92331   1
   5  -2   5 245.318 15.6037   3
   5  -2   5 245.863 16.8586   1
  -5  -2  -5 224.150 14.8339   2
  -5  -2  -5 241.769 18.1878   1
  -5  -2  -5 253.556 15.3117   3
   5   2   5 222.973 14.8039   3
  -5   2  -5 215.451 15.8396   3
   5   2   5 230.623 19.1321   1
  -5   2  -5 202.161 17.6961   1
  -5   2  -5 241.400 14.7215   2
   6  -2   5 111.234 9.02733   3
  -6  -2  -5 100.325 12.8151   1
   6  -2   5 115.091 12.5945   1
  -6  -2  -5 112.019 8.32574   2
   6   2   5 125.994 15.3876   1
  -6   2  -5 92.2192 13.3951   1
  -6   2  -5 108.955 8.03187   2
   6   2   5 124.798 8.43897   3
   7  -2   5 8.76719 7.65687   1
  -7  -2  -5 13.9365 7.40422   1
  -7  -2  -5 18.9526 3.02230   2
   7  -2   5 25.5743 4.05998   3
   7   2   5 19.0957 3.02293   3
   7   2   5 17.5384 10.2998   1
  -7   2  -5 19.7373 8.20886   1
  -7   2  -5 28.8279 3.54486   2
  -8  -2  -5 59.8570 6.39873   2
  -8   2  -5 54.7221 6.15558   2
   8   2   5 58.5710 6.68964   3
  -9  -2  -5 167.541 12.7735   2
  -9   2  -5 175.669 12.6041   2
   9   2   5 177.780 13.0878   3
 -10  -2  -5 3.51792 3.39674   2
 -11  -2  -5 198.465 14.4453   2
  11   2   5 187.577 14.9384   3
 -11   2  -5 168.113 13.9466   2
 -12  -3   5 24.2182 5.97947   2
 -12   3   5 28.8272 5.66376   2
 -11  -3   5 -0.1194 3.83338   2
 -10  -3   5 114.968 12.5259   2
 -10   3   5 122.732 10.5337   2
  -9  -3   5 105.753 12.2394   3
  -9  -3   5 97.9899 20.0871   1
  -9  -3   5 134.400 11.0141   2
  -9   3   5 134.115 10.2497   2
  -8  -3   5 0.27420 2.81975   3
  -8  -3   5 -1.7782 2.78259   2
  -8  -3   5 -12.097 10.3314   1
  -8   3   5 -1.6324 2.26784   2
   8   3  -5 1.65176 18.2116   1
  -8   3   5 -8.8094 20.9490   1
   7  -3  -5 396.255 25.0048   2
   7  -3  -5 304.526 33.2317   1
  -7  -3   5 356.694 23.9986   3
  -7  -3   5 417.302 25.2689   2
  -7  -3   5 434.723 33.7003   1
  -7   3   5 447.340 24.8679   2
  -7   3   5 323.299 32.7457   1
   7   3  -5 424.845 39.3541   1
  -6  -3   5 492.434 35.9371   1
  -6  -3   5 451.125 28.2138   2
   6  -3  -5 470.543 27.9870   2
  -6  -3   5 443.404 27.1876   3
  -6   3   5 491.265 27.9291   2
  -6   3   5 389.319 27.8237   3
   6   3  -5 512.110 43.6873   1
  -6   3   5 415.904 34.4318   1
  -6   3   5 425.979 28.0411   3
   5  -3  -5 7.15615 6.52334   1
   5  -3  -5 20.6400 2.72092   2
  -5  -3   5 20.2151 2.95159   2
  -5  -3   5 11.7383 7.39475   1
  -5  -3   5 20.7676 2.01683   3
  -5   3   5 15.4619 6.80112   1
  -5   3   5 20.8785 2.88257   3
  -5   3   5 18.5136 2.92100   2
   5   3  -5 15.5020 10.5466   1
   5   3  -5 16.0862 2.83363   2
  -4  -3   5 1832.40 110.066   3
  -4  -3   5 1969.09 110.895   2
  -4  -3   5 1838.56 119.416   1
   4  -3  -5 1867.73 113.735   1
  -4   3   5 2022.93 114.566   1
  -4   3   5 1938.79 110.590   2
   4   3  -5 1735.82 110.680   2
   4   3  -5 1638.88 116.504   1
  -4   3   5 1914.98 110.840   3
  -3  -3   5 991.816 63.6103   1
   3  -3  -5 874.719 58.1541   2
  -3  -3   5 1007.20 58.4512   2
   3  -3  -5 1031.24 60.9736   1
  -3   3   5 1037.59 61.2235   1
  -3   3   5 1007.97 58.4607   3
   3   3  -5 969.642 58.3862   2
   3   3  -5 861.481 63.3222   1
  -3   3   5 1022.99 58.1542   2
   2  -3  -5 38.6957 3.14334   3
   2  -3  -5 42.1488 6.31730   1
   2  -3  -5 38.0791 2.77965   2
  -2  -3   5 27.3253 6.06957   1
  -2  -3   5 41.7056 3.19571   2
  -2   3   5 37.6693 2.70923   2
   2   3  -5 26.7215 6.44127   1
  -2   3   5 40.1930 6.04102   1
   2   3  -5 43.9497 3.25755   2
  -2   3   5 41.3912 3.27997   3
  -1  -3   5 3039.33 182.816   2
   1  -3  -5 3122.66 182.593   2
   1  -3  -5 3291.89 182.859   3
   1  -3  -5 3318.19 184.712   1
  -1  -3   5 3167.42 185.415   1
  -1   3   5 2974.70 182.884   3
   1   3  -5 3243.34 182.829   2
  -1   3   5 2966.73 182.588   2
   1   3  -5 2922.75 185.341   1
   1   3  -5 2954.05 182.511   3
   1   3  -5 2813.64 182.615   3
  -1   3   5 3311.61 184.828   1
   0  -3   5 1759.98 108.176   2
   0  -3   5 1997.83 109.095   1
   0  -3  -5 1735.92 107.988   2
   0  -3  -5 1901.36 110.048   1
   0  -3  -5 1929.45 108.263   3
   0  -3  -5 1927.84 110.091   1
   0   3   5 1822.15 108.294   3
   0   3  -5 1606.60 108.235   3
   0   3  -5 1836.65 108.217   2
   0   3  -5 1769.53 109.477   1
  -1  -3  -5 32.6656 2.78424   3
   1  -3   5 34.0795 2.62691   2
  -1  -3  -5 33.4887 2.46362   2
  -1   3  -5 32.3410 2.42388   1
  -1   3  -5 31.4429 2.29274   1
  -1   3  -5 34.5890 2.64623   2
   1   3   5 37.2930 2.87942   3
  -1   3  -5 33.9425 3.33822   3
  -2  -3  -5 3413.88 196.826   1
  -2  -3  -5 3362.62 194.973   3
   2   3   5 3440.75 197.073   1
  -2   3  -5 3018.48 195.340   3
   2   3   5 3180.90 194.950   3
  -2   3  -5 3367.41 194.851   2
  -3  -3  -5 1148.28 67.2340   3
  -3  -3  -5 1138.32 69.2782   1
  -3  -3  -5 1148.65 67.1840   2
  -3   3  -5 1170.69 66.9427   1
  -3   3  -5 962.227 67.6965   3
  -3   3  -5 1166.74 67.0876   2
   3   3   5 1152.43 69.7620   1
   3   3   5 1133.10 67.1802   3
   4  -3   5 63.2459 5.33334   1
  -4  -3  -5 57.8170 4.71921   2
  -4  -3  -5 54.4862 4.86142   3
  -4  -3  -5 64.4663 7.93357   1
  -4   3  -5 65.7858 7.68688   1
   4   3   5 59.2353 4.57874   3
   4   3   5 49.6515 9.35062   1
   5  -3   5 1771.56 103.431   1
  -5  -3  -5 1702.67 102.684   3
  -5  -3  -5 1657.24 102.524   2
  -5  -3  -5 1667.71 105.370   1
   5   3   5 1690.51 106.277   1
  -5   3  -5 1826.49 103.648   3
   5   3   5 1735.90 102.499   3
  -5   3  -5 1754.79 105.019   1
  -5   3  -5 1690.54 102.326   2
   6  -3   5 905.510 54.8643   1
  -6  -3  -5 864.797 56.6770   1
  -6  -3  -5 814.277 52.8394   2
   6   3   5 835.275 52.8007   3
   6   3   5 858.374 58.2175   1
  -6   3  -5 852.838 52.6554   2
  -6   3  -5 1017.95 57.1190   1
  -7  -3  -5 15.5509 2.95394   2
  -7  -3  -5 2.79751 7.81788   1
   7  -3   5 8.19042 7.41764   1
   7   3   5 14.4316 10.6095   1
   7   3   5 11.3882 2.58389   3
  -7   3  -5 15.9496 2.48950   2
  -7   3  -5 22.4272 8.36394   1
  -8  -3  -5 434.686 28.9595   2
  -8   3  -5 468.005 28.7136   2
   8   3   5 474.875 28.9530   3
  -9  -3  -5 156.094 12.7483   2
  -9   3  -5 184.900 12.4769   2
   9   3   5 169.973 12.6914   3
 -10  -3  -5 7.06601 3.41753   2
 -11  -3  -5 97.8598 9.91938   2
  11   3   5 92.3552 10.2660   3
 -11   3  -5 88.1955 9.36327   2
 -11  -4   5 13.0421 4.70141   2
 -11   4   5 13.2965 4.54130   3
 -10  -4   5 359.353 29.2484   2
 -10   4   5 442.386 26.2989   2
 -10   4   5 397.040 26.6546   3
  -9  -4   5 130.707 11.8691   2
  -9   4   5 130.438 11.3865   3
  -9   4   5 148.229 10.9567   2
  -8  -4   5 67.3559 14.8814   1
  -8  -4   5 70.0316 7.06243   3
  -8  -4   5 87.7149 8.19474   2
  -8   4   5 88.7767 7.24518   2
   8   4  -5 63.8977 23.0263   1
  -8   4   5 70.9198 7.86338   3
  -7  -4   5 266.107 17.3018   2
   7  -4  -5 272.299 17.1187   2
  -7  -4   5 225.417 15.7112   3
  -7  -4   5 246.805 26.1498   1
  -7   4   5 233.121 27.5379   1
   7   4  -5 238.988 35.0951   1
  -7   4   5 252.257 17.2257   3
   6  -4  -5 260.140 15.7290   2
  -6  -4   5 230.283 14.6519   3
  -6  -4   5 248.371 24.7843   1
   6  -4  -5 199.550 23.6299   1
  -6  -4   5 254.301 16.0701   2
   6   4  -5 191.727 28.6497   1
   6   4  -5 232.164 14.7979   3
  -6   4   5 218.135 23.2977   1
  -6   4   5 249.107 15.4715   2
  -6   4   5 241.095 16.0408   3
   5  -4  -5 13.9713 7.20538   1
   5  -4  -5 26.8560 3.78344   2
  -5  -4   5 20.4431 8.13205   1
  -5  -4   5 23.5507 2.19908   3
  -5  -4   5 19.6808 2.99698   2
  -5   4   5 24.4631 3.19523   2
   5   4  -5 23.0321 11.6411   1
   5   4  -5 20.3241 2.36910   3
  -5   4   5 37.3762 8.11934   1
   5   4  -5 18.3390 3.29928   2
  -5   4   5 24.4962 3.87356   3
  -4  -4   5 873.747 50.5976   3
   4  -4  -5 815.393 51.0605   2
  -4  -4   5 754.781 56.5000   1
   4  -4  -5 895.705 54.7442   1
  -4  -4   5 902.229 51.4403   2
  -4   4   5 924.407 55.0948   1
   4   4  -5 835.121 50.6235   3
  -4   4   5 893.659 51.5440   3
  -4   4   5 869.934 51.0097   2
   4   4  -5 773.297 51.2669   2
   3  -4  -5 60.7757 8.67625   1
  -3  -4   5 75.2843 5.50765   2
  -3   4   5 70.7480 4.82128   2
   3   4  -5 82.7708 4.58308   3
  -3   4   5 76.0577 5.69954   3
   3   4  -5 67.4670 5.50538   2
  -3   4   5 72.7634 8.81874   1
   3   4  -5 68.7797 12.5849   1
   2  -4  -5 64.9522 7.75463   1
  -2  -4   5 63.8408 4.65521   2
   2  -4  -5 60.6260 4.28664   2
  -2  -4   5 61.2548 10.7199   1
   2  -4  -5 67.6830 4.82582   3
   2   4  -5 64.1997 4.05948   3
   2   4  -5 77.2173 4.81094   2
  -2   4   5 64.0902 4.14993   2
  -2   4   5 70.8124 4.92310   3
   2   4  -5 63.8102 9.60059   1
  -2   4   5 63.0089 7.55915   1
  -1  -4   5 152.058 9.68417   2
   1  -4  -5 149.388 12.1290   1
   1  -4  -5 150.377 9.78452   3
   1  -4  -5 153.736 9.30649   2
   1  -4  -5 155.747 12.2669   1
   1   4  -5 165.133 12.1653   1
   1   4  -5 155.373 9.70905   2
  -1   4   5 153.733 9.87192   3
   1   4  -5 154.820 9.35221   3
   0  -4   5 3.60558 1.06255   2
   0  -4  -5 1.57414 2.90046   1
   0  -4  -5 1.11431 1.17971   3
   0  -4   5 7.64006 2.81966   1
   0  -4  -5 3.89627 3.19226   1
   0  -4  -5 3.86640 0.66316   2
   0   4  -5 4.85459 1.79337   1
   0   4  -5 4.15955 1.01663   2
   0   4   5 7.61572 1.36066   3
   0   4  -5 2.14326 1.45235   3
  -1  -4  -5 6.49387 1.44888   3
  -1  -4  -5 1.66369 2.81277   1
   1   4   5 11.4451 1.78247   3
  -2  -4  -5 37.4443 3.52878   3
  -2  -4  -5 36.2423 6.06318   1
   2   4   5 36.6975 3.39177   3
  -2   4  -5 40.0254 3.13104   2
   2   4   5 39.6857 6.93237   1
  -2   4  -5 26.0273 3.75964   3
  -3  -4  -5 21.4150 2.88356   2
  -3  -4  -5 19.1289 4.49270   1
  -3  -4  -5 19.3260 3.21879   3
   3   4   5 20.4590 2.73666   3
  -3   4  -5 19.9502 3.53794   3
  -3   4  -5 28.4005 2.78330   2
   3   4   5 22.6055 5.64882   1
  -4  -4  -5 6.36456 1.81886   2
  -4  -4  -5 7.58992 2.20340   3
  -4  -4  -5 10.2039 4.39117   1
   4   4   5 5.10490 1.58257   3
   4   4   5 3.56353 5.02481   1
  -4   4  -5 10.7671 3.49697   3
  -4   4  -5 6.35838 1.61733   2
  -5  -4  -5 57.8126 7.97503   3
  -5  -4  -5 75.5934 11.0654   1
   5  -4   5 69.8258 6.51262   1
  -5  -4  -5 75.0390 6.28482   2
  -5   4  -5 105.388 11.2269   3
  -5   4  -5 82.9326 8.36910   1
   5   4   5 83.8742 13.7439   1
   5   4   5 68.5983 6.07504   3
  -5   4  -5 72.3953 5.75631   2
  -6  -4  -5 225.311 19.8807   1
   6  -4   5 217.735 15.9954   1
  -6  -4  -5 194.188 14.2233   2
  -6   4  -5 216.669 13.8297   2
   6   4   5 217.803 14.0889   3
   6   4   5 213.473 22.3443   1
   7  -4   5 -2.7300 6.22024   1
  -7  -4  -5 0.59321 2.32744   2
  -7  -4  -5 4.25341 8.31346   1
  -7   4  -5 2.33826 1.79170   2
  -7   4  -5 10.4814 7.16288   1
   7   4   5 0.92604 2.06743   3
  -8  -4  -5 139.661 10.9298   2
  -8   4  -5 135.733 10.3108   2
   8   4   5 145.247 10.7713   3
  -9  -4  -5 45.3259 6.96184   2
   9   4   5 40.4826 6.33841   3
  -9   4  -5 47.9750 6.26598   2
 -10  -4  -5 2.06211 3.74273   2
  10   4   5 12.8511 3.69890   3
 -10   4  -5 5.14773 3.28264   2
  11   4   5 45.1851 6.61831   3
 -11   4  -5 57.3526 7.95488   2
 -11  -5   5 3.98464 4.77398   2
 -11   5   5 -1.7344 4.23050   3
 -11   5   5 3.07146 5.76758   2
 -10  -5   5 25.5374 5.63428   2
 -10   5   5 23.8891 4.54643   2
  -9  -5   5 162.478 13.5747   2
  -9   5   5 166.825 12.3339   2
  -9   5   5 169.349 13.6032   3
  -8  -5   5 -0.4911 2.68962   3
  -8  -5   5 -0.9151 3.17355   2
   8   5  -5 2.82535 22.7183   1
  -8   5   5 2.02464 3.30298   3
  -8   5   5 2.37537 2.49263   2
   7  -5  -5 625.279 35.5999   2
  -7  -5   5 520.508 44.3001   1
  -7  -5   5 567.583 35.8778   2
  -7  -5   5 550.900 34.5438   3
  -7   5   5 542.199 36.0518   3
  -7   5   5 650.080 35.3280   2
   7   5  -5 567.463 34.5829   3
   7   5  -5 495.708 51.6893   1
   6  -5  -5 46.3166 16.6050   1
   6  -5  -5 56.4157 6.41717   2
  -6  -5   5 57.3992 11.9577   1
  -6  -5   5 68.4154 4.98380   3
  -6  -5   5 65.4084 6.68168   2
   6   5  -5 61.5010 5.30146   3
  -6   5   5 46.6258 12.0148   1
   6   5  -5 56.3782 16.2479   1
  -6   5   5 69.8404 5.67393   2
  -6   5   5 59.8654 6.61557   3
  -5  -5   5 1.58471 2.01837   2
   5  -5  -5 6.41863 2.09253   2
   5  -5  -5 -4.7859 8.85359   1
  -5  -5   5 10.3014 8.31056   1
  -5  -5   5 4.75865 1.19395   3
   5   5  -5 4.01328 1.14074   3
  -5   5   5 2.78428 2.30250   3
  -5   5   5 3.59244 1.58868   2
   5   5  -5 1.33852 10.4769   1
   5   5  -5 0.48221 3.05423   2
  -5   5   5 3.66528 6.53218   1
   4  -5  -5 268.905 21.7186   1
   4  -5  -5 241.131 16.7188   2
  -4  -5   5 298.257 17.3569   2
  -4  -5   5 269.533 16.3981   3
  -4  -5   5 227.086 23.4700   1
  -4   5   5 275.703 21.2649   1
   4   5  -5 297.955 16.3651   3
   4   5  -5 245.437 17.3158   2
  -4   5   5 291.774 17.6627   3
  -4   5   5 282.345 16.5292   2
   4   5  -5 261.117 24.6755   1
   3  -5  -5 1127.77 76.1965   2
  -3  -5   5 1374.44 76.6811   2
  -3  -5   5 1093.36 81.1397   1
   3  -5  -5 1316.88 79.3628   1
   3   5  -5 1357.50 81.1217   1
  -3   5   5 1353.70 79.7541   1
   3   5  -5 1362.69 76.0794   3
  -3   5   5 1254.05 76.0558   2
  -3   5   5 1362.37 76.9345   3
   3   5  -5 1257.36 76.6805   2
  -2  -5   5 1.03927 5.32785   1
   2  -5  -5 -1.2643 3.84255   1
   2  -5  -5 2.11160 0.77427   2
  -2  -5   5 4.06899 1.22764   2
   2   5  -5 3.22336 1.46837   2
   2   5  -5 6.75040 4.29092   1
   2   5  -5 3.64306 0.70041   3
  -2   5   5 6.19210 1.61223   3
   1  -5  -5 2878.94 182.654   2
   1  -5  -5 2952.41 186.714   1
  -1  -5   5 3015.23 183.043   2
   1  -5  -5 3272.37 183.250   3
   1  -5  -5 3230.30 185.482   1
   1   5  -5 3253.54 183.118   2
  -1   5   5 3066.44 183.311   3
   1   5  -5 3211.66 184.852   1
   1   5  -5 2984.63 182.839   3
   0  -5   5 281.541 16.7751   2
   0  -5   5 230.430 19.1896   1
   0  -5  -5 275.251 19.7232   1
   0  -5  -5 288.574 16.5860   2
   0  -5  -5 285.986 17.0894   3
   0  -5  -5 280.937 19.7005   1
   0  -5  -5 280.892 16.4024   2
   0   5  -5 284.723 16.8243   2
   0   5   5 283.788 17.1249   3
   0   5  -5 245.553 19.0656   1
  -1  -5  -5 226.665 14.2630   3
  -1  -5  -5 239.729 13.7423   2
  -1  -5  -5 213.475 16.9632   1
  -1  -5  -5 221.738 13.9905   2
   1   5   5 234.069 14.2760   3
  -1   5  -5 227.108 13.9879   2
  -2  -5  -5 338.426 23.1830   1
  -2  -5  -5 337.814 20.4020   3
   2   5   5 342.748 20.4204   3
  -2   5  -5 346.030 20.0881   2
  -2   5  -5 272.986 21.1373   3
   2   5   5 341.241 23.7586   1
  -3  -5  -5 2203.43 131.408   1
  -3  -5  -5 2032.41 128.637   2
  -3  -5  -5 2224.85 128.697   3
   3   5   5 2205.44 128.650   3
  -3   5  -5 2072.81 129.545   3
  -3   5  -5 2216.80 128.417   2
   3   5   5 2219.78 131.975   1
  -4  -5  -5 15.7546 2.63902   2
  -4  -5  -5 15.8355 5.76498   1
  -4  -5  -5 10.8083 2.76365   3
   4   5   5 14.5053 2.28311   3
   4   5   5 18.2414 6.74412   1
  -4   5  -5 15.3534 2.24104   2
  -4   5  -5 21.2630 4.85727   3
  -5  -5  -5 1530.06 93.3714   1
  -5  -5  -5 1337.75 89.5140   2
  -5   5  -5 1483.73 89.2373   2
   5   5   5 1573.97 89.4249   3
   5   5   5 1453.75 94.2716   1
  -5   5  -5 1607.64 89.2555   2
  -6  -5  -5 156.578 12.4031   2
   6  -5   5 192.601 12.1054   1
  -6  -5  -5 191.647 19.8199   1
   6   5   5 176.501 12.1934   3
  -6   5  -5 191.294 11.9351   2
   6   5   5 154.897 22.6765   1
  -6   5  -5 164.908 11.7669   1
  -7  -5  -5 82.0430 7.47211   2
   7  -5   5 85.5902 10.8012   1
  -7  -5  -5 69.8699 18.4501   1
  -7   5  -5 83.0183 6.63928   2
   7   5   5 85.8982 6.87861   3
  -7   5  -5 64.5713 10.4442   1
  -8  -5  -5 45.9358 6.83927   2
  -8   5  -5 45.6294 5.78909   2
  -8   5  -5 16.7299 13.3522   1
   8   5   5 39.5575 6.22476   3
  -9  -5  -5 340.034 21.2080   2
   9   5   5 294.583 20.5494   3
  -9   5  -5 291.956 20.1754   2
 -10  -5  -5 1.42079 4.07672   2
  10   5   5 4.39037 3.84255   3
 -10   5  -5 4.39288 3.45920   2
 -11  -5  -5 134.270 12.0136   2
  11   5   5 100.121 11.4447   3
 -11   5  -5 112.555 10.7545   2
 -11  -6   5 5.58991 5.07129   2
 -11   6   5 3.70692 5.00163   3
 -11   6   5 4.57615 6.39249   2
 -10  -6   5 452.731 29.1080   2
 -10   6   5 400.353 28.8899   3
 -10   6   5 431.812 27.5980   2
  -9  -6   5 27.5401 7.60099   2
  -9   6   5 12.8413 5.55897   3
  -9   6   5 11.4869 3.62763   2
  -8  -6   5 51.7169 7.21880   2
   8   6  -5 15.4199 31.1850   1
  -8   6   5 51.4971 7.36914   3
  -8   6   5 57.4096 6.11937   2
   8   6  -5 54.0024 5.31950   3
  -7  -6   5 7.85585 13.6985   1
  -7  -6   5 3.70442 2.35437   3
  -7  -6   5 8.57251 3.70931   2
  -7   6   5 6.44192 2.57739   2
   7   6  -5 -8.0908 19.3645   1
   7   6  -5 3.84127 2.13134   3
  -7   6   5 5.53444 3.92646   3
  -6  -6   5 178.429 12.1437   2
  -6  -6   5 136.083 22.4575   1
   6   6  -5 144.578 22.9099   1
  -6   6   5 166.822 12.6037   3
  -6   6   5 163.666 10.9388   2
  -5  -6   5 10.3645 1.71944   3
  -5  -6   5 15.0477 9.31949   1
  -5  -6   5 11.3039 2.74540   2
   5  -6  -5 -1.9933 8.16425   1
   5   6  -5 10.6202 1.54052   3
  -5   6   5 11.7914 1.74640   2
  -5   6   5 20.4325 7.98672   1
   5   6  -5 28.4488 12.3618   1
  -5   6   5 7.62687 2.82725   3
  -4  -6   5 595.334 47.4916   1
  -4  -6   5 701.516 41.2932   2
  -4   6   5 683.802 40.3888   2
   4   6  -5 710.737 47.6311   1
   4   6  -5 588.428 41.3349   2
  -4   6   5 697.197 41.7274   3
   4   6  -5 774.027 40.5382   3
  -4   6   5 675.391 45.3531   1
  -3  -6   5 69.1792 11.2348   1
   3  -6  -5 75.5599 11.6857   1
  -3  -6   5 80.0562 5.84496   2
  -3   6   5 77.8180 6.41856   3
   3   6  -5 86.9734 12.8326   1
   3   6  -5 67.1270 6.22934   2
   3   6  -5 77.4280 4.99225   3
   2  -6  -5 89.7748 10.8389   1
  -2  -6   5 87.1463 6.07460   2
   2  -6  -5 91.5666 10.9733   1
  -2  -6   5 73.6253 13.2555   1
   2   6  -5 82.8582 6.35249   2
  -2   6   5 98.8393 6.70790   3
   2   6  -5 84.7865 10.3911   1
   2   6  -5 85.4330 5.61832   3
   1  -6  -5 94.7587 10.9113   1
   1  -6  -5 95.7431 10.4133   1
  -1  -6   5 96.8120 6.50508   2
  -1  -6   5 82.5301 12.3840   1
   1  -6  -5 95.3995 7.17593   3
   1   6  -5 100.134 9.05231   1
   1   6  -5 77.2052 6.78377   3
  -1   6   5 103.830 7.16422   3
   1   6  -5 108.325 6.75920   2
   0  -6  -5 7.27135 4.81293   1
   0  -6   5 4.80375 4.69795   1
   0  -6  -5 1.60983 1.82824   3
   0  -6   5 0.66826 1.12255   2
   0  -6  -5 -3.2685 3.92770   1
   0   6  -5 1.33323 1.12240   3
   0   6  -5 4.59786 2.36156   1
   0   6   5 1.16166 1.65648   3
   1  -6   5 60.1014 4.51686   1
  -1  -6  -5 59.3748 5.22410   3
  -1  -6  -5 56.8365 9.02637   1
   1  -6   5 57.8227 5.37764   1
  -1  -6  -5 51.3669 8.10651   1
  -1  -6  -5 61.5856 3.87238   2
  -1   6  -5 45.2830 6.17045   3
  -1   6  -5 58.7399 4.53907   3
  -1   6  -5 64.2799 4.41087   2
   1   6   5 63.4498 4.81442   3
  -2  -6  -5 20.0163 2.97509   3
  -2  -6  -5 16.4835 5.36135   1
  -2   6  -5 17.6563 3.94255   3
   2   6   5 17.4046 2.53398   3
  -2   6  -5 17.6252 2.60595   2
   2   6   5 15.7791 6.01602   1
  -3  -6  -5 37.6907 4.65844   2
  -3  -6  -5 51.2292 7.91020   1
   3   6   5 73.0306 12.5359   1
   3   6   5 52.8977 4.65821   3
  -3   6  -5 46.9473 7.27427   3
  -3   6  -5 55.6028 4.29225   2
  -4  -6  -5 2.54687 5.87518   1
  -4  -6  -5 0.68710 1.88796   2
   4   6   5 2.60558 7.53675   1
  -4   6  -5 0.88834 1.63349   2
   4   6   5 -2.3567 1.55547   3
  -5  -6  -5 42.8526 5.60285   2
  -5  -6  -5 54.8128 9.61905   1
   5   6   5 41.0794 5.15392   3
  -5   6  -5 39.6971 5.04112   2
  -5   6  -5 51.5684 4.64334   2
  -6  -6  -5 219.312 22.6241   1
  -6  -6  -5 205.314 15.0008   2
   6   6   5 203.137 27.7606   1
   6   6   5 231.915 14.6661   3
  -6   6  -5 220.050 14.2424   2
  -7  -6  -5 0.72231 2.95746   2
   7   6   5 2.30443 2.43539   3
  -7   6  -5 2.83631 2.01194   2
  -8  -6  -5 129.597 10.5904   2
   8   6   5 110.101 9.55069   3
  -8   6  -5 112.449 9.21266   2
  -9   6  -5 1.16866 3.29023   2
 -10  -6  -5 6.85103 4.43977   2
  10   6   5 13.4791 4.07617   3
 -10   6  -5 6.32660 3.68918   2
 -10  -7   5 3.60353 5.55974   2
 -10   7   5 -0.5769 4.02352   2
 -10   7   5 -2.2714 5.29517   3
  -9  -7   5 109.465 11.3677   2
  -9   7   5 105.709 9.62308   2
  -9   7   5 121.369 12.3544   3
  -8  -7   5 -3.3100 3.37241   2
  -8   7   5 3.31053 4.28847   3
  -8   7   5 2.38593 2.67294   2
   8   7  -5 2.02705 2.42688   3
  -7  -7   5 396.289 25.0241   2
  -7   7   5 368.627 23.5884   2
   7   7  -5 386.602 23.3624   3
  -7   7   5 367.869 25.5797   3
  -6  -7   5 36.1347 5.99459   2
  -6  -7   5 33.3443 4.45926   3
   6   7  -5 37.1094 3.85723   3
   6   7  -5 -6.2625 18.2978   1
  -6   7   5 37.8924 5.52448   3
  -5  -7   5 14.2161 12.0069   1
  -5  -7   5 2.48215 2.38820   2
   5   7  -5 -10.635 12.2239   1
   5   7  -5 1.27430 1.52309   3
  -5   7   5 2.63810 0.83293   2
  -5   7   5 1.94479 2.69629   3
  -4  -7   5 1.58959 9.45392   1
  -4  -7   5 7.22104 2.54660   2
   4  -7  -5 -5.1533 8.17692   1
   4   7  -5 -5.4430 3.54157   2
   4   7  -5 6.16323 9.44580   1
   4   7  -5 3.12231 2.38853   3
  -4   7   5 4.36331 3.11479   3
  -3  -7   5 723.737 40.8550   2
   3  -7  -5 681.327 45.2743   1
  -3  -7   5 569.215 46.8914   1
   3   7  -5 717.572 45.4585   1
   3   7  -5 607.525 41.0662   2
  -3   7   5 725.207 41.4839   3
   3   7  -5 697.741 40.4435   3
   2  -7  -5 2.69530 5.90493   1
  -2  -7   5 7.36013 7.43198   1
  -2  -7   5 10.5243 1.75130   2
   2  -7  -5 6.30049 6.17586   1
   2   7  -5 7.01527 1.31972   3
   2   7  -5 2.95107 5.19519   1
   2   7  -5 7.42607 2.21446   2
  -2   7   5 11.7556 2.51496   3
   1  -7  -5 2306.79 137.801   1
   1  -7  -5 2277.29 137.411   1
  -1  -7   5 1935.89 138.072   1
  -1  -7   5 2265.51 134.251   2
  -1   7   5 2361.70 134.809   3
   1   7  -5 2307.99 134.186   3
   1   7  -5 2346.47 136.124   1
   1   7  -5 2323.03 134.441   2
   0  -7   5 13.1970 6.27548   1
   0  -7   5 26.3199 2.92246   2
   0  -7  -5 22.3582 6.65785   1
   0   7  -5 27.4999 3.05414   3
   0   7  -5 31.4547 5.47176   1
   0   7   5 23.6132 3.19532   3
   0   7  -5 22.8840 3.33721   2
  -1  -7  -5 3.84643 5.34097   1
   1  -7   5 14.8478 2.30774   1
   1  -7   5 12.0996 4.06558   1
  -1  -7  -5 15.5737 1.55546   2
  -1  -7  -5 15.3945 1.37744   2
  -1  -7  -5 15.4640 6.88986   1
  -1   7  -5 18.1812 2.72450   3
   1   7   5 10.1476 2.24796   3
  -1   7  -5 10.3187 3.45940   3
  -1   7  -5 12.3453 1.93255   2
  -2  -7  -5 101.963 12.5707   1
  -2  -7  -5 78.4590 6.30717   2
  -2   7  -5 71.1480 9.04790   3
  -2   7  -5 91.6775 7.02575   3
   2   7   5 91.1933 7.12188   3
  -2   7  -5 93.2313 6.32045   2
  -3  -7  -5 880.740 58.1170   1
   3   7   5 880.107 58.9168   1
   3   7   5 944.333 54.3283   3
  -3   7  -5 897.296 53.8766   2
  -4  -7  -5 -1.5479 2.11789   2
  -4  -7  -5 -8.0960 6.80019   1
   4   7   5 2.47292 2.03394   3
   4   7   5 1.60957 8.87529   1
  -4   7  -5 3.01976 1.59717   2
  -4   7  -5 0.26896 1.86730   2
  -5  -7  -5 1251.52 80.5122   1
  -5  -7  -5 1261.06 75.7752   2
   5   7   5 1320.78 75.4836   3
   5   7   5 1209.13 82.0487   1
  -5   7  -5 1142.07 75.1220   2
  -5   7  -5 1358.17 75.1937   2
  -6  -7  -5 1.27967 3.33348   2
  -6  -7  -5 13.3136 10.6609   1
   6   7   5 -2.9113 2.66588   3
  -6   7  -5 2.62004 2.26555   2
  -7  -7  -5 20.0547 4.19825   2
   7   7   5 15.8941 3.24366   3
  -7   7  -5 15.5058 2.89584   2
  -8   7  -5 30.7864 4.43718   2
   8   7   5 23.9024 4.64176   3
  -9  -7  -5 198.569 14.3902   2
  -9   7  -5 149.758 12.3593   2
   9   7   5 161.023 12.9422   3
 -10  -7  -5 4.59866 4.88495   2
 -10   7  -5 -4.6263 3.84367   2
  10   7   5 -3.3937 3.98757   3
  -9  -8   5 13.3008 5.54129   2
  -9   8   5 20.1537 6.33066   3
  -8  -8   5 30.9030 5.90058   2
   8   8  -5 25.6492 3.53009   3
  -8   8   5 21.1267 3.57435   2
  -8   8   5 21.8800 5.79997   3
  -7  -8   5 61.2133 8.06139   2
   7   8  -5 51.1258 5.39335   3
  -7   8   5 57.9150 9.02889   3
  -6  -8   5 58.2919 6.85716   2
   6   8  -5 55.4566 4.94153   3
  -6   8   5 64.4051 8.30009   3
  -5  -8   5 36.2036 4.81714   2
   5   8  -5 30.5575 3.37205   3
  -5   8   5 31.3465 4.79607   3
  -4  -8   5 340.858 21.3913   2
   4   8  -5 351.673 20.7259   3
  -4   8   5 327.387 22.3375   3
  -3  -8   5 7.26914 2.03443   2
   3  -8  -5 17.9935 13.9629   1
   3   8  -5 6.77883 1.46802   3
  -3   8   5 4.55072 2.72960   3
   3   8  -5 2.63521 3.26372   2
   3   8  -5 -5.3309 7.97990   1
   2  -8  -5 14.1542 8.39060   1
  -2  -8   5 5.54479 12.4068   1
  -2  -8   5 19.3803 2.81114   2
   2  -8  -5 21.5035 8.38970   1
   2   8  -5 15.4290 3.11849   2
   2   8  -5 11.1054 6.08879   1
  -2   8   5 19.5272 3.11702   3
   2   8  -5 22.0291 2.51796   3
  -1  -8   5 51.9177 4.29112   2
   1  -8  -5 37.9268 8.80515   1
  -1  -8   5 31.5167 9.98283   1
   1  -8  -5 55.9016 9.16339   1
   1   8  -5 40.4594 6.57521   1
   1   8  -5 60.3443 4.35425   3
  -1   8   5 54.6100 5.66575   3
   1   8  -5 49.0247 5.23525   2
   0  -8  -5 -3.3905 6.70189   1
   0  -8   5 1.22521 7.36929   1
   0  -8  -5 -10.616 7.08781   1
   0   8  -5 5.24540 2.07718   2
   0   8  -5 4.87943 1.63888   3
   0   8   5 6.69437 2.42453   3
  -1  -8  -5 17.4539 7.11905   1
   1  -8   5 19.6772 5.71723   1
  -1  -8  -5 3.65473 7.83776   1
   1  -8   5 13.2894 2.92897   1
   1   8   5 10.0106 2.51322   3
  -1   8  -5 11.6633 2.11770   3
  -1   8  -5 7.85523 4.15233   3
  -1   8  -5 15.9725 2.30169   2
  -2  -8  -5 18.2291 7.86292   1
  -2  -8  -5 14.2573 2.21590   2
  -2   8  -5 13.6337 2.67673   3
  -2   8  -5 13.3182 2.29905   2
   2   8   5 10.2955 2.80098   3
  -3  -8  -5 13.9534 2.47465   2
  -3  -8  -5 20.3318 8.30461   1
   3   8   5 20.1081 9.86635   1
   3   8   5 15.7837 3.00496   3
  -3   8  -5 19.0104 3.34429   3
  -3   8  -5 19.6125 2.64690   2
  -4  -8  -5 -1.4951 2.13951   2
  -4  -8  -5 7.23523 8.82922   1
  -4   8  -5 1.77307 1.62083   2
  -4   8  -5 0.16524 2.19436   2
  -4   8  -5 -1.9173 2.62100   3
   4   8   5 5.62415 10.9757   1
   4   8   5 2.83595 2.12045   3
  -5  -8  -5 -14.389 9.81819   1
  -5  -8  -5 3.19044 2.95265   2
  -5   8  -5 -0.6127 1.98975   2
  -5   8  -5 -4.6500 2.86987   2
   5   8   5 -8.6904 13.3878   1
   5   8   5 -0.9337 2.64412   3
  -6  -8  -5 121.590 9.78839   2
   6   8   5 96.8941 8.73545   3
  -6   8  -5 106.103 8.14340   2
  -7  -8  -5 -2.8625 3.67754   2
  -7   8  -5 0.38264 2.39820   2
   7   8   5 -0.1379 2.86945   3
  -8  -8  -5 83.0982 9.88159   2
  -8   8  -5 59.4442 7.20875   2
   8   8   5 64.8581 7.63470   3
  -9  -8  -5 16.9511 5.98680   2
   9   8   5 10.2196 4.69826   3
  -9   8  -5 18.0986 5.08285   2
  -9  -9   5 33.5258 6.66696   2
  -9   9   5 40.5290 7.79289   3
  -8  -9   5 9.67384 4.49712   2
  -8   9   5 -6.6134 5.03867   3
  -7  -9   5 128.485 11.7632   2
   7   9  -5 134.221 9.55722   3
  -7   9   5 137.647 13.3407   3
  -6  -9   5 85.8343 8.32064   2
   6   9  -5 82.8040 6.56294   3
  -5  -9   5 1.34647 2.53724   2
   5   9  -5 -0.4305 1.64485   3
  -5   9   5 0.01587 3.56929   3
  -4  -9   5 177.392 11.9225   2
  -4   9   5 173.942 13.2675   3
   4   9  -5 172.459 11.2057   3
  -3  -9   5 309.445 19.4502   2
  -3   9   5 301.645 20.6247   3
   3   9  -5 322.015 19.1395   3
  -2  -9   5 4.39872 1.70148   2
  -2   9   5 3.31363 2.78866   3
   2   9  -5 4.73975 3.60785   2
   2   9  -5 6.22002 1.61254   3
  -1  -9   5 549.618 32.7029   2
   1   9  -5 483.671 33.2791   2
   1   9  -5 561.856 32.8548   3
  -1   9   5 575.831 33.7578   3
   0  -9   5 236.444 17.6877   1
   0   9   5 248.910 15.9559   3
   0   9  -5 231.555 15.5683   2
   0   9  -5 244.256 15.3192   3
   1  -9   5 16.1863 3.80356   1
   1   9   5 14.6477 2.90349   3
  -1   9  -5 15.8406 2.86583   2
  -1   9  -5 13.5842 2.42608   3
  -2   9  -5 327.451 20.4625   3
   2   9   5 327.797 20.6696   3
  -2   9  -5 308.224 19.9776   2
  -3  -9  -5 403.746 24.1200   2
   3   9   5 408.246 24.8614   3
  -3   9  -5 387.616 24.9834   3
  -3   9  -5 372.322 24.2047   2
  -4  -9  -5 24.2205 3.33247   2
  -4   9  -5 32.3007 4.59689   3
   4   9   5 33.6614 4.79043   3
  -4   9  -5 26.5367 3.71230   2
   4   9   5 -7.3204 18.8640   1
  -5  -9  -5 309.929 20.3257   2
  -5   9  -5 318.570 21.6590   3
  -5   9  -5 313.490 19.6504   2
   5   9   5 308.353 20.3922   3
  -6  -9  -5 86.8930 9.18800   2
  -6   9  -5 85.2249 7.39634   2
   6   9   5 89.0111 8.40015   3
  -7  -9  -5 14.5430 4.93857   2
   7   9   5 12.0234 3.79253   3
  -7   9  -5 15.4547 5.74376   3
  -7   9  -5 15.5194 3.32044   2
   8   9   5 83.9555 8.97508   3
  -8   9  -5 72.9131 8.36175   2
  -8   9  -5 91.1817 13.4035   3
  -8 -10   5 11.1909 5.26720   2
  -8  10   5 9.88721 6.54476   3
  -7  10   5 99.1283 12.7697   3
  -6 -10   5 14.9662 3.83195   2
  -6  10   5 12.7082 5.54726   3
   6  10  -5 16.4371 3.00883   3
  -5 -10   5 32.1506 5.25488   2
   5  10  -5 35.3571 4.17982   3
  -5  10   5 35.7791 5.74869   3
  -4 -10   5 34.2668 4.89465   2
   4  10  -5 35.3237 4.10606   3
  -4  10   5 40.2554 8.82009   3
  -3 -10   5 1.50774 1.94177   2
   3  10  -5 0.99040 1.70682   3
  -3  10   5 -0.6827 3.21555   3
  -2 -10   5 19.5175 3.18212   2
   2  10  -5 16.5734 2.40932   3
  -2  10   5 12.5484 3.48811   3
  -1 -10   5 81.0506 6.01248   2
   1  10  -5 83.7094 6.46272   3
  -1  10   5 79.9804 7.59499   3
   0  10   5 -0.9783 2.56547   3
   0  10  -5 1.19483 1.99924   3
   1 -10   5 -3.8682 8.64490   1
  -1  10  -5 25.7908 4.08457   3
   1  10   5 24.0916 3.75236   3
  -2  10  -5 -1.0312 2.54278   3
   2  10   5 0.63461 2.82773   3
  -3  10  -5 42.9974 6.11727   3
  -3  10  -5 44.4650 4.44228   2
   3  10   5 44.8040 5.58549   3
  -4 -10  -5 7.25273 2.08179   2
  -4  10  -5 1.76255 3.19868   3
   4  10   5 6.09115 2.94060   3
  -4  10  -5 0.93200 2.06808   2
  -5 -10  -5 2.02315 3.05932   2
  -5  10  -5 2.46465 2.38344   2
  -6 -10  -5 30.2919 4.83106   2
  -6  10  -5 22.1029 5.86817   3
  -6  10  -5 17.2669 3.47708   2
   6  10   5 23.3481 4.52277   3
  -7 -10  -5 4.20146 4.96381   2
   7  10   5 3.56348 3.63859   3
  -7  10  -5 0.11877 5.56924   3
  -6 -11   5 90.4547 9.06310   2
  -6  11   5 94.3689 12.5035   3
  -5 -11   5 1.09575 2.91809   2
   5  11  -5 3.16631 3.76910   3
  -5  11   5 3.88239 4.69541   3
  -4 -11   5 195.963 13.7950   2
   4  11  -5 219.800 13.5902   3
  -4  11   5 205.489 15.8769   3
  -3 -11   5 16.4180 2.85965   2
  -3  11   5 20.2129 4.62976   3
   3  11  -5 16.1169 2.83215   3
  -2 -11   5 0.09713 1.78995   2
   2  11  -5 1.38807 2.03174   3
  -2  11   5 -1.0986 3.45363   3
   1  11  -5 97.8005 7.77435   3
   0  11  -5 202.755 13.5643   3
  -1  11  -5 0.52719 2.45113   3
  -2  11  -5 418.065 24.3192   2
  -2  11  -5 372.763 25.2164   3
   3  11   5 38.2530 5.41741   3
  -3  11  -5 40.2476 5.39438   3
  -4  11  -5 8.43316 4.55867   3
   4  11   5 7.11293 3.52042   3
  -5  11  -5 35.9876 6.52537   3
   5  11   5 29.5343 5.04747   3
  -6  11  -5 91.3491 11.9950   3
   6  11   5 81.2491 9.04602   3
  -4  12   5 1.31573 4.90171   3
  -3  12   5 8.84080 4.43664   3
   3  12  -5 3.58997 2.74298   3
  -2  12   5 3.74785 3.86314   3
   2  12  -5 -3.4922 2.62695   3
  -1  12   5 23.8180 4.87327   3
   1  12  -5 29.0351 3.80995   3
   0  12   5 -7.9889 3.30831   3
   0  12  -5 -0.6710 2.76832   3
   1  12   5 41.9005 6.90489   3
  -1  12  -5 47.3178 6.28788   3
   2  12   5 -4.9570 3.35294   3
  -3  12  -5 14.4139 4.61882   3
   3  12   5 22.1777 4.56797   3
  -4  12  -5 -1.2553 4.52179   3
   4  12   5 -3.1848 3.70474   3
 -12   0   6 162.859 13.5953   2
 -11   0   6 5.01825 3.75550   2
 -10   0   6 973.305 59.7320   2
  -9   0   6 19.3081 4.22198   2
   8   0  -6 356.294 38.0156   1
  -8   0   6 362.506 23.6024   3
  -8   0   6 382.023 35.5447   1
  -8   0   6 389.462 24.1682   2
  -7   0   6 16.7768 3.16806   3
   7   0  -6 11.6090 13.0515   1
  -7   0   6 11.6632 10.0881   1
  -6   0   6 879.487 59.9197   1
   6   0  -6 839.588 59.9156   1
  -6   0   6 926.627 52.1606   3
  -6   0   6 821.673 52.5281   2
  -5   0   6 1.27305 1.26623   3
   5   0  -6 0.79258 1.76446   2
   5   0  -6 -6.4214 7.58562   1
  -5   0   6 1.20140 1.60989   2
  -5   0   6 -5.5026 6.54014   1
  -4   0   6 3038.77 175.728   1
   4   0  -6 2634.59 174.365   1
   4   0  -6 2884.12 170.249   2
  -4   0   6 2704.05 170.053   3
  -4   0   6 2951.20 170.031   3
  -4   0   6 3041.44 170.451   2
   3   0  -6 16.3781 2.25285   2
  -3   0   6 9.41585 4.30316   1
  -3   0   6 12.8131 1.54651   3
   3   0  -6 11.9188 4.91442   1
  -3   0   6 14.2781 2.30071   2
  -2   0   6 486.359 31.4615   1
  -2   0   6 477.600 28.7347   3
   2   0  -6 464.816 31.4154   1
   2   0  -6 501.957 28.9434   2
   2   0  -6 489.219 28.7044   3
  -2   0   6 476.442 28.9640   2
   1   0  -6 0.80302 0.57238   3
  -1   0   6 0.28972 0.60594   3
   1   0  -6 0.14724 0.92939   2
  -1   0   6 3.45450 2.12301   1
   1   0  -6 2.38717 2.33051   1
   0   0  -6 382.179 26.0400   2
   0   0  -6 444.159 25.8396   3
   0   0   6 449.691 27.2191   1
   0   0   6 440.987 25.9061   3
   0   0  -6 451.592 27.3604   1
  -1   0  -6 2.65503 0.84463   3
  -1   0  -6 1.17719 1.65272   1
   1   0   6 0.23573 0.96479   3
  -1   0  -6 3.64941 0.86530   2
  -1   0  -6 3.59003 1.88743   1
   2   0   6 1492.23 88.9421   3
  -2   0  -6 1465.14 88.8549   3
  -2   0  -6 1570.14 88.8219   2
  -2   0  -6 1463.31 89.8324   1
   3   0   6 4.54396 1.49814   3
  -3   0  -6 2.86572 2.22141   1
   3   0   6 -0.2462 2.33048   1
  -3   0  -6 6.13262 1.63022   3
   4   0   6 3.17032 2.98100   1
  -4   0  -6 3.74776 1.84527   3
  -4   0  -6 1.56759 2.82647   1
   4   0   6 5.41709 1.65790   3
  -5   0  -6 -1.3657 3.67586   1
   5   0   6 2.76111 2.14356   3
  -5   0  -6 -0.5973 1.80030   2
  -5   0  -6 -1.2055 2.57436   3
   5   0   6 5.32585 4.32342   1
   6   0   6 12.8371 6.29765   1
  -6   0  -6 13.1895 2.42749   2
  -6   0  -6 8.47252 5.31771   1
   6   0   6 10.4724 2.64997   3
  -7   0  -6 -0.1015 1.83233   2
  -7   0  -6 -1.1275 6.48689   1
   7   0   6 0.05979 2.24134   3
   7   0   6 -1.0554 7.98524   1
   8   0   6 32.4088 4.74348   3
  -8   0  -6 32.6379 5.33014   2
   9   0   6 4.37969 3.49903   3
  -9   0  -6 1.86151 3.04207   2
  10   0   6 20.6256 4.48626   3
 -10   0  -6 10.3357 3.37657   2
  11   0   6 0.20463 5.01551   3
 -11   0  -6 -1.1814 4.12438   2
 -12  -1   6 -4.8091 4.04741   2
 -12   1   6 -0.7281 4.05842   2
 -11  -1   6 15.6385 4.60508   2
 -11   1   6 8.94160 3.88789   2
 -10  -1   6 2.28926 4.05586   2
 -10   1   6 7.13760 4.32124   2
  -9  -1   6 55.0042 8.13755   3
  -9  -1   6 64.8522 7.64548   2
  -9   1   6 73.7543 7.53789   2
  -8  -1   6 7.04186 11.3999   1
  -8  -1   6 1.68533 2.88891   3
  -8  -1   6 1.28096 2.80136   2
   8  -1  -6 -23.924 13.5690   1
   8   1  -6 16.4006 15.9085   1
  -8   1   6 -0.1914 2.90229   3
  -8   1   6 -0.4798 2.77276   2
  -8   1   6 1.95814 11.6699   1
  -7  -1   6 402.931 22.2815   3
  -7  -1   6 353.524 22.9625   2
   7  -1  -6 331.464 33.2413   1
  -7  -1   6 387.197 33.0843   1
  -7   1   6 358.367 22.7441   2
   7   1  -6 382.790 36.0832   1
  -7   1   6 307.299 22.2160   3
  -7   1   6 318.644 31.4250   1
   6  -1  -6 6.66788 2.58220   2
  -6  -1   6 21.2365 9.46781   1
   6  -1  -6 0.14748 9.22051   1
  -6   1   6 8.82877 2.19204   3
   6   1  -6 23.9457 11.3414   1
  -6   1   6 8.05191 2.39286   2
  -6   1   6 9.71325 8.42102   1
   6   1  -6 3.64780 2.63851   2
  -5  -1   6 56.2489 4.97598   2
   5  -1  -6 42.3944 4.54714   2
   5  -1  -6 32.0051 8.94039   1
  -5  -1   6 79.5359 14.2545   1
  -5   1   6 53.5963 10.1859   1
  -5   1   6 58.8032 4.45466   3
  -5   1   6 50.4240 4.31416   3
   5   1  -6 52.2762 4.82855   2
  -5   1   6 50.9693 4.68536   2
   5   1  -6 61.7041 11.5263   1
   4  -1  -6 173.614 17.0327   1
  -4  -1   6 152.058 17.8385   1
  -4  -1   6 191.196 11.8328   2
  -4  -1   6 193.169 11.1672   3
  -4  -1   6 180.614 10.9712   3
   4  -1  -6 172.508 11.4710   2
   4   1  -6 142.700 18.4869   1
   4   1  -6 171.990 11.5559   2
  -4   1   6 190.120 16.9510   1
  -4   1   6 192.343 11.6913   2
   3  -1  -6 1495.94 88.7413   2
   3  -1  -6 1480.75 91.7270   1
  -3  -1   6 1516.59 88.9107   2
  -3  -1   6 1439.22 88.3933   3
  -3  -1   6 1463.11 93.0039   1
   3   1  -6 1498.44 88.8098   2
  -3   1   6 1586.10 92.3015   1
  -3   1   6 1466.03 88.6775   3
  -3   1   6 1526.25 88.8140   2
  -2  -1   6 5.58656 3.35511   1
   2  -1  -6 2.73491 3.01286   1
  -2   1   6 5.30474 0.92660   3
   2   1  -6 3.16893 3.93356   1
   2   1  -6 5.22501 1.16658   2
  -2   1   6 2.34443 2.66766   1
   1  -1  -6 3923.69 236.530   2
  -1  -1   6 3788.28 236.626   2
  -1  -1   6 4339.37 238.348   1
   1  -1  -6 4222.21 238.402   1
   1  -1  -6 3926.38 236.503   3
  -1   1   6 3735.05 236.552   2
  -1   1   6 4274.85 238.454   1
  -1   1   6 3796.00 236.547   3
   1   1  -6 4166.32 238.735   1
   1   1  -6 3904.05 236.598   2
   0  -1   6 62.4815 4.78642   2
   0  -1  -6 73.0426 6.55210   1
   0  -1  -6 76.1806 4.76139   3
   0  -1  -6 75.9846 4.73302   2
   0  -1   6 73.5265 4.85002   3
   0   1  -6 73.5669 6.49765   1
   0   1   6 72.4068 4.79574   3
   0   1   6 71.4092 4.75326   2
   0   1  -6 74.7563 4.61933   3
   0   1  -6 71.3094 4.82918   2
   0   1   6 77.0351 6.55257   1
  -1  -1  -6 962.461 58.0881   1
   1  -1   6 973.141 56.7576   3
  -1  -1  -6 933.860 57.9383   1
  -1   1  -6 980.169 56.5652   3
  -1   1  -6 941.221 57.3130   1
  -1   1  -6 956.024 56.5616   2
  -1   1  -6 985.868 57.5007   1
   1   1   6 885.363 56.8537   3
  -2  -1  -6 567.944 34.5462   3
  -2  -1  -6 572.641 35.9519   1
  -2   1  -6 578.540 34.6344   3
  -2   1  -6 567.881 35.2125   1
  -2   1  -6 585.124 35.3536   1
   2   1   6 576.489 34.5972   3
  -2   1  -6 585.183 34.5073   2
  -3  -1  -6 2908.94 169.344   1
   3  -1   6 2862.04 168.659   1
   3  -1   6 2657.96 168.011   3
  -3  -1  -6 2868.97 167.834   3
  -3   1  -6 2880.17 167.984   3
  -3   1  -6 2949.96 168.745   1
   3   1   6 2713.46 167.802   3
  -4  -1  -6 9.61828 1.69844   2
   4  -1   6 9.40193 3.01001   1
  -4  -1  -6 4.05995 1.90212   3
  -4  -1  -6 11.8145 3.63819   1
   4  -1   6 7.04095 1.97704   3
   4   1   6 6.38207 1.66417   3
   4   1   6 2.92645 3.66970   1
  -4   1  -6 8.40309 3.03202   1
  -4   1  -6 2.52843 2.22122   3
   5  -1   6 3647.66 203.866   1
  -5  -1  -6 3338.11 201.778   2
  -5  -1  -6 3576.68 204.513   1
   5  -1   6 3117.53 202.138   3
  -5  -1  -6 3432.17 202.157   3
  -5   1  -6 3391.38 204.024   1
  -5   1  -6 3399.28 201.740   2
  -5   1  -6 3407.36 202.411   3
   5   1   6 3361.72 201.964   3
   6  -1   6 47.3434 7.93495   1
  -6  -1  -6 55.6120 5.17660   2
  -6  -1  -6 63.9167 10.8894   1
   6  -1   6 48.7047 5.67705   3
  -6   1  -6 52.8521 4.95059   2
   6   1   6 55.0057 5.59425   3
   7  -1   6 216.998 20.5808   1
  -7  -1  -6 187.223 22.7751   1
  -7  -1  -6 210.895 13.6882   2
   7  -1   6 199.256 14.2233   3
   7   1   6 209.838 13.9698   3
  -7   1  -6 213.515 13.6873   2
  -7   1  -6 203.381 19.7751   1
  -8  -1  -6 140.812 10.4445   2
   8  -1   6 130.984 11.0428   3
   8   1   6 134.191 10.8053   3
  -8   1  -6 131.045 10.3722   2
  -9  -1  -6 478.926 32.1315   2
   9  -1   6 583.714 33.1686   3
  -9   1  -6 489.697 32.0805   2
   9   1   6 506.670 32.5763   3
  10  -1   6 0.86962 4.09941   3
 -10  -1  -6 5.97962 3.09260   2
 -10   1  -6 2.12136 3.03696   2
  10   1   6 5.44736 3.94149   3
 -11  -1  -6 320.447 22.5453   2
 -11   1  -6 314.130 22.3138   2
  11   1   6 368.073 23.4620   3
 -12  -2   6 132.334 12.6792   2
 -12   2   6 126.923 11.9585   2
 -11  -2   6 14.3105 4.50229   2
 -11   2   6 17.7388 5.08098   2
 -10  -2   6 621.204 40.0863   2
 -10   2   6 643.700 39.7061   2
  -9  -2   6 79.2293 8.89139   2
  -9   2   6 84.8460 8.30849   2
  -8  -2   6 312.957 20.4381   2
  -8  -2   6 297.580 19.5505   3
  -8  -2   6 290.642 30.1383   1
   8   2  -6 365.386 40.1629   1
  -8   2   6 272.554 32.3542   1
  -8   2   6 312.769 20.0725   2
   7  -2  -6 440.526 42.8227   1
  -7  -2   6 605.516 34.6390   2
   7  -2  -6 533.558 34.3993   2
  -7  -2   6 627.401 43.4445   1
  -7  -2   6 498.878 33.5243   3
   7   2  -6 617.016 64.9960   1
  -7   2   6 615.268 34.3607   2
  -7   2   6 494.564 42.6463   1
   6  -2  -6 640.069 39.9741   2
  -6  -2   6 704.984 39.4833   3
  -6  -2   6 711.485 40.4482   2
   6  -2  -6 562.653 45.6233   1
  -6   2   6 656.008 40.0263   3
  -6   2   6 628.281 47.4823   1
  -6   2   6 616.374 39.8532   3
   6   2  -6 624.478 40.7064   2
  -6   2   6 743.455 40.2443   2
   5  -2  -6 42.6279 9.24145   1
  -5  -2   6 50.5837 3.61470   3
  -5  -2   6 54.9889 4.96592   2
   5  -2  -6 37.9097 4.46636   2
  -5  -2   6 67.0410 13.7954   1
  -5   2   6 35.8857 9.03703   1
  -5   2   6 56.3501 4.48807   3
  -5   2   6 50.9133 4.50298   2
   5   2  -6 57.3695 12.8395   1
   5   2  -6 43.7151 4.67619   2
   4  -2  -6 1773.51 109.917   1
  -4  -2   6 1849.06 106.660   2
  -4  -2   6 1840.58 112.601   1
   4  -2  -6 1622.52 106.297   2
  -4  -2   6 1789.58 105.850   3
  -4  -2   6 1735.35 105.847   3
  -4   2   6 1824.54 106.465   3
   4   2  -6 1646.51 106.418   2
   4   2  -6 1907.73 113.447   1
  -4   2   6 1864.22 106.451   2
  -4   2   6 1890.34 110.859   1
   3  -2  -6 75.3324 9.24940   1
  -3  -2   6 81.9885 11.6963   1
  -3  -2   6 79.3947 5.63739   2
  -3   2   6 87.0839 9.16942   1
   3   2  -6 75.8575 5.51783   2
  -3   2   6 74.2309 5.36505   2
  -3   2   6 79.6602 5.43696   3
   3   2  -6 69.4209 13.3417   1
   2  -2  -6 562.133 31.9955   2
   2  -2  -6 533.172 34.3176   1
  -2  -2   6 554.919 35.7402   1
  -2  -2   6 527.067 32.1650   2
  -2   2   6 518.032 31.9873   2
  -2   2   6 484.624 32.3419   3
   2   2  -6 557.522 32.1590   2
  -2   2   6 555.955 34.5963   1
   1  -2  -6 953.672 54.0335   2
   1  -2  -6 926.219 56.0576   1
  -1  -2   6 899.012 54.1896   2
  -1  -2   6 962.254 56.0528   1
   1  -2  -6 779.256 54.4860   3
  -1   2   6 894.530 54.0383   2
   1   2  -6 900.862 53.8247   3
  -1   2   6 903.921 56.0552   1
   1   2  -6 981.014 54.1965   2
   0  -2   6 493.082 30.9554   2
   0  -2   6 541.403 31.8435   1
   0  -2  -6 515.742 31.0093   3
   0  -2  -6 532.455 32.8948   1
   0  -2  -6 523.964 32.8098   1
   0  -2  -6 521.859 30.8358   2
   0   2   6 498.078 31.0027   3
   0   2  -6 512.976 30.9494   2
   0   2  -6 500.893 32.8216   1
   0   2  -6 537.871 30.8200   3
  -1  -2  -6 29.8612 5.24275   1
  -1  -2  -6 29.0919 4.91362   1
  -1  -2  -6 32.6330 2.71955   3
   1  -2   6 25.4843 3.14758   3
  -1  -2  -6 30.6715 2.51069   2
  -1   2  -6 32.6636 4.04353   1
  -1   2  -6 31.7693 2.70491   3
  -1   2  -6 28.3651 3.16891   1
  -1   2  -6 32.6368 2.64933   2
   1   2   6 33.2181 2.68161   3
  -2  -2  -6 775.679 46.4891   3
  -2  -2  -6 737.104 48.0770   1
   2   2   6 756.372 46.4889   3
  -2   2  -6 763.928 46.7339   1
   2   2   6 749.235 48.3055   1
  -2   2  -6 886.081 46.7671   3
  -2   2  -6 778.691 46.4202   2
  -2   2  -6 777.918 46.8462   1
   3  -2   6 15.6812 2.58881   3
  -3  -2  -6 18.9282 2.78393   3
  -3  -2  -6 11.1823 3.59673   1
  -3  -2  -6 19.3381 2.43716   2
   3   2   6 11.7251 3.96562   1
  -3   2  -6 12.5515 2.51507   1
  -3   2  -6 17.3237 2.64471   3
   3   2   6 23.6790 2.60019   3
  -3   2  -6 17.8005 2.43578   2
   4  -2   6 3.47126 2.30839   1
   4  -2   6 5.95972 2.29637   3
  -4  -2  -6 3.96099 1.39749   2
  -4  -2  -6 4.09730 1.83765   3
   4   2   6 2.58086 4.16248   1
   4   2   6 3.38185 1.53799   3
  -4   2  -6 3.56050 2.46276   3
  -4   2  -6 -1.2801 2.90733   1
  -5  -2  -6 21.0506 5.50900   1
   5  -2   6 14.3859 3.12955   3
  -5  -2  -6 12.6403 2.51136   2
   5  -2   6 15.1855 4.03494   1
  -5   2  -6 12.3862 2.30365   2
   5   2   6 17.7563 6.17238   1
   5   2   6 12.9797 2.57191   3
  -5   2  -6 18.0498 4.95798   1
  -5   2  -6 14.2880 4.00728   3
   6  -2   6 9.82269 3.06822   3
  -6  -2  -6 2.42715 2.01618   2
  -6  -2  -6 3.21394 5.52129   1
   6  -2   6 5.56603 5.30062   1
   6   2   6 12.8825 2.48298   3
  -6   2  -6 8.66501 5.85123   1
  -6   2  -6 6.17354 2.06201   2
   6   2   6 5.02961 7.33149   1
  -7  -2  -6 1.81601 2.04203   2
  -7  -2  -6 6.44001 7.31531   1
   7  -2   6 0.85539 7.04713   1
   7  -2   6 -0.3064 2.81201   3
  -7   2  -6 7.60853 7.24898   1
   7   2   6 -0.2631 11.5457   1
  -7   2  -6 -0.7749 1.76511   2
   7   2   6 -0.8334 1.99089   3
   8  -2   6 30.4954 4.94068   3
  -8  -2  -6 28.6681 4.22085   2
  -8   2  -6 23.2694 3.61488   2
   8   2   6 20.1247 3.91564   3
  -9  -2  -6 9.21445 3.45989   2
  -9   2  -6 10.5685 3.20491   2
   9   2   6 8.55476 3.43422   3
 -10  -2  -6 9.37881 3.37037   2
 -10   2  -6 10.0116 3.40702   2
  10   2   6 9.26794 4.04161   3
 -11  -2  -6 19.5963 5.11601   2
  11   2   6 15.5423 5.40303   3
 -11   2  -6 15.7190 4.81331   2
 -12  -3   6 3.45092 5.12047   2
 -12   3   6 -1.9223 4.12592   2
 -12   3   6 5.54221 4.44773   3
 -11  -3   6 5.33742 4.19367   2
 -11   3   6 7.59828 6.19024   3
 -10   3   6 3.41039 3.85430   2
 -10   3   6 7.44796 5.08362   3
  -9  -3   6 38.5681 5.62776   2
  -9  -3   6 26.2747 16.4061   1
  -9   3   6 36.8540 5.01551   3
  -9   3   6 32.4773 4.56786   2
  -8  -3   6 8.77220 3.54831   2
  -8  -3   6 5.49974 2.72001   3
  -8  -3   6 25.0528 12.4442   1
   8   3  -6 -12.301 18.7198   1
  -8   3   6 9.40054 3.14742   3
  -8   3   6 11.1217 3.06262   2
   7  -3  -6 194.059 14.1200   2
  -7  -3   6 212.205 14.3144   2
  -7  -3   6 199.818 24.3733   1
   7  -3  -6 139.177 25.4266   1
   7   3  -6 213.401 34.1207   1
  -7   3   6 183.044 13.7500   3
  -7   3   6 200.211 26.4613   1
  -7   3   6 213.927 13.7787   2
  -6  -3   6 132.413 18.6464   1
  -6  -3   6 97.4984 8.02658   2
   6  -3  -6 98.4005 7.77288   2
  -6  -3   6 90.8344 6.32961   3
  -6   3   6 88.0169 7.60349   3
   6   3  -6 89.6665 18.0541   1
  -6   3   6 90.6370 7.73359   3
  -6   3   6 100.536 7.43250   2
  -6   3   6 102.452 17.8977   1
  -5  -3   6 13.4358 2.65399   2
  -5  -3   6 20.1923 8.54919   1
   5  -3  -6 6.58997 2.06839   2
  -5  -3   6 8.59955 1.36848   3
   5  -3  -6 4.01753 6.98125   1
  -5   3   6 9.28590 6.92167   1
  -5   3   6 12.6228 2.31161   3
   5   3  -6 5.43893 2.47618   2
  -5   3   6 8.26407 1.89419   2
   4  -3  -6 972.922 62.4032   1
  -4  -3   6 1093.23 66.2047   1
  -4  -3   6 1012.41 59.1647   2
  -4   3   6 1031.34 63.1636   1
   4   3  -6 899.535 58.9571   2
  -4   3   6 975.480 59.0597   3
  -4   3   6 1022.95 58.8192   2
   4   3  -6 885.009 65.6012   1
   3  -3  -6 520.944 33.4681   1
  -3  -3   6 530.364 30.5168   2
  -3  -3   6 484.324 38.4986   1
   3  -3  -6 471.675 30.1664   2
  -3   3   6 531.425 30.5053   3
   3   3  -6 506.540 30.4295   2
  -3   3   6 527.289 33.6168   1
   3   3  -6 425.088 36.5255   1
  -3   3   6 512.239 30.1774   2
   2  -3  -6 4.29472 0.91528   2
   2  -3  -6 4.26719 1.20299   3
   2  -3  -6 2.94369 3.40268   1
  -2  -3   6 12.7543 6.18519   1
  -2   3   6 5.77752 3.17529   1
   2   3  -6 -0.3109 5.43009   1
   2   3  -6 5.26320 1.41507   2
  -2   3   6 4.83878 1.24331   3
   1  -3  -6 2428.65 141.081   1
  -1  -3   6 2259.12 138.985   2
   1  -3  -6 2334.50 138.759   2
   1  -3  -6 2467.34 139.005   3
  -1  -3   6 2551.37 141.342   1
   1   3  -6 2419.16 138.990   2
  -1   3   6 2247.41 139.044   3
  -1   3   6 2156.73 138.755   2
   1   3  -6 2261.73 138.655   3
  -1   3   6 2373.44 141.130   1
   0  -3  -6 454.884 29.6842   1
   0  -3  -6 485.023 27.6296   3
   0  -3   6 473.476 28.3710   1
   0  -3  -6 448.744 27.3481   2
   0  -3   6 442.149 27.5470   2
   0  -3  -6 461.747 29.7820   1
   0   3  -6 455.196 27.5430   2
   0   3  -6 473.432 27.5188   3
   0   3   6 437.505 27.6324   3
  -1  -3  -6 262.798 15.9778   3
  -1  -3  -6 274.299 15.7654   2
  -1  -3  -6 255.028 18.4300   1
   1  -3   6 248.014 15.8535   2
  -1  -3  -6 250.050 17.9553   1
  -1   3  -6 259.743 16.1359   3
  -1   3  -6 268.420 15.8988   2
   1   3   6 260.907 16.0207   3
  -1   3  -6 262.566 15.9184   1
  -2  -3  -6 2884.98 169.905   3
  -2  -3  -6 2808.78 171.783   1
  -2  -3  -6 2967.48 169.828   2
  -2   3  -6 2869.26 170.242   3
   2   3   6 2752.19 169.898   3
  -2   3  -6 2916.63 169.802   2
   2   3   6 2895.83 172.099   1
   3  -3   6 1145.50 75.3042   3
  -3  -3  -6 1300.83 74.6887   2
  -3  -3  -6 1268.81 74.7743   3
  -3  -3  -6 1247.91 76.8866   1
  -3   3  -6 1284.72 74.3517   1
   3   3   6 1266.25 74.7400   3
  -3   3  -6 1311.94 74.6397   2
  -3   3  -6 1216.16 75.2505   3
   3   3   6 1244.69 77.3449   1
  -4  -3  -6 131.262 8.64071   2
   4  -3   6 126.897 9.64986   3
  -4  -3  -6 126.137 11.8505   1
  -4  -3  -6 135.068 9.02285   3
   4   3   6 119.798 8.55827   3
  -4   3  -6 125.632 10.8232   1
   4   3   6 145.223 13.3131   1
  -4   3  -6 127.452 8.57253   2
  -4   3  -6 120.777 9.88244   3
  -5  -3  -6 1659.62 100.740   2
  -5  -3  -6 1624.83 101.567   3
  -5  -3  -6 1657.15 103.754   1
   5  -3   6 1711.41 101.401   1
   5  -3   6 1904.24 101.859   3
   5   3   6 1641.08 104.592   1
  -5   3  -6 1716.59 100.601   2
  -5   3  -6 1756.53 103.034   1
  -5   3  -6 1582.72 101.663   3
   5   3   6 1656.71 100.737   3
  -6  -3  -6 443.523 30.0568   2
  -6  -3  -6 478.437 34.3483   1
   6  -3   6 542.592 34.4411   1
  -6   3  -6 494.917 29.9401   2
  -6   3  -6 549.444 34.3918   1
   6   3   6 464.005 30.0655   3
   6   3   6 460.842 36.0466   1
  -7  -3  -6 77.9875 12.3411   1
  -7  -3  -6 100.213 8.01644   2
   7  -3   6 109.710 16.1463   1
  -7   3  -6 97.5550 7.61776   2
   7   3   6 113.345 8.10718   3
  -8  -3  -6 551.545 35.8147   2
   8   3   6 590.955 35.9898   3
  -8   3  -6 586.588 35.6389   2
  -9  -3  -6 249.603 17.9137   2
   9   3   6 275.762 18.2456   3
  -9   3  -6 262.788 17.6435   2
 -10  -3  -6 22.4433 4.48589   2
 -10   3  -6 23.2482 4.32814   2
  10   3   6 20.4664 4.69903   3
 -11  -3  -6 178.487 13.5531   2
  11   3   6 141.310 13.6158   3
 -11   3  -6 150.837 12.8168   2
 -11  -4   6 51.7780 8.63696   2
 -11   4   6 52.9753 8.31300   3
 -10  -4   6 239.157 17.7059   2
 -10   4   6 211.281 16.8286   3
 -10   4   6 229.852 16.4770   2
  -9  -4   6 214.493 15.4521   2
  -9  -4   6 144.720 30.7020   1
  -9   4   6 214.253 14.5403   2
  -9   4   6 193.752 14.9895   3
  -8  -4   6 63.2474 7.31468   2
  -8  -4   6 40.6972 14.1647   1
   8   4  -6 46.5538 23.2330   1
  -8   4   6 54.8048 6.88946   3
  -8   4   6 62.6158 6.45051   2
  -7  -4   6 1034.80 67.0331   1
  -7  -4   6 920.624 57.3034   3
  -7  -4   6 964.608 58.4409   2
   7  -4  -6 1012.74 58.0634   2
  -7   4   6 883.604 58.2268   3
  -7   4   6 850.930 66.1056   1
  -7   4   6 1023.35 57.9580   2
   7   4  -6 959.682 71.6865   1
  -6  -4   6 148.471 11.1579   2
   6  -4  -6 156.033 11.0552   2
  -6  -4   6 188.555 20.9948   1
   6  -4  -6 135.499 19.9463   1
  -6  -4   6 148.208 9.64298   3
  -6   4   6 162.611 10.7106   2
  -6   4   6 158.144 20.1784   1
  -6   4   6 156.951 11.3821   3
   5  -4  -6 261.364 23.5706   1
  -5  -4   6 276.579 17.0354   3
  -5  -4   6 301.648 26.6096   1
   5  -4  -6 273.748 17.9182   2
  -5  -4   6 324.617 18.4209   2
   5   4  -6 250.910 18.2880   2
  -5   4   6 285.461 24.0148   1
  -5   4   6 317.578 17.8581   2
  -5   4   6 293.625 18.3952   3
   5   4  -6 240.375 29.4401   1
  -4  -4   6 636.398 43.8334   1
  -4  -4   6 627.330 36.8355   2
   4  -4  -6 599.722 40.4754   1
  -4   4   6 626.600 40.8059   1
   4   4  -6 555.341 36.6757   2
  -4   4   6 615.930 36.5852   2
   4   4  -6 569.022 44.2028   1
  -4   4   6 613.891 36.8959   3
   3  -4  -6 355.425 23.7259   1
  -3  -4   6 336.882 26.8865   1
  -3  -4   6 350.296 20.3412   2
   3  -4  -6 285.711 19.8823   2
  -3   4   6 338.055 23.7401   1
   3   4  -6 309.239 26.5612   1
  -3   4   6 343.664 20.4500   3
  -3   4   6 330.299 19.8049   2
   3   4  -6 319.281 20.2615   2
  -2  -4   6 75.6900 5.26592   2
   2  -4  -6 70.3547 4.79158   2
  -2  -4   6 59.6842 9.60323   1
   2  -4  -6 77.2720 9.02629   1
   2  -4  -6 78.8845 5.31505   3
  -2   4   6 72.5378 4.71954   2
  -2   4   6 77.4036 5.39156   3
  -2   4   6 78.9870 8.60919   1
   2   4  -6 46.0764 11.8826   1
   2   4  -6 74.0393 4.44417   3
   2   4  -6 76.9378 5.32990   2
  -1  -4   6 1485.15 91.2501   2
   1  -4  -6 1515.09 90.9491   2
   1  -4  -6 1610.98 91.3489   3
  -1  -4   6 1584.02 94.1153   1
   1  -4  -6 1560.00 93.8044   1
   1  -4  -6 1549.53 93.5589   1
   1   4  -6 1422.20 91.0932   3
   1   4  -6 1574.20 93.6943   1
  -1   4   6 1525.15 91.4167   3
   1   4  -6 1605.22 91.2852   2
   1   4  -6 1499.71 90.9137   3
   0  -4  -6 125.703 11.1586   1
   0  -4  -6 131.971 8.33752   3
   0  -4   6 131.827 9.37547   1
   0  -4   6 128.226 8.14301   2
   0  -4  -6 124.288 7.79879   2
   0   4  -6 132.426 8.17157   2
   0   4  -6 113.468 8.35332   3
   0   4  -6 128.271 9.43604   1
   0   4   6 127.957 8.31846   3
  -1  -4  -6 84.1532 5.29392   2
  -1  -4  -6 83.4938 5.77375   3
   1  -4   6 80.1775 5.48193   2
  -1  -4  -6 84.2680 9.16105   1
  -1  -4  -6 75.3605 8.49883   1
  -1   4  -6 81.0571 5.55281   2
  -1   4  -6 82.9825 6.93088   3
   1   4   6 82.5150 5.74346   3
  -2  -4  -6 153.791 9.06240   2
  -2  -4  -6 140.193 9.25166   3
  -2  -4  -6 127.715 11.8530   1
   2   4   6 136.524 9.18657   3
  -2   4  -6 127.810 9.92952   3
  -2   4  -6 139.762 8.95237   2
   2   4   6 137.563 12.4751   1
  -3  -4  -6 8.57515 4.33505   1
  -3  -4  -6 7.76512 1.99851   3
  -3  -4  -6 9.45166 1.82138   2
  -3   4  -6 9.07550 1.72549   2
  -3   4  -6 5.00516 3.18206   3
   3   4   6 10.7723 5.19206   1
   3   4   6 4.53057 1.72136   3
  -4  -4  -6 3.75415 2.32883   3
  -4  -4  -6 5.68893 1.84019   2
  -4  -4  -6 7.15450 4.60172   1
   4   4   6 7.24604 1.84003   3
  -4   4  -6 4.96443 1.81825   2
   4   4   6 4.41473 5.61584   1
  -5  -4  -6 61.4859 5.50544   2
  -5  -4  -6 47.1244 8.23309   1
   5   4   6 59.7051 5.44214   3
   5   4   6 58.9994 10.1486   1
  -5   4  -6 54.6775 4.88095   1
  -5   4  -6 49.4137 5.40327   2
  -5   4  -6 52.7748 4.97176   2
  -6  -4  -6 -0.6163 2.21925   2
   6  -4   6 2.12143 3.55324   1
  -6  -4  -6 5.50632 6.51786   1
  -6   4  -6 0.90281 2.05809   2
  -6   4  -6 1.19195 4.53405   1
   6   4   6 1.91494 2.28986   3
   6   4   6 6.75456 9.70672   1
   7  -4   6 7.89880 5.82130   1
  -7  -4  -6 6.47251 2.63739   2
   7   4   6 10.5596 2.55297   3
  -7   4  -6 3.95185 2.09885   2
  -7   4  -6 6.23980 6.79503   1
  -8  -4  -6 10.7704 3.54240   2
  -8   4  -6 11.1423 3.28717   2
   8   4   6 13.1743 3.76262   3
  -9  -4  -6 30.6538 4.81100   2
   9   4   6 28.1186 4.75130   3
  -9   4  -6 28.0966 4.30067   2
 -10  -4  -6 4.69714 3.73947   2
  10   4   6 2.24227 3.63254   3
 -10   4  -6 4.16189 3.26580   2
 -11  -4  -6 49.3718 6.87399   2
  11   4   6 37.9363 6.66593   3
 -11   4  -6 49.1946 6.49293   2
 -11  -5   6 -2.2675 4.49435   2
 -11   5   6 -3.0508 4.28077   3
 -10  -5   6 9.79373 5.18669   2
 -10   5   6 12.9961 7.99302   3
 -10   5   6 15.5455 4.32539   2
  -9  -5   6 10.0998 4.41411   2
  -9   5   6 9.40833 3.50430   2
  -9   5   6 8.49731 4.37458   3
  -8  -5   6 0.84505 15.2189   1
  -8  -5   6 11.2348 4.15803   2
  -8  -5   6 12.2872 4.00498   3
   8   5  -6 -18.225 24.2245   1
  -8   5   6 4.39472 3.57891   3
  -7  -5   6 24.1168 3.48190   3
   7  -5  -6 19.1020 4.47681   2
  -7  -5   6 27.0372 12.6614   1
  -7  -5   6 23.3396 4.44717   2
  -7   5   6 31.6012 5.00801   2
  -7   5   6 22.7762 4.46521   3
   7   5  -6 18.9816 19.4793   1
  -6  -5   6 189.963 25.0596   1
  -6  -5   6 227.752 15.0387   2
   6  -5  -6 221.890 14.5251   2
   6  -5  -6 181.721 24.1387   1
  -6  -5   6 214.341 13.3175   3
   6   5  -6 192.212 32.6877   1
  -6   5   6 216.026 23.1184   1
  -6   5   6 223.454 15.1914   3
  -6   5   6 231.642 14.1703   2
  -5  -5   6 16.9370 3.11348   2
  -5  -5   6 29.0939 10.4770   1
   5  -5  -6 23.5375 3.82800   2
   5  -5  -6 6.37226 7.78252   1
  -5   5   6 22.0996 3.53535   3
  -5   5   6 23.9849 2.99666   2
   5   5  -6 -0.0149 11.7536   1
  -5   5   6 14.9995 7.35785   1
  -4  -5   6 855.623 57.7412   1
   4  -5  -6 838.628 50.4993   2
   4  -5  -6 854.940 54.7389   1
  -4  -5   6 916.008 51.0116   2
  -4   5   6 871.804 54.9741   1
   4   5  -6 833.730 49.9685   3
   4   5  -6 748.747 50.8304   2
  -4   5   6 827.859 50.2502   2
   4   5  -6 846.041 58.0977   1
  -4   5   6 863.060 51.1777   3
  -3  -5   6 167.200 18.5479   1
   3  -5  -6 170.419 14.6242   1
   3  -5  -6 142.740 10.2095   2
  -3  -5   6 179.847 10.7871   2
   3   5  -6 154.834 10.8579   2
  -3   5   6 167.837 9.97469   2
   3   5  -6 165.362 17.5907   1
  -3   5   6 152.586 14.6085   1
  -3   5   6 174.777 11.0811   3
  -2  -5   6 145.274 8.34071   2
   2  -5  -6 120.717 12.2503   1
   2  -5  -6 110.504 7.72047   2
  -2  -5   6 127.163 15.2641   1
   2   5  -6 116.730 8.00697   3
   2   5  -6 126.878 7.59245   3
  -2   5   6 131.374 8.59227   3
   2   5  -6 120.288 8.36476   2
   2   5  -6 132.960 12.9905   1
   1  -5  -6 175.477 10.3551   2
   1  -5  -6 174.238 17.9302   1
  -1  -5   6 176.426 10.8923   2
   1  -5  -6 174.920 11.1698   3
   1  -5  -6 175.621 14.6567   1
  -1  -5   6 165.629 15.4247   1
  -1   5   6 162.887 11.1835   3
   1   5  -6 160.259 10.8984   2
   1   5  -6 173.907 10.4661   3
   1   5  -6 173.908 13.2334   1
   0  -5  -6 1408.79 85.6306   3
   0  -5   6 1396.29 85.4399   2
   0  -5  -6 1427.37 88.2474   1
   0  -5  -6 1414.38 85.1234   2
   0  -5  -6 1573.69 85.3038   2
   0  -5  -6 1394.72 88.1481   1
   0  -5   6 1494.43 86.8043   1
   0   5   6 1392.57 85.6997   3
   0   5  -6 1457.16 85.4804   2
   0   5  -6 1439.04 86.0610   1
  -1  -5  -6 107.201 6.92707   2
  -1  -5  -6 107.152 6.61150   2
  -1  -5  -6 106.246 10.9905   1
  -1  -5  -6 99.7582 7.35443   3
  -1  -5  -6 92.8424 11.6388   1
  -1   5  -6 105.593 6.96537   2
   1   5   6 107.950 7.30885   3
  -2  -5  -6 2651.72 156.544   3
  -2  -5  -6 2622.34 159.126   1
  -2  -5  -6 2714.51 156.431   2
  -2   5  -6 2612.42 156.295   2
   2   5   6 2616.32 159.447   1
   2   5   6 2626.95 156.549   3
  -3  -5  -6 341.207 23.9147   1
  -3  -5  -6 333.990 20.3895   2
  -3  -5  -6 303.792 20.4280   3
   3   5   6 336.237 24.7514   1
  -3   5  -6 332.388 20.1486   2
   3   5   6 346.127 20.4488   3
  -3   5  -6 302.988 21.6756   3
  -4  -5  -6 219.902 14.3131   2
  -4  -5  -6 223.286 18.4671   1
   4   5   6 207.743 20.0950   1
  -4   5  -6 217.463 14.0253   2
  -4   5  -6 228.125 16.6086   3
   4   5   6 224.315 14.1480   3
  -5  -5  -6 115.781 9.41909   2
  -5  -5  -6 103.026 14.5178   1
   5   5   6 154.408 9.38863   3
   5   5   6 133.396 17.4240   1
  -5   5  -6 108.785 9.28386   2
  -6  -5  -6 612.078 44.0250   1
  -6  -5  -6 582.757 38.6567   2
  -6   5  -6 665.127 38.3180   2
   6   5   6 619.268 46.7559   1
   6   5   6 660.469 38.5871   3
  -7  -5  -6 29.5978 4.19259   2
  -7   5  -6 31.3567 4.21606   2
   7   5   6 20.0655 3.41464   3
  -8  -5  -6 817.961 50.1917   2
   8   5   6 912.383 50.1543   3
  -8   5  -6 687.688 50.7112   1
  -8   5  -6 843.931 49.6999   2
   9   5   6 52.3027 8.94299   3
  -9   5  -6 63.4572 7.09555   2
 -10  -5  -6 25.2363 5.05157   2
 -10   5  -6 21.6089 4.18454   2
  10   5   6 22.6474 4.52366   3
 -11  -6   6 60.1627 8.19715   2
 -11   6   6 58.5453 10.2739   2
 -11   6   6 37.0382 6.76978   3
 -10  -6   6 16.3435 6.19259   2
 -10   6   6 11.5817 5.44859   3
 -10   6   6 11.6999 4.34090   2
  -9   6   6 185.485 13.4643   2
  -9   6   6 184.008 17.1659   3
  -8  -6   6 14.5945 4.22612   2
  -8   6   6 16.6525 3.48052   2
  -8   6   6 14.2097 4.51389   3
  -7  -6   6 770.028 44.9545   2
  -7  -6   6 728.010 43.3673   3
  -7   6   6 751.534 43.9113   2
   7   6  -6 592.219 62.8962   1
  -7   6   6 706.509 45.1137   3
  -6  -6   6 40.6365 14.6508   1
  -6  -6   6 69.3009 6.80095   2
   6  -6  -6 52.0520 6.18420   2
  -6  -6   6 62.6234 4.44803   3
  -6   6   6 52.5599 7.17661   3
   6   6  -6 55.5671 4.37288   3
  -6   6   6 54.0188 5.01556   2
   5  -6  -6 268.491 16.9474   2
   5  -6  -6 238.210 23.8650   1
  -5  -6   6 253.494 27.5945   1
  -5  -6   6 290.807 17.4459   2
   5   6  -6 276.025 16.0540   3
  -5   6   6 222.305 16.7318   2
  -5   6   6 280.901 24.0377   1
   5   6  -6 255.308 29.9145   1
  -5   6   6 289.416 17.9180   3
   4  -6  -6 11.7252 7.84148   1
  -4  -6   6 31.4977 4.39749   2
  -4  -6   6 13.4148 9.83251   1
   4  -6  -6 23.2643 3.12846   2
  -4   6   6 22.2476 3.66057   3
  -4   6   6 19.0351 7.08539   1
   4   6  -6 27.6912 2.30735   3
   4   6  -6 20.7152 9.97267   1
  -4   6   6 25.5344 2.22042   2
  -3  -6   6 310.809 18.0104   2
  -3  -6   6 246.016 25.4814   1
   3  -6  -6 305.086 22.5600   1
  -3   6   6 277.268 18.3034   3
   3   6  -6 254.765 18.0996   2
   3   6  -6 304.925 17.2188   3
   3   6  -6 300.309 23.8441   1
  -2  -6   6 35.6238 8.38413   1
   2  -6  -6 12.1906 5.52894   1
   2  -6  -6 15.3685 5.78694   1
   2  -6  -6 18.2477 2.85621   3
  -2  -6   6 22.3493 2.80691   2
  -2   6   6 18.0270 2.74429   3
   2   6  -6 18.2514 1.85391   3
   2   6  -6 17.5856 5.38163   1
   2   6  -6 18.2042 2.57279   2
   1  -6  -6 1141.92 70.6609   1
   1  -6  -6 1152.65 67.6026   3
  -1  -6   6 1169.27 67.3341   2
  -1  -6   6 933.220 70.8095   1
   1  -6  -6 1208.40 70.6624   1
  -1   6   6 1161.41 67.7126   3
   1   6  -6 1024.58 67.2199   3
   1   6  -6 1193.60 69.0371   1
   1   6  -6 1185.08 67.4234   2
   0  -6   6 37.7881 5.60462   1
   0  -6  -6 26.8009 2.69451   2
   0  -6  -6 36.7975 4.00353   3
   0  -6  -6 25.1760 5.96784   1
   0  -6   6 34.0443 3.21892   2
   0  -6  -6 35.3038 6.76868   1
   0  -6  -6 36.6584 2.35298   2
   0   6   6 39.7397 3.80201   3
   0   6  -6 32.6964 3.43997   2
   0   6  -6 28.5852 4.69841   1
   0   6  -6 38.7787 4.91889   3
   0   6  -6 35.9849 3.04827   3
  -1  -6  -6 73.2861 5.89324   3
  -1  -6  -6 62.8417 5.12282   2
  -1  -6  -6 78.0442 11.9765   1
  -1  -6  -6 74.0403 4.67793   2
  -1  -6  -6 75.6960 10.1933   1
  -1   6  -6 72.6080 5.29198   3
   1   6   6 78.5463 5.73240   3
  -1   6  -6 76.8908 5.27764   2
  -1   6  -6 57.4094 6.92951   3
  -2  -6  -6 2.52953 5.11938   1
   2   6   6 1.58546 2.09155   3
  -2   6  -6 3.77450 1.67973   2
  -2   6  -6 3.09908 3.39106   3
  -3  -6  -6 7.14658 5.76178   1
  -3  -6  -6 5.46777 2.03944   2
   3   6   6 -7.3999 6.16875   1
  -3   6  -6 -6.5874 3.98145   3
   3   6   6 -0.9601 1.76992   3
  -3   6  -6 0.63842 1.62461   2
  -4  -6  -6 2.07941 6.32798   1
  -4  -6  -6 8.59516 2.45117   2
   4   6   6 10.0041 2.35454   3
   4   6   6 7.04377 8.31031   1
  -4   6  -6 6.03356 2.17293   2
  -5  -6  -6 56.4632 10.5708   1
  -5  -6  -6 51.0371 6.24465   2
  -5   6  -6 72.0184 5.70698   2
   5   6   6 68.7983 15.3817   1
   5   6   6 65.2097 6.15492   3
  -6  -6  -6 5.56134 2.97801   2
  -6  -6  -6 7.17981 9.41426   1
  -6   6  -6 3.28794 2.20649   2
   6   6   6 -2.8196 2.47521   3
  -7  -6  -6 4.23125 3.16095   2
   7   6   6 0.60035 2.55206   3
  -7   6  -6 1.61742 2.18043   2
  -8  -6  -6 -0.3349 3.76600   2
  -8   6  -6 -1.0205 2.88482   2
   8   6   6 -3.3974 3.03648   3
  -9  -6  -6 48.7702 7.95890   2
  -9   6  -6 38.8466 5.90754   2
   9   6   6 55.2814 7.32681   3
 -10  -6  -6 0.03465 4.55049   2
 -10   6  -6 -1.0859 3.57513   2
  10   6   6 -2.8974 4.00980   3
 -10  -7   6 9.63632 5.40412   2
 -10   7   6 16.8104 5.99715   3
  -9  -7   6 1.49298 4.55602   2
  -9   7   6 0.67695 3.37165   2
  -9   7   6 -0.7045 4.94059   3
  -8  -7   6 16.8845 4.61497   2
  -8   7   6 23.2146 3.58705   2
  -8   7   6 28.5232 5.54817   3
  -7  -7   6 -3.1542 3.44092   2
  -7   7   6 2.21974 2.22408   2
  -7   7   6 0.18187 4.04731   3
  -6  -7   6 116.564 9.22107   2
   6   7  -6 101.944 7.17364   3
  -6   7   6 108.275 9.96404   3
  -5  -7   6 8.67128 2.75651   2
  -5   7   6 9.50996 1.47193   2
  -5   7   6 11.8873 3.44934   3
   5   7  -6 13.5947 2.16179   3
   5   7  -6 2.78082 13.2574   1
  -4  -7   6 779.553 45.5498   2
   4  -7  -6 717.667 51.4973   1
  -4  -7   6 608.584 53.8132   1
   4   7  -6 844.922 44.6862   3
   4   7  -6 737.557 52.2506   1
  -4   7   6 766.861 46.1810   3
  -3  -7   6 8.02446 9.56906   1
   3  -7  -6 6.24495 7.36096   1
   3  -7  -6 2.68026 7.22042   1
  -3  -7   6 5.12516 1.98696   2
  -3   7   6 5.13592 2.59745   3
   3   7  -6 3.17423 1.06682   3
   3   7  -6 3.00999 2.78012   2
   3   7  -6 7.67246 7.09958   1
   2  -7  -6 -2.7837 6.11571   1
   2  -7  -6 4.76552 6.44431   1
  -2  -7   6 4.98228 1.70929   2
  -2  -7   6 12.4492 8.75491   1
  -2   7   6 2.50127 2.24593   3
   2   7  -6 2.17979 2.26244   2
   2   7  -6 3.06936 5.05976   1
   1  -7  -6 104.472 14.4836   1
   1  -7  -6 102.294 13.1209   1
  -1  -7   6 116.744 7.79512   2
  -1  -7   6 112.172 16.1476   1
   1   7  -6 106.280 10.7645   1
   1   7  -6 113.548 8.12926   2
  -1   7   6 116.949 8.45573   3
   1   7  -6 117.307 7.46364   3
   0  -7   6 605.568 36.5458   2
   0  -7  -6 608.959 40.7447   1
   0  -7   6 584.077 39.4707   1
   0  -7  -6 596.275 40.8283   1
   0   7  -6 608.880 37.4510   1
   0   7  -6 643.224 36.5632   3
   0   7   6 599.971 37.0537   3
   0   7  -6 618.874 36.7012   2
  -1  -7  -6 15.8344 2.16008   2
  -1  -7  -6 10.8124 6.23357   1
  -1  -7  -6 17.9139 1.67503   2
  -1  -7  -6 6.95235 7.12498   1
   1   7   6 20.0585 2.87260   3
  -1   7  -6 17.1529 2.34730   2
  -1   7  -6 8.01494 3.77036   3
  -1   7  -6 26.8361 3.01863   3
  -2  -7  -6 1763.53 114.323   1
   2   7   6 1922.11 111.035   3
  -2   7  -6 1864.05 110.604   2
  -2   7  -6 1901.13 110.943   3
  -3  -7  -6 -1.7022 6.59089   1
  -3  -7  -6 1.70156 2.11860   2
   3   7   6 2.69305 2.28845   3
   3   7   6 5.39960 8.19043   1
  -3   7  -6 1.62006 1.98862   2
  -4  -7  -6 68.8903 6.53541   2
  -4  -7  -6 91.8699 14.9696   1
   4   7   6 63.3585 12.5377   1
  -4   7  -6 75.4500 6.21814   2
  -5  -7  -6 77.2404 7.67824   2
  -5  -7  -6 64.2841 12.0304   1
   5   7   6 46.3414 14.4155   1
   5   7   6 70.3253 7.28541   3
  -5   7  -6 82.8498 6.55279   2
  -6  -7  -6 428.501 28.1202   2
   6   7   6 450.358 27.7417   3
  -6   7  -6 443.082 27.2910   2
  -7  -7  -6 1.22138 3.33274   2
  -7   7  -6 2.44476 2.45064   2
   7   7   6 -0.2105 2.65040   3
  -8  -7  -6 640.819 36.8336   2
   8   7   6 537.653 37.1338   3
  -8   7  -6 544.336 35.5397   2
  -9  -7  -6 1.71826 4.80541   2
   9   7   6 3.39404 3.99541   3
  -9  -8   6 79.4852 10.7916   2
  -9   8   6 81.4783 11.6917   3
  -8   8   6 10.8434 5.25144   3
  -7  -8   6 431.076 27.2396   2
  -7   8   6 391.504 30.3379   3
  -6  -8   6 11.6605 3.52851   2
  -6   8   6 9.90635 4.45496   3
  -5  -8   6 104.537 8.40110   2
  -5   8   6 102.923 9.30251   3
  -4  -8   6 146.279 10.2334   2
  -4   8   6 138.324 11.0934   3
  -3  -8   6 105.384 7.70493   2
  -3   8   6 105.991 8.79271   3
   3   8  -6 107.693 6.97292   3
   2  -8  -6 31.0709 9.66630   1
  -2  -8   6 45.7064 4.22985   2
   2   8  -6 41.0037 8.09530   1
   2   8  -6 40.5464 5.63441   2
  -2   8   6 50.9888 5.50357   3
   2   8  -6 45.1410 3.64665   3
   1  -8  -6 415.562 30.5193   1
  -1  -8   6 414.849 24.9782   2
   1  -8  -6 402.491 32.0644   1
   1   8  -6 449.621 24.8772   3
  -1   8   6 427.094 25.7270   3
   1   8  -6 383.906 27.4260   1
   1   8  -6 370.592 25.2567   2
   0  -8  -6 -0.7828 8.24142   1
   0  -8  -6 -7.2647 6.95624   1
   0  -8   6 3.63982 1.49282   2
   0  -8   6 -2.5562 6.82577   1
   0   8  -6 4.44261 1.60221   3
   0   8   6 2.90446 2.33979   3
   0   8  -6 4.58561 3.62001   3
   0   8  -6 4.15339 2.19769   2
  -1  -8  -6 55.7542 10.1546   1
  -1  -8  -6 64.6861 12.3841   1
  -1   8  -6 73.1838 5.60860   3
  -1   8  -6 72.2184 5.82563   2
   1   8   6 74.7815 6.33880   3
  -2  -8  -6 40.8552 3.65911   2
  -2  -8  -6 22.9301 17.1742   1
  -2  -8  -6 42.9609 3.27543   2
  -2  -8  -6 20.0195 8.92789   1
   2   8   6 41.0436 5.24582   3
  -2   8  -6 50.2554 4.82452   3
  -2   8  -6 38.1262 4.60974   2
  -3  -8  -6 -1.0178 8.22645   1
  -3  -8  -6 -0.9664 1.96983   2
  -3   8  -6 0.14328 2.22810   2
   3   8   6 0.55557 2.32885   3
  -3   8  -6 0.78998 2.45976   3
  -4  -8  -6 17.7312 3.12458   2
  -4  -8  -6 5.87791 9.63005   1
   4   8   6 9.88198 12.1534   1
   4   8   6 21.6833 3.30344   3
  -4   8  -6 20.4993 3.78050   3
  -4   8  -6 11.4535 3.18631   2
  -4   8  -6 25.0285 3.52979   2
  -5  -8  -6 19.5130 12.1217   1
  -5  -8  -6 8.59683 3.33946   2
   5   8   6 7.62956 3.23684   3
  -5   8  -6 7.02396 2.39861   2
  -6  -8  -6 6.91522 3.65848   2
   6   8   6 3.32924 3.09772   3
  -6   8  -6 -1.0951 2.16230   2
  -7  -8  -6 0.84616 3.83507   2
  -7   8  -6 0.12965 2.43057   2
  -8  -8  -6 -2.0500 5.22384   2
   8   8   6 -4.7964 3.43659   3
  -8   8  -6 0.09721 3.33100   2
  -9  -8  -6 38.6523 6.97240   2
   9   8   6 17.2574 5.23671   3
  -9   8  -6 26.3645 4.96652   2
  -8  -9   6 1.25916 4.73933   2
  -8   9   6 0.99437 5.50174   3
  -7  -9   6 18.3952 4.55992   2
  -7   9   6 11.8988 5.45852   3
  -6  -9   6 63.5173 7.46805   2
  -6   9   6 61.6759 9.62592   3
  -5  -9   6 -2.1170 2.44016   2
  -5   9   6 6.68172 3.91984   3
   5   9  -6 1.70553 1.70340   3
  -4  -9   6 185.870 12.9785   2
  -4   9   6 188.098 14.4134   3
   4   9  -6 199.962 12.1241   3
  -3  -9   6 110.112 8.04293   2
   3   9  -6 112.980 7.40757   3
  -3   9   6 106.768 9.31508   3
  -2  -9   6 6.20510 1.90353   2
   2   9  -6 7.98507 4.27080   2
   2   9  -6 7.37429 1.61820   3
  -2   9   6 4.36675 2.83944   3
  -1  -9   6 200.674 12.4273   2
  -1   9   6 201.714 13.5323   3
   1   9  -6 201.741 12.3688   3
   1   9  -6 164.116 13.3323   2
   0  -9   6 287.139 20.2359   1
   0   9   6 323.385 19.4812   3
   0   9  -6 297.595 18.5363   3
   0   9  -6 281.803 18.9941   2
   1   9   6 13.1971 3.01910   3
  -1   9  -6 11.8113 2.44457   3
  -1   9  -6 13.9075 3.02454   2
   2   9   6 477.376 28.4807   3
  -2   9  -6 452.487 28.1111   3
  -2   9  -6 430.406 27.8265   2
  -3  -9  -6 141.804 9.40354   2
  -3   9  -6 132.046 10.5865   3
  -3   9  -6 136.828 12.8823   2
   3   9   6 151.785 10.7439   3
  -4  -9  -6 41.3286 5.05512   2
   4   9   6 8.41255 24.7752   1
  -4   9  -6 37.2857 5.08889   3
  -4   9  -6 45.9476 4.62812   2
   4   9   6 39.3570 5.64321   3
  -5  -9  -6 224.544 16.3036   2
  -5   9  -6 254.945 15.6481   2
   5   9   6 231.466 16.4556   3
  -5   9  -6 247.315 17.7163   3
  -6  -9  -6 181.908 14.0071   2
   6   9   6 173.495 14.7888   3
  -6   9  -6 188.286 12.6017   2
  -7  -9  -6 16.5037 5.23245   2
   7   9   6 18.8949 4.26821   3
  -7   9  -6 15.5829 6.08819   3
  -7   9  -6 19.4776 3.68700   2
  -8   9  -6 155.087 12.1992   2
   8   9   6 145.885 12.6153   3
  -7 -10   6 63.3081 8.95044   2
  -7  10   6 48.5732 8.24384   3
  -6 -10   6 27.9176 4.70061   2
  -6  10   6 18.6758 5.64999   3
  -5 -10   6 25.9137 4.02658   2
   5  10  -6 29.3853 3.99505   3
  -5  10   6 42.2219 6.19930   3
  -4 -10   6 216.831 14.8784   2
   4  10  -6 246.762 14.2090   3
  -4  10   6 187.879 20.1132   3
  -3 -10   6 28.2819 4.22528   2
   3  10  -6 27.8181 3.49034   3
  -3  10   6 28.0574 4.90091   3
  -2 -10   6 62.9119 5.22402   2
  -2  10   6 56.9250 7.02183   3
   2  10  -6 58.5404 4.98358   3
  -1 -10   6 60.6348 5.31201   2
  -1  10   6 68.5242 6.95800   3
   1  10  -6 61.9603 5.44323   3
   0  10  -6 -2.5333 1.88503   3
   0  10   6 1.14341 2.80275   3
   1  10   6 8.88464 3.26127   3
  -1  10  -6 14.3155 2.70971   3
   2  10   6 104.501 8.53900   3
  -2  10  -6 94.9750 8.21130   3
   3  10   6 1.15348 2.99919   3
  -3  10  -6 3.79456 2.09996   2
  -3  10  -6 0.55409 2.87012   3
  -4 -10  -6 20.4824 2.86487   2
  -4  10  -6 19.8734 2.94606   2
  -4  10  -6 22.0036 4.40174   3
  -5 -10  -6 5.33331 3.36574   2
  -5  10  -6 9.85251 7.35558   3
  -5  10  -6 4.65602 2.68209   2
   5  10   6 6.85526 3.58953   3
  -6 -10  -6 13.2525 4.47937   2
  -6  10  -6 8.39224 3.26727   2
  -6  10  -6 11.1000 5.46156   3
   6  10   6 7.74349 3.81571   3
  -7 -10  -6 -3.6782 5.26575   2
  -7  10  -6 11.3683 6.35190   3
   7  10   6 -4.0773 3.87122   3
  -6  11   6 8.32154 5.61883   3
  -5 -11   6 11.6566 3.61072   2
  -5  11   6 13.3450 5.48575   3
  -4 -11   6 22.9373 3.84837   2
   4  11  -6 36.2912 4.64327   3
  -4  11   6 39.6990 6.29566   3
  -3 -11   6 91.9174 7.47398   2
   3  11  -6 96.1779 7.16683   3
  -3  11   6 97.5842 9.90704   3
  -2 -11   6 2.08948 2.03738   2
   2  11  -6 0.30093 2.05810   3
  -2  11   6 -1.1246 3.29373   3
  -1  11   6 245.068 17.5050   3
   1  11  -6 248.217 15.8982   3
   0  11  -6 45.1553 5.28207   3
   0  11   6 44.5334 6.91477   3
  -1  11  -6 1.95692 2.56273   3
   1  11   6 0.59235 3.31040   3
  -2  11  -6 38.1631 6.31463   3
   2  11   6 45.3169 6.91210   3
   3  11   6 129.638 11.0215   3
  -3  11  -6 137.170 11.1404   3
  -3  11  -6 141.759 10.4650   2
  -4  11  -6 0.34842 3.93120   3
   4  11   6 3.88318 3.57434   3
  -5  11  -6 264.444 19.5477   3
   5  11   6 259.990 18.2587   3
  -4  12   6 109.625 11.6260   3
  -3  12   6 2.16376 4.25469   3
  -2  12   6 67.4785 8.87390   3
   2  12  -6 68.7656 6.43929   3
  -1  12   6 1.31796 3.91264   3
   1  12  -6 -2.7955 2.64984   3
   0  12   6 1.07915 3.78730   3
   0  12  -6 1.77435 2.77971   3
  -1  12  -6 0.53721 3.06709   3
   1  12   6 6.09047 3.91170   3
   2  12   6 43.3584 5.83980   3
  -3  12  -6 -3.6306 3.78569   3
   3  12   6 2.91073 3.76714   3
 -11   0   7 141.596 12.4012   2
  -9   0   7 290.789 20.3624   3
  -9   0   7 322.461 20.6834   2
   8   0  -7 23.0132 16.2068   1
  -8   0   7 1.63710 3.02836   3
  -8   0   7 3.89145 21.4937   1
  -8   0   7 6.34507 3.20981   2
  -7   0   7 2263.75 127.140   3
  -7   0   7 2059.88 127.680   2
   7   0  -7 1994.40 135.202   1
  -7   0   7 2230.80 136.430   1
   6   0  -7 7.05662 10.7264   1
  -6   0   7 14.9293 9.35137   1
  -6   0   7 5.55685 1.70034   3
  -6   0   7 4.16278 1.82358   3
   6   0  -7 0.55055 2.64618   2
  -5   0   7 759.386 44.1544   3
   5   0  -7 707.427 44.0634   2
   5   0  -7 612.044 49.5990   1
  -5   0   7 749.961 51.4477   1
  -5   0   7 845.418 44.4990   2
  -5   0   7 700.049 43.7935   3
   4   0  -7 15.2442 7.26032   1
  -4   0   7 18.8589 7.14818   1
   4   0  -7 15.3732 2.42130   2
  -3   0   7 730.347 46.4114   1
   3   0  -7 669.045 46.1158   1
  -3   0   7 707.840 42.2077   3
  -3   0   7 718.697 42.5658   2
   3   0  -7 722.660 42.4817   2
   2   0  -7 2.02732 3.76267   1
  -2   0   7 1.42417 1.09427   2
  -2   0   7 1.02759 0.67707   3
  -2   0   7 0.77257 2.94916   1
   1   0  -7 5734.68 333.085   1
  -1   0   7 5293.59 331.096   2
  -1   0   7 5946.27 333.022   1
   1   0  -7 5461.81 331.051   2
   0   0   7 2.59016 1.98722   1
   0   0   7 5.67547 1.06309   3
   0   0  -7 6.22255 2.61041   1
   0   0  -7 9.07786 1.40616   3
  -1   0  -7 459.019 33.0693   3
   1   0   7 555.430 33.0126   3
  -1   0  -7 566.701 32.5986   2
  -1   0  -7 568.042 34.0406   1
  -1   0  -7 575.379 34.1490   1
   2   0   7 0.46895 1.32814   3
  -2   0  -7 -3.0164 2.10846   1
  -2   0  -7 -0.1379 2.42235   1
  -2   0  -7 0.31222 1.25300   3
  -2   0  -7 0.89622 1.23614   2
  -3   0  -7 318.407 21.1804   1
   3   0   7 309.633 21.3211   1
  -3   0  -7 348.437 19.9394   3
   3   0   7 309.196 19.8959   3
  -4   0  -7 4.12585 3.17397   1
   4   0   7 7.93634 3.66220   1
   5   0   7 712.776 45.2130   3
  -5   0  -7 758.867 47.5327   1
  -5   0  -7 719.961 45.4871   3
   5   0   7 790.095 47.8136   1
  -5   0  -7 749.489 44.9035   2
  -6   0  -7 0.69035 5.52328   1
   6   0   7 -0.0250 2.20838   3
   6   0   7 5.31577 6.55749   1
  -6   0  -7 0.82308 1.84118   2
   7   0   7 14.6777 3.21016   3
  -7   0  -7 14.0747 7.45796   1
   7   0   7 24.0802 15.9943   1
  -7   0  -7 16.6768 2.81065   2
   8   0   7 1.95474 3.33026   3
  -8   0  -7 0.75922 2.92151   2
   9   0   7 2.38645 3.68654   3
  -9   0  -7 9.25560 3.20441   2
  10   0   7 -2.0981 3.87057   3
 -10   0  -7 3.62063 3.13155   2
  11   0   7 -5.5959 4.92070   3
 -11   0  -7 5.74930 4.28991   2
 -12  -1   7 0.33914 4.44519   2
 -12   1   7 -4.8790 4.04238   2
 -11  -1   7 6.49641 4.76503   2
 -11   1   7 16.2039 4.56303   2
 -10  -1   7 38.3934 5.94920   2
 -10   1   7 34.2252 5.58373   2
  -9  -1   7 1.63589 3.37690   2
  -9  -1   7 4.35485 4.41688   3
  -9   1   7 0.82803 3.11957   2
  -8  -1   7 34.1102 4.87946   2
  -8  -1   7 35.1532 13.0582   1
   8  -1  -7 17.6049 16.3276   1
  -8  -1   7 27.4099 3.89448   3
  -8   1   7 23.6171 14.2913   1
  -8   1   7 26.2172 4.14297   3
   8   1  -7 44.5472 20.1801   1
  -8   1   7 37.0206 5.66203   2
  -7  -1   7 15.8222 10.8959   1
  -7  -1   7 9.86486 2.59112   3
   7  -1  -7 10.4723 13.1342   1
  -7  -1   7 10.8789 3.59687   2
  -7   1   7 4.56779 3.07076   2
  -7   1   7 4.94703 2.58883   3
  -7   1   7 10.5420 2.65321   3
  -7   1   7 4.18038 11.0033   1
   7   1  -7 12.3352 13.8885   1
  -6  -1   7 134.184 23.1036   1
   6  -1  -7 88.8808 15.4127   1
  -6  -1   7 140.477 9.62231   2
  -6   1   7 125.711 8.80995   3
  -6   1   7 108.207 19.4268   1
   6   1  -7 134.117 22.9129   1
  -6   1   7 126.267 8.80177   3
  -6   1   7 135.835 9.43381   2
  -5  -1   7 27.0341 2.57624   3
  -5  -1   7 28.8885 2.96762   3
  -5  -1   7 20.9236 8.68982   1
  -5  -1   7 27.7021 3.96414   2
   5  -1  -7 17.2664 8.57094   1
   5  -1  -7 26.7948 3.75881   2
   5   1  -7 27.0860 3.98121   2
   5   1  -7 18.3809 10.4522   1
  -5   1   7 28.0308 3.25375   3
  -5   1   7 28.9789 3.78851   2
  -5   1   7 19.5560 8.19088   1
  -4  -1   7 378.900 21.2896   3
  -4  -1   7 347.631 28.6060   1
  -4  -1   7 372.162 22.0422   2
   4  -1  -7 340.275 21.7521   2
   4  -1  -7 346.978 26.8302   1
  -4  -1   7 366.172 21.4292   3
   4   1  -7 307.608 27.9905   1
  -4   1   7 327.057 21.9395   3
   4   1  -7 351.560 21.8421   2
  -4   1   7 371.077 21.9407   2
  -4   1   7 392.897 27.5861   1
  -3  -1   7 19.1852 5.55928   1
   3  -1  -7 10.8259 4.95797   1
  -3  -1   7 14.3663 2.37410   2
  -3  -1   7 13.6513 1.24379   3
  -3   1   7 6.53101 4.18228   1
  -3   1   7 16.3719 2.24848   2
  -3   1   7 15.1686 1.90393   3
   3   1  -7 7.28404 6.25878   1
  -2  -1   7 152.779 9.72538   2
   2  -1  -7 151.184 9.56303   2
  -2  -1   7 157.972 9.27071   3
   2  -1  -7 159.589 9.46078   3
  -2  -1   7 159.512 12.8402   1
   2  -1  -7 142.244 12.7322   1
  -2   1   7 143.958 12.3885   1
  -2   1   7 154.852 9.62685   2
   2   1  -7 151.540 13.6724   1
   2   1  -7 151.434 9.65293   2
  -2   1   7 155.939 9.53117   3
  -1  -1   7 325.472 18.8689   3
   1  -1  -7 310.579 18.8856   3
   1  -1  -7 320.464 21.3294   1
   1  -1  -7 301.592 18.9399   2
  -1  -1   7 309.037 19.0835   2
  -1  -1   7 325.535 20.9004   1
  -1   1   7 301.003 18.9529   3
   1   1  -7 316.150 18.7187   3
  -1   1   7 314.320 21.1335   1
  -1   1   7 312.046 18.9943   2
   1   1  -7 308.276 21.5396   1
   1   1  -7 324.848 19.0491   2
   0  -1   7 764.172 47.8293   2
   0  -1   7 827.825 47.8698   3
   0  -1  -7 712.500 47.8988   3
   0  -1   7 836.292 49.0891   1
   0  -1  -7 807.294 47.7592   2
   0  -1  -7 841.204 49.7216   1
   0   1  -7 815.295 47.6642   3
   0   1   7 777.083 47.7788   2
   0   1  -7 827.074 47.8293   2
   0   1  -7 830.132 49.4772   1
   1  -1   7 4.06246 1.77395   3
  -1  -1  -7 3.52923 1.14303   3
  -1  -1  -7 3.89753 2.60805   1
  -1  -1  -7 5.56717 1.14002   2
  -1  -1  -7 0.37877 2.42468   1
  -1   1  -7 2.54599 2.00134   1
  -1   1  -7 -0.0286 1.75748   1
  -1   1  -7 4.07434 1.00903   3
  -1   1  -7 6.71887 1.20069   2
   1   1   7 5.42163 1.22640   3
  -2  -1  -7 3770.26 217.382   2
  -2  -1  -7 3749.47 218.993   1
   2  -1   7 3486.88 217.636   3
  -2  -1  -7 3595.48 217.415   3
  -2  -1  -7 3891.28 219.370   1
  -2   1  -7 3679.00 217.460   3
   2   1   7 3449.12 217.457   3
  -2   1  -7 3757.57 217.401   2
  -2   1  -7 3751.39 218.439   1
  -2   1  -7 3650.15 218.243   1
   3  -1   7 11.1053 2.21767   3
  -3  -1  -7 12.7606 3.52282   1
  -3  -1  -7 14.6429 2.09617   3
   3   1   7 9.68674 1.86826   3
  -3   1  -7 15.8428 2.52359   2
  -3   1  -7 17.1444 2.33402   3
  -3   1  -7 8.42744 2.60217   1
   3   1   7 2.97270 3.31245   1
   4  -1   7 552.495 35.0237   3
  -4  -1  -7 574.430 34.8697   3
  -4  -1  -7 589.743 34.6063   2
   4  -1   7 599.517 36.2249   1
  -4  -1  -7 485.270 38.5382   1
  -4   1  -7 586.685 35.1094   3
  -4   1  -7 604.776 36.3268   1
   4   1   7 576.304 34.7518   3
  -5  -1  -7 280.320 18.5856   3
   5  -1   7 269.809 18.3356   3
   5  -1   7 320.102 20.5253   1
  -5  -1  -7 283.707 17.8036   2
   5   1   7 285.503 17.9655   3
  -5   1  -7 275.720 18.9054   3
  -5   1  -7 284.677 17.7750   2
   5   1   7 243.805 21.3253   1
  -6  -1  -7 713.185 49.5247   1
   6  -1   7 699.260 44.8968   3
   6  -1   7 793.856 47.7807   1
  -6  -1  -7 739.252 44.3935   2
   6   1   7 719.014 48.8827   1
   6   1   7 720.003 44.6091   3
  -6   1  -7 757.168 44.3694   2
  -6   1  -7 720.744 47.6460   1
  -7  -1  -7 2.78063 7.54038   1
   7  -1   7 4.06890 3.03516   3
  -7  -1  -7 9.12298 2.59395   2
   7  -1   7 4.54362 8.19221   1
   7   1   7 4.05548 2.60838   3
  -7   1  -7 7.93266 7.36625   1
  -7   1  -7 6.19952 2.26940   2
   8  -1   7 1259.71 75.4474   3
  -8  -1  -7 1249.81 74.8343   2
  -8   1  -7 1232.77 74.7346   2
   8   1   7 1225.76 75.1666   3
   9  -1   7 9.42611 4.31492   3
  -9  -1  -7 10.4268 3.48505   2
   9   1   7 7.74104 3.79027   3
  -9   1  -7 10.8226 3.56502   2
  10  -1   7 183.483 13.1440   3
 -10  -1  -7 143.054 11.7829   2
  10   1   7 148.488 12.5693   3
 -10   1  -7 144.683 11.6600   2
 -11  -1  -7 33.7999 5.96377   2
  11   1   7 43.4318 7.35785   3
 -11   1  -7 33.6648 5.83371   2
 -12  -2   7 33.8291 6.43120   2
 -12   2   7 15.1748 5.03876   2
 -12   2   7 12.8315 4.42509   3
 -11  -2   7 100.230 11.0646   2
 -11   2   7 105.958 10.3611   2
 -11   2   7 105.906 9.70803   3
 -10   2   7 183.042 14.8988   3
 -10   2   7 232.948 15.9139   2
  -9  -2   7 258.547 18.9541   2
  -9   2   7 283.589 18.3252   3
  -9   2   7 277.943 18.6556   2
  -8  -2   7 100.191 17.5914   1
  -8  -2   7 87.3112 7.58487   3
  -8  -2   7 99.2930 8.89000   2
   8   2  -7 61.5619 20.9132   1
  -8   2   7 97.6823 8.09704   3
  -8   2   7 93.0907 8.41335   2
  -8   2   7 85.8555 18.3769   1
  -7  -2   7 1316.45 75.8035   2
  -7   2   7 1090.61 75.0450   3
  -7   2   7 1243.34 75.3385   3
  -7   2   7 1187.22 84.0993   1
  -7   2   7 1422.22 75.7056   2
  -6  -2   7 124.450 7.90020   3
  -6  -2   7 167.360 20.3836   1
   6  -2  -7 98.1568 8.79729   2
  -6  -2   7 134.277 9.45231   2
  -6   2   7 97.8070 18.8985   1
  -6   2   7 112.113 8.60134   3
   6   2  -7 126.075 22.7779   1
  -6   2   7 127.130 8.94492   2
  -6   2   7 119.524 8.70374   3
   5  -2  -7 589.860 41.7483   1
  -5  -2   7 600.124 35.8121   3
  -5  -2   7 690.153 45.3366   1
   5  -2  -7 519.049 36.3824   2
  -5  -2   7 632.531 35.8538   3
  -5  -2   7 644.563 36.9411   2
  -5   2   7 648.888 36.6959   2
   5   2  -7 535.608 36.5171   2
  -5   2   7 594.824 36.5454   3
  -5   2   7 598.548 43.0335   1
   4  -2  -7 722.708 47.4071   1
  -4  -2   7 753.118 43.6862   2
   4  -2  -7 672.429 43.2915   2
  -4  -2   7 714.917 50.3109   1
  -4   2   7 775.577 43.4582   2
   4   2  -7 689.053 43.4457   2
   4   2  -7 716.292 50.8701   1
  -4   2   7 747.832 48.1874   1
  -4   2   7 713.445 43.3970   3
  -3  -2   7 537.331 31.9345   2
   3  -2  -7 528.630 31.6625   2
   3  -2  -7 526.153 34.9711   1
  -3  -2   7 477.995 44.4943   1
  -3   2   7 545.196 31.7847   3
  -3   2   7 540.021 31.7190   2
   3   2  -7 532.102 31.8482   2
   3   2  -7 456.789 37.4227   1
  -3   2   7 571.382 35.5322   1
  -2  -2   7 447.082 29.8163   1
   2  -2  -7 426.975 28.8910   1
   2  -2  -7 446.724 26.2119   3
   2  -2  -7 393.046 26.3521   2
  -2  -2   7 439.371 26.3920   2
  -2   2   7 448.914 29.1612   1
  -2   2   7 435.993 26.2177   2
  -2   2   7 445.653 26.3143   3
   2   2  -7 447.430 26.3580   2
  -1  -2   7 3535.52 223.786   2
   1  -2  -7 3866.66 223.711   3
  -1  -2   7 4065.12 225.659   1
   1  -2  -7 3987.55 225.974   1
   1   2  -7 3825.19 223.772   2
  -1   2   7 4001.72 226.053   1
   1   2  -7 3540.69 226.667   1
   1   2  -7 3600.67 223.414   3
  -1   2   7 3665.15 223.778   3
   0  -2  -7 275.152 17.4697   3
   0  -2  -7 279.670 19.7358   1
   0  -2   7 292.259 18.5893   1
   0  -2   7 282.728 17.5293   2
   0  -2  -7 298.400 19.8725   1
   0   2  -7 280.812 19.8172   1
   0   2  -7 292.445 17.5153   2
   0   2  -7 298.454 17.3075   3
   0   2   7 290.408 17.5712   3
  -1  -2  -7 359.187 21.9290   3
  -1  -2  -7 354.156 24.1081   1
  -1  -2  -7 368.967 21.8169   2
  -1  -2  -7 357.246 23.9250   1
  -1   2  -7 367.615 23.1922   1
  -1   2  -7 369.035 21.8920   3
  -1   2  -7 377.612 22.6250   1
  -1   2  -7 348.764 21.8740   2
   1   2   7 356.616 21.9838   3
  -2  -2  -7 476.508 31.6074   1
  -2  -2  -7 496.231 29.7213   3
   2  -2   7 425.235 30.0573   3
  -2  -2  -7 529.758 29.6393   2
   2   2   7 489.677 29.7356   3
  -2   2  -7 507.524 29.8438   3
  -2   2  -7 481.714 30.1083   1
  -2   2  -7 504.192 29.6687   2
  -2   2  -7 516.865 30.4356   1
  -3  -2  -7 173.401 11.2348   3
   3  -2   7 156.520 11.6514   3
  -3  -2  -7 158.928 13.1885   1
  -3   2  -7 174.930 11.5867   3
   3   2   7 173.615 14.1676   1
  -3   2  -7 182.793 12.0090   1
   3   2   7 180.189 11.1593   3
  -3   2  -7 178.526 11.0585   2
  -3   2  -7 176.156 12.5939   1
  -4  -2  -7 92.7410 9.98127   1
   4  -2   7 94.0961 7.79275   3
  -4  -2  -7 99.4225 7.29426   3
  -4  -2  -7 99.2562 6.92554   2
  -4   2  -7 97.5475 7.10689   2
  -4   2  -7 96.2727 8.20594   3
   4   2   7 119.269 11.9335   1
   4   2   7 98.0780 7.05315   3
  -4   2  -7 98.8292 9.01250   1
  -5  -2  -7 554.374 33.5664   2
   5  -2   7 578.803 35.2067   1
  -5  -2  -7 564.841 36.7078   1
   5  -2   7 502.648 34.1516   3
  -5   2  -7 548.381 34.7612   3
   5   2   7 546.755 33.7140   3
   5   2   7 565.656 37.8610   1
  -5   2  -7 520.051 35.7900   1
  -5   2  -7 577.910 33.5457   2
  -6  -2  -7 15.7161 6.45646   1
   6  -2   7 16.0620 5.65197   1
  -6  -2  -7 17.8300 2.78146   2
   6  -2   7 17.9432 3.68540   3
  -6   2  -7 15.8270 2.61670   2
   6   2   7 11.1401 2.66269   3
  -6   2  -7 13.5026 6.01833   1
   6   2   7 25.0291 8.98773   1
   7  -2   7 11.4756 7.89834   1
   7  -2   7 6.12969 3.29229   3
  -7  -2  -7 15.0576 2.79694   2
   7   2   7 6.38646 2.58345   3
  -7   2  -7 8.95647 2.45484   2
  -7   2  -7 -4.4984 7.15344   1
  -8  -2  -7 4.38413 3.08923   2
   8  -2   7 5.67230 4.38051   3
   8   2   7 8.72985 3.57584   3
  -8   2  -7 6.54703 3.16246   2
   9  -2   7 2.07108 3.98395   3
  -9  -2  -7 3.45316 3.24042   2
   9   2   7 0.88156 3.35872   3
  -9   2  -7 0.41239 2.83204   2
 -10  -2  -7 -4.6240 3.09547   2
  10   2   7 1.83234 3.66299   3
 -10   2  -7 1.48185 3.24106   2
 -11  -2  -7 -0.7875 4.23914   2
  11   2   7 10.9663 5.38978   3
 -11   2  -7 2.73446 4.28488   2
 -11  -3   7 50.0181 6.97272   2
 -11   3   7 49.8431 8.30753   2
 -11   3   7 49.4589 7.29223   3
 -10  -3   7 12.0018 5.52330   2
 -10   3   7 18.1434 4.40949   2
 -10   3   7 6.48365 4.02784   3
  -9  -3   7 3.44658 20.7662   1
  -9  -3   7 3.24129 3.88012   2
  -9   3   7 -0.6351 2.85183   3
  -9   3   7 0.70336 2.95706   2
  -8  -3   7 15.8616 4.05163   2
  -8  -3   7 20.1544 2.99135   3
  -8  -3   7 37.2640 13.5469   1
   8   3  -7 34.9547 20.9305   1
  -8   3   7 26.7692 4.13871   3
  -8   3   7 26.2947 4.04875   2
   7  -3  -7 0.27200 12.7442   1
  -7  -3   7 20.1651 2.29617   3
  -7  -3   7 17.2080 3.98816   2
   7  -3  -7 9.00646 4.30242   2
  -7  -3   7 18.9872 11.2801   1
  -7   3   7 14.2698 3.46059   3
  -7   3   7 22.6086 3.79974   2
   7   3  -7 31.7169 17.1710   1
  -7   3   7 17.6237 12.2123   1
  -6  -3   7 37.6019 5.26894   2
  -6  -3   7 37.9402 2.96834   3
  -6  -3   7 46.9449 11.8047   1
   6  -3  -7 37.3798 5.19047   2
  -6   3   7 20.2438 10.3295   1
   6   3  -7 38.9800 15.0402   1
  -6   3   7 50.5011 4.74864   2
  -6   3   7 39.3581 4.81996   3
  -5  -3   7 26.5009 9.79800   1
   5  -3  -7 34.4660 9.43141   1
  -5  -3   7 38.9086 4.68226   2
   5  -3  -7 33.5619 4.20917   2
  -5   3   7 26.4599 8.59931   1
  -5   3   7 39.2067 4.31576   3
  -5   3   7 44.5224 4.08926   2
   5   3  -7 46.8094 13.1535   1
   4  -3  -7 216.859 14.8796   2
  -4  -3   7 246.884 23.6528   1
   4  -3  -7 233.446 20.0632   1
  -4  -3   7 246.078 15.4017   2
  -4   3   7 238.732 15.2304   3
  -4   3   7 248.255 14.9455   2
   4   3  -7 233.163 15.2734   2
  -4   3   7 242.050 20.0414   1
   4   3  -7 268.664 25.6210   1
   3  -3  -7 62.6485 4.59109   2
   3  -3  -7 60.2245 9.60989   1
  -3  -3   7 63.4656 5.01115   2
  -3  -3   7 72.1329 12.8055   1
  -3   3   7 52.9214 8.90084   1
  -3   3   7 64.6619 4.91787   3
   3   3  -7 59.3434 18.1216   1
  -3   3   7 63.8940 4.57046   2
   3   3  -7 73.7519 4.99625   2
   2  -3  -7 79.8659 5.42475   3
  -2  -3   7 76.7171 10.4287   1
   2  -3  -7 71.9160 9.25347   1
  -2  -3   7 78.9039 5.52537   2
   2  -3  -7 79.2910 5.08855   2
  -2   3   7 74.9173 8.88280   1
  -2   3   7 80.2640 5.52812   3
   2   3  -7 56.1279 10.3964   1
   2   3  -7 79.9357 5.45521   2
  -2   3   7 71.6920 5.18612   2
  -1  -3   7 987.955 59.3916   2
  -1  -3   7 1059.30 61.4542   1
   1  -3  -7 988.031 59.1273   2
   1  -3  -7 996.703 61.7541   1
   1  -3  -7 1047.13 59.3665   3
  -1   3   7 973.326 59.4275   3
   1   3  -7 1013.82 59.3659   2
   1   3  -7 987.954 58.9480   3
  -1   3   7 924.806 59.1338   2
   0  -3  -7 477.316 29.9211   2
   0  -3  -7 526.113 32.7223   1
   0  -3  -7 494.321 32.5284   1
   0  -3  -7 526.890 30.1402   3
   0  -3   7 472.856 30.0721   2
   0  -3   7 506.584 31.1278   1
   0   3  -7 515.381 30.0989   2
   0   3   7 477.849 30.1736   3
   0   3  -7 514.447 29.9298   3
  -1  -3  -7 140.133 8.54626   2
   1  -3   7 125.255 8.62510   2
  -1  -3  -7 134.587 8.78645   3
  -1  -3  -7 129.508 11.2999   1
  -1  -3  -7 142.121 11.9235   1
  -1   3  -7 140.523 8.73993   2
  -1   3  -7 133.918 9.19390   3
  -1   3  -7 145.952 9.04547   1
   1   3   7 133.082 8.80474   3
  -2  -3  -7 1559.78 91.8039   3
  -2  -3  -7 1635.92 91.6346   2
  -2  -3  -7 1554.27 93.9904   1
  -2   3  -7 1616.83 92.0486   3
   2   3   7 1555.68 91.8324   3
  -2   3  -7 1316.13 92.0144   1
  -2   3  -7 1501.30 91.6695   2
  -2   3  -7 1619.13 91.6194   1
  -3  -3  -7 446.170 25.9246   2
  -3  -3  -7 423.146 28.3942   1
   3  -3   7 409.577 26.7090   3
  -3  -3  -7 422.432 26.0277   3
   3   3   7 431.739 25.9980   3
  -3   3  -7 448.641 25.9336   2
  -3   3  -7 437.540 26.5768   3
   3   3   7 442.304 29.2236   1
  -3   3  -7 373.670 26.1234   1
  -4  -3  -7 278.087 20.8828   1
  -4  -3  -7 293.105 18.3763   3
  -4  -3  -7 301.774 18.0557   2
   4  -3   7 292.495 19.0072   3
  -4   3  -7 285.246 18.1712   1
   4   3   7 306.080 18.1702   3
  -4   3  -7 301.552 19.1946   3
  -4   3  -7 248.531 19.3412   1
   4   3   7 285.910 22.2743   1
  -4   3  -7 289.840 18.0217   2
  -5  -3  -7 1035.71 63.5303   2
   5  -3   7 1173.67 64.7202   3
  -5  -3  -7 1028.94 66.7226   1
  -5   3  -7 1065.99 63.4140   2
   5   3   7 1059.36 63.6294   3
   5   3   7 1025.67 67.7342   1
  -5   3  -7 1022.38 65.5137   1
   6  -3   7 396.322 25.8280   1
  -6  -3  -7 382.490 24.0488   2
  -6  -3  -7 372.497 28.7588   1
   6   3   7 340.276 30.6382   1
   6   3   7 382.069 24.0457   3
  -6   3  -7 414.846 30.8114   1
  -6   3  -7 391.617 23.8544   2
  -7  -3  -7 154.460 11.5863   2
   7  -3   7 163.155 16.5346   1
  -7   3  -7 166.631 11.3223   2
   7   3   7 159.210 11.6723   3
  -7   3  -7 207.619 22.1858   1
  -8  -3  -7 589.257 37.9563   2
  -8   3  -7 629.761 37.7742   2
   8   3   7 615.198 38.1942   3
  -9  -3  -7 108.507 10.8390   2
  -9   3  -7 130.365 9.96132   2
   9   3   7 121.949 12.8414   3
 -10  -3  -7 52.8185 7.60630   2
 -10   3  -7 64.5712 7.34098   2
  10   3   7 65.6464 8.04394   3
 -11  -3  -7 177.331 13.9191   2
 -11   3  -7 143.687 13.1237   2
  11   3   7 168.400 14.2790   3
 -11  -4   7 29.3437 6.25295   2
 -11   4   7 32.0067 5.57381   3
 -11   4   7 30.4425 6.28865   2
 -10  -4   7 408.522 27.0873   2
 -10   4   7 401.577 26.0122   2
 -10   4   7 373.023 26.1931   3
  -9  -4   7 86.6313 9.38511   2
  -9   4   7 70.2400 8.49418   3
  -9   4   7 79.5595 8.19208   2
  -8  -4   7 209.140 15.4996   2
  -8  -4   7 211.087 30.6180   1
   8   4  -7 241.648 42.6434   1
  -8   4   7 193.587 15.1396   3
  -8   4   7 226.708 14.8375   2
  -7  -4   7 409.290 26.4951   2
  -7  -4   7 385.826 24.5673   3
  -7  -4   7 455.694 37.4268   1
   7  -4  -7 415.259 26.1625   2
  -7   4   7 399.540 26.3459   3
   7   4  -7 499.900 46.2906   1
  -7   4   7 359.071 36.8586   1
  -7   4   7 412.575 25.8972   2
  -6  -4   7 271.415 17.5407   2
   6  -4  -7 251.490 26.5456   1
   6  -4  -7 261.069 17.0464   2
  -6  -4   7 296.679 28.3200   1
  -6   4   7 247.612 26.2636   1
  -6   4   7 266.798 16.8313   2
   6   4  -7 266.145 35.3592   1
  -6   4   7 245.523 17.3025   3
   5  -4  -7 151.229 11.5069   2
   5  -4  -7 158.624 17.9743   1
  -5  -4   7 221.549 23.2538   1
  -5  -4   7 196.270 12.2101   2
  -5   4   7 171.373 12.0290   3
  -5   4   7 182.384 11.4361   2
  -5   4   7 165.099 18.7013   1
   5   4  -7 174.257 27.0213   1
  -4  -4   7 1966.78 113.213   2
   4  -4  -7 1865.89 116.635   1
  -4  -4   7 2167.80 120.754   1
  -4   4   7 1926.27 117.249   1
  -4   4   7 1908.74 113.218   3
   4   4  -7 1730.68 120.112   1
  -4   4   7 1908.57 112.696   2
   4   4  -7 1748.91 113.015   2
  -3  -4   7 223.089 13.7014   2
  -3  -4   7 222.557 21.0002   1
   3  -4  -7 228.884 17.9218   1
   3  -4  -7 205.696 13.2203   2
  -3   4   7 202.422 13.2842   2
   3   4  -7 208.292 13.6494   2
  -3   4   7 221.893 13.7820   3
   3   4  -7 195.893 22.3423   1
  -3   4   7 225.411 17.7264   1
   2  -4  -7 585.639 38.7659   1
   2  -4  -7 596.904 35.8340   3
   2  -4  -7 624.654 35.5162   2
  -2  -4   7 586.975 35.8555   2
  -2  -4   7 587.319 40.2662   1
  -2   4   7 573.030 35.4664   2
  -2   4   7 584.620 38.8181   1
   2   4  -7 591.851 35.8663   2
   2   4  -7 548.661 40.7012   1
  -2   4   7 665.036 36.0543   3
   1  -4  -7 881.132 56.2384   1
  -1  -4   7 862.346 53.6345   2
   1  -4  -7 904.803 53.3236   2
   1  -4  -7 924.953 53.7040   3
  -1  -4   7 971.383 56.1796   1
   1  -4  -7 893.772 56.5541   1
  -1   4   7 871.482 53.7695   3
   1   4  -7 916.148 53.6600   2
   1   4  -7 857.499 53.2033   3
   1   4  -7 918.304 53.2943   3
   1   4  -7 891.897 56.8597   1
   0  -4  -7 269.885 16.2915   2
   0  -4   7 276.762 16.6153   2
   0  -4   7 281.134 17.4893   1
   0  -4  -7 268.745 19.7687   1
   0  -4  -7 270.079 19.6162   1
   0  -4  -7 271.628 16.6938   3
   0   4  -7 266.806 16.5963   2
   0   4  -7 220.323 21.3786   1
   0   4  -7 288.864 16.6142   3
   0   4   7 271.521 16.7944   3
  -1  -4  -7 101.510 9.98580   1
  -1  -4  -7 96.2548 6.69415   2
  -1  -4  -7 98.3217 6.92263   3
  -1  -4  -7 111.867 11.3043   1
  -1   4  -7 101.159 6.76787   2
  -1   4  -7 96.9441 6.25380   1
   1   4   7 104.928 6.99432   3
  -2  -4  -7 1388.33 88.9703   1
  -2  -4  -7 1540.37 86.4965   2
  -2  -4  -7 1427.19 86.5950   3
  -2  -4  -7 1530.46 86.3419   2
  -2   4  -7 1387.13 86.4195   2
  -2   4  -7 1455.69 87.0024   3
   2   4   7 1454.65 86.6352   3
  -3  -4  -7 63.1328 4.86120   2
  -3  -4  -7 54.8623 5.07880   3
  -3  -4  -7 51.2457 8.98866   1
  -3   4  -7 58.9492 4.92008   2
   3   4   7 62.8613 10.3749   1
   3   4   7 59.2690 4.94155   3
  -3   4  -7 59.3689 6.66761   3
  -4  -4  -7 148.589 13.4689   1
  -4  -4  -7 139.847 9.35629   2
  -4   4  -7 131.685 11.4963   3
   4   4   7 136.081 15.5930   1
   4   4   7 131.182 9.28577   3
  -4   4  -7 135.715 9.35115   2
  -5  -4  -7 154.645 10.5504   2
  -5  -4  -7 145.033 15.8235   1
   5   4   7 160.128 17.6003   1
   5   4   7 140.892 10.3994   3
  -5   4  -7 150.768 10.2795   2
  -6  -4  -7 13.0420 7.49924   1
  -6  -4  -7 21.1491 3.24683   2
  -6   4  -7 14.7079 4.51560   1
   6   4   7 19.6008 3.17649   3
  -6   4  -7 18.6873 2.76119   2
   6   4   7 23.8576 11.3132   1
  -7  -4  -7 3.68085 2.69304   2
   7  -4   7 -2.2421 5.20383   1
  -7   4  -7 6.72856 6.49941   1
   7   4   7 -0.1818 2.36010   3
  -7   4  -7 -0.3577 1.94482   2
  -8  -4  -7 21.7640 4.18445   2
  -8   4  -7 20.5762 3.85974   2
   8   4   7 28.7078 4.47632   3
  -9   4  -7 -0.5510 3.28396   2
   9   4   7 3.43881 5.07835   3
 -10  -4  -7 4.21674 3.64609   2
 -10   4  -7 -2.5723 3.38975   2
  10   4   7 2.30849 4.02772   3
 -11  -5   7 45.3465 7.25161   2
 -11   5   7 44.1125 6.65903   3
 -10  -5   7 11.8023 5.27836   2
 -10   5   7 9.59402 7.47857   3
 -10   5   7 8.89430 4.31042   2
  -9  -5   7 7.89239 5.76369   2
  -9   5   7 13.0916 3.69295   2
  -9   5   7 13.0971 4.45649   3
  -8  -5   7 1.53659 3.74360   2
  -8   5   7 2.99310 3.62771   3
  -8   5   7 1.27754 2.80038   2
   7  -5  -7 4.25316 3.97668   2
  -7  -5   7 7.28167 3.90990   2
  -7  -5   7 -1.2406 13.0386   1
  -7  -5   7 7.74612 1.24930   3
  -7   5   7 1.16334 3.45065   3
  -7   5   7 7.98855 2.81011   2
   7   5  -7 29.5043 21.1864   1
   6  -5  -7 30.1583 4.00568   2
  -6  -5   7 43.2823 5.31373   2
   6  -5  -7 27.6418 14.6256   1
  -6  -5   7 37.5629 12.5745   1
  -6   5   7 14.7673 11.1692   1
  -6   5   7 37.2198 5.21111   3
   6   5  -7 15.9560 16.4039   1
  -6   5   7 32.3543 4.04679   2
  -5  -5   7 16.7908 2.95978   2
   5  -5  -7 14.3572 8.69190   1
   5  -5  -7 14.9793 2.71366   2
  -5  -5   7 -2.5130 10.3833   1
   5   5  -7 21.0774 13.1664   1
  -5   5   7 13.0396 7.86178   1
  -5   5   7 11.7955 1.97063   2
  -5   5   7 11.5950 2.86553   3
   4  -5  -7 7.53641 2.48899   2
  -4  -5   7 3.56760 8.85425   1
  -4  -5   7 7.19259 2.39362   2
   4  -5  -7 -0.0238 6.75753   1
  -4   5   7 -0.9052 5.80084   1
  -4   5   7 12.7505 2.78048   3
   4   5  -7 3.07683 10.5057   1
   4   5  -7 7.01829 2.97318   2
   3  -5  -7 183.553 16.5434   1
  -3  -5   7 172.001 20.1813   1
  -3  -5   7 186.982 11.9281   2
  -3   5   7 179.858 12.1578   3
  -3   5   7 186.829 11.2201   2
  -3   5   7 193.368 16.5101   1
   3   5  -7 172.158 12.0394   2
   3   5  -7 198.802 19.8922   1
  -2  -5   7 70.2073 5.37766   2
   2  -5  -7 75.6108 5.56509   3
   2  -5  -7 64.9014 4.67407   2
   2  -5  -7 71.5987 10.4967   1
  -2  -5   7 47.3282 9.24768   1
  -2   5   7 74.0976 5.59333   3
   2   5  -7 73.4333 4.50214   3
   2   5  -7 80.3262 5.68812   2
   2   5  -7 56.6977 11.1601   1
   2   5  -7 69.5077 4.32749   3
  -1  -5   7 1326.48 78.5444   1
  -1  -5   7 1250.71 75.6132   2
   1  -5  -7 1251.54 78.6154   1
   1  -5  -7 1287.21 75.7366   3
   1  -5  -7 1241.49 75.1991   2
   1   5  -7 1257.40 75.2067   3
   1   5  -7 1257.37 75.4602   3
   1   5  -7 1322.90 77.7385   1
   1   5  -7 1256.45 75.6268   2
  -1   5   7 1264.75 75.8585   3
   0  -5  -7 140.494 14.0663   1
   0  -5   7 161.018 11.1576   1
   0  -5   7 148.503 9.97502   2
   0  -5  -7 166.640 10.2692   3
   0  -5  -7 154.961 13.9014   1
   0  -5  -7 157.922 9.56188   2
   0   5  -7 158.296 10.9138   1
   0   5  -7 160.297 10.4376   3
   0   5   7 152.148 10.3173   3
   0   5  -7 153.774 10.0314   2
  -1  -5  -7 67.7858 9.58373   1
  -1  -5  -7 57.3396 10.6089   1
  -1  -5  -7 59.3617 4.97899   2
  -1  -5  -7 61.6515 5.28523   3
  -1   5  -7 67.1774 4.82023   2
  -1   5  -7 61.8448 5.85353   3
   1   5   7 62.2769 5.02325   3
  -2  -5  -7 133.887 13.4774   1
  -2  -5  -7 127.949 9.78925   3
  -2  -5  -7 151.204 9.42198   2
  -2  -5  -7 152.642 9.03549   2
  -2   5  -7 134.473 9.26227   2
  -2   5  -7 141.955 10.6827   3
   2   5   7 133.137 9.51490   3
  -3  -5  -7 312.575 25.1948   1
  -3  -5  -7 371.875 21.9196   2
  -3   5  -7 336.460 23.1760   3
   3   5   7 348.342 21.9563   3
  -3   5  -7 385.809 21.8153   2
   3   5   7 354.057 26.8180   1
  -4  -5  -7 60.9043 5.22765   2
  -4  -5  -7 45.5234 8.31499   1
  -4   5  -7 58.1488 8.31661   3
   4   5   7 50.3671 9.64483   1
  -4   5  -7 49.3908 5.31428   2
   4   5   7 60.9409 5.19975   3
  -5  -5  -7 1747.18 111.161   1
  -5  -5  -7 1720.58 107.323   2
   5   5   7 1872.45 107.323   3
   5   5   7 1762.16 112.502   1
  -5   5  -7 1884.09 107.090   2
  -6  -5  -7 80.1174 12.5602   1
  -6  -5  -7 79.7566 7.38671   2
  -6   5  -7 87.8958 6.78329   2
   6   5   7 77.8988 7.22529   3
  -7  -5  -7 115.282 10.0085   2
   7   5   7 134.219 9.72651   3
  -7   5  -7 135.227 9.45497   2
  -8  -5  -7 85.7224 8.69987   2
   8   5   7 79.4007 8.71284   3
  -8   5  -7 72.8120 7.80238   2
  -9  -5  -7 151.545 12.7393   2
   9   5   7 166.251 12.5330   3
 -10  -5  -7 6.30386 4.24409   2
 -10   5  -7 10.1129 3.87798   2
  10   5   7 -0.3831 4.02637   3
 -10  -6   7 311.952 22.8988   2
 -10   6   7 327.777 21.4140   2
 -10   6   7 302.429 22.6622   3
  -9  -6   7 13.4444 5.15515   2
  -9   6   7 16.5699 3.83708   2
  -8  -6   7 181.409 14.4904   2
  -8   6   7 186.654 13.0743   2
  -8   6   7 186.109 14.4497   3
  -7  -6   7 14.8992 4.45349   2
  -7   6   7 21.5545 3.23066   2
  -7   6   7 10.2113 4.34448   3
   6  -6  -7 249.550 15.8477   2
  -6  -6   7 248.451 16.4315   2
   6   6  -7 170.792 28.0635   1
  -6   6   7 240.463 15.1516   2
  -6   6   7 245.196 16.8717   3
  -5  -6   7 3.83439 2.51036   2
  -5  -6   7 -8.1660 11.4706   1
   5  -6  -7 -0.1266 12.0257   1
  -5   6   7 8.13792 8.10327   1
  -5   6   7 5.71577 3.07329   3
   5   6  -7 -10.149 13.9390   1
   4  -6  -7 1591.76 98.3618   2
   4  -6  -7 1574.78 102.799   1
  -4  -6   7 1695.87 99.0078   2
  -4  -6   7 1821.88 107.507   1
  -4   6   7 1596.02 98.1281   2
  -4   6   7 1686.10 103.596   1
  -4   6   7 1662.65 99.3307   3
   4   6  -7 1667.47 105.697   1
  -3  -6   7 3.57528 1.92263   2
   3  -6  -7 -2.8655 6.20454   1
   3  -6  -7 1.75554 1.26983   2
  -3  -6   7 -6.2050 8.63387   1
  -3   6   7 2.96194 2.14294   3
   3   6  -7 -6.8090 7.34844   1
   3   6  -7 1.93795 0.86066   3
   3   6  -7 4.21775 2.57225   2
  -2  -6   7 388.444 31.4680   1
   2  -6  -7 415.648 29.3516   1
   2  -6  -7 412.508 29.8044   1
  -2  -6   7 418.425 25.1468   2
   2   6  -7 440.513 28.9640   1
   2   6  -7 429.117 25.3096   2
  -2   6   7 413.595 25.5286   3
   2   6  -7 410.219 24.4954   3
   2   6  -7 375.908 24.8096   3
   1  -6  -7 45.2064 8.17801   1
   1  -6  -7 58.3139 3.79851   2
   1  -6  -7 45.8403 8.14811   1
  -1  -6   7 67.6308 11.2346   1
  -1  -6   7 54.0270 4.63304   2
   1  -6  -7 58.0477 3.59479   2
  -1   6   7 55.5982 5.34549   3
   1   6  -7 50.5096 3.90007   3
   1   6  -7 39.7254 7.59602   1
   1   6  -7 54.7556 4.98536   2
   1   6  -7 51.3123 4.95132   3
   0  -6  -7 167.714 10.1761   2
   0  -6  -7 174.937 10.4849   2
   0  -6  -7 185.800 16.5097   1
   0  -6  -7 202.699 16.2713   1
   0  -6   7 163.154 12.2820   1
   0  -6   7 163.826 10.7019   2
   0   6  -7 171.059 11.5772   1
   0   6   7 163.349 11.0941   3
   0   6  -7 148.645 11.3843   3
   0   6  -7 162.280 10.4918   3
   0   6  -7 166.678 10.8443   2
  -1  -6  -7 45.8965 8.31853   1
  -1  -6  -7 36.5214 7.38022   1
  -1  -6  -7 43.5237 3.12135   2
  -1  -6  -7 37.4862 3.76251   2
  -1   6  -7 37.7596 4.74627   3
  -1   6  -7 40.7383 3.94625   2
   1   6   7 42.0202 4.21905   3
  -2  -6  -7 1181.38 70.1027   2
  -2  -6  -7 1121.23 73.5543   1
  -2  -6  -7 1265.96 69.7393   2
  -2  -6  -7 1209.88 74.6072   1
   2   6   7 1231.71 70.3577   3
  -2   6  -7 1178.31 69.9869   2
  -2   6  -7 1024.99 70.9119   3
  -3  -6  -7 2.50483 6.36309   1
  -3  -6  -7 6.77900 2.21640   2
  -3   6  -7 7.18987 4.75444   3
   3   6   7 9.91963 2.34236   3
   3   6   7 4.05627 7.56002   1
  -3   6  -7 11.9027 2.31117   2
  -4  -6  -7 122.385 8.95635   2
  -4  -6  -7 114.898 15.4581   1
   4   6   7 100.164 17.9889   1
   4   6   7 131.155 8.75378   3
  -4   6  -7 112.886 10.6967   2
  -5  -6  -7 -0.8792 8.09832   1
  -5  -6  -7 14.4482 3.34998   2
  -5   6  -7 11.6493 2.74467   2
   5   6   7 4.87458 2.82757   3
   5   6   7 9.39447 11.3754   1
  -6  -6  -7 17.0550 3.57242   2
   6   6   7 10.7481 2.98570   3
  -6   6  -7 12.5551 2.66397   2
  -7  -6  -7 4.38682 3.23924   2
  -7   6  -7 8.06423 2.68732   2
   7   6   7 10.0386 3.14660   3
  -8  -6  -7 11.0418 4.23849   2
  -8   6  -7 15.7785 3.57625   2
  -9  -6  -7 -3.1265 4.05835   2
   9   6   7 -5.3399 3.64321   3
  -9   6  -7 3.33726 3.53610   2
 -10  -6  -7 -4.7755 4.47150   2
 -10   6  -7 -1.2230 3.85886   2
  10   6   7 5.44945 4.68449   3
 -10  -7   7 3.13933 5.53272   2
 -10   7   7 1.69085 6.04437   2
 -10   7   7 0.47500 5.41835   3
  -9  -7   7 2.41207 4.73295   2
  -9   7   7 1.74227 3.47906   2
  -9   7   7 0.10028 4.65098   3
  -8  -7   7 27.1486 5.67971   2
  -8   7   7 22.4513 3.60614   2
  -8   7   7 22.5066 8.05040   3
  -7  -7   7 24.3937 4.72011   2
  -7   7   7 16.1081 4.87181   3
  -7   7   7 21.9295 3.03524   2
  -6  -7   7 4.77224 3.13233   2
  -6   7   7 7.49714 3.82725   3
  -5  -7   7 22.3906 3.45828   2
  -5   7   7 20.3435 4.08849   3
  -5   7   7 19.4862 2.00627   2
   4  -7  -7 4.58903 10.5947   1
  -4  -7   7 29.5417 4.62909   2
   4   7  -7 27.6614 2.12882   3
  -4   7   7 26.0416 4.44087   3
   4   7  -7 14.3017 11.2669   1
   3  -7  -7 129.346 18.0154   1
   3  -7  -7 136.994 16.8772   1
  -3  -7   7 159.922 23.5924   1
  -3  -7   7 147.401 9.79892   2
  -3   7   7 140.624 10.4577   3
   3   7  -7 138.899 9.29468   3
   3   7  -7 127.302 17.5758   1
   3   7  -7 152.821 8.79523   3
   2  -7  -7 22.2812 7.92566   1
   2  -7  -7 28.8581 8.20841   1
  -2  -7   7 6.28638 9.36714   1
  -2  -7   7 32.2728 3.66543   2
   2   7  -7 31.4751 2.55170   3
  -2   7   7 29.8234 4.57205   3
   2   7  -7 27.5498 3.57095   2
   2   7  -7 29.4937 4.16632   3
   2   7  -7 31.9463 6.72272   1
   1  -7  -7 696.363 46.8337   1
   1  -7  -7 690.884 46.8563   1
  -1  -7   7 679.651 47.0077   1
  -1  -7   7 729.443 42.4353   2
   1   7  -7 723.610 44.2289   1
  -1   7   7 710.201 42.9049   3
   1   7  -7 693.265 42.5577   2
   1   7  -7 714.593 42.0812   3
   0  -7  -7 4.45341 6.49761   1
   0  -7   7 1.44083 1.47171   2
   0  -7   7 0.20575 3.82517   1
   0  -7  -7 2.94926 7.15016   1
   0   7   7 -0.2987 2.00425   3
   0   7  -7 3.80245 2.64826   1
   0   7  -7 0.61412 1.91418   2
   0   7  -7 0.32890 2.89313   3
   0   7  -7 0.05239 1.22410   3
  -1  -7  -7 57.3830 3.85969   2
  -1  -7  -7 60.5449 10.5427   1
  -1  -7  -7 56.2861 9.27719   1
  -1   7  -7 63.6979 5.15023   2
  -1   7  -7 44.7319 5.90039   3
  -1   7  -7 57.5004 4.70481   3
   1   7   7 55.0501 5.23433   3
  -2  -7  -7 14.7496 2.75859   2
  -2  -7  -7 23.5573 2.82568   2
  -2  -7  -7 17.6847 9.44441   1
  -2  -7  -7 24.3487 7.44863   1
  -2   7  -7 18.0735 5.07785   3
   2   7   7 19.9212 3.23987   3
  -2   7  -7 26.6911 3.11734   2
  -2   7  -7 24.8563 3.21936   3
  -3  -7  -7 355.846 28.4764   1
  -3   7  -7 345.637 22.7910   2
   3   7   7 401.455 23.1899   3
  -4  -7  -7 3.22490 8.21681   1
  -4  -7  -7 2.88826 2.62431   2
   4   7   7 2.98773 2.37963   3
   4   7   7 14.8331 11.2433   1
  -5  -7  -7 895.970 62.9260   1
  -5  -7  -7 841.213 57.1690   2
  -5   7  -7 1038.93 56.8174   2
   5   7   7 985.877 57.1294   3
  -6  -7  -7 7.86449 3.47138   2
  -6   7  -7 3.00069 2.50734   2
   6   7   7 4.07164 3.11533   3
  -7  -7  -7 107.788 9.86957   2
  -7   7  -7 104.578 8.56415   2
   7   7   7 113.249 9.68703   3
  -8  -7  -7 18.2218 5.47453   2
  -8   7  -7 17.6026 4.10592   2
   8   7   7 16.4172 4.51756   3
  -9  -7  -7 155.842 12.8281   2
   9   7   7 124.856 11.4317   3
  -9   7  -7 127.307 11.0632   2
  -9  -8   7 6.86480 5.52397   2
  -9   8   7 6.76458 5.38901   3
  -8  -8   7 78.0465 9.74174   2
  -8   8   7 77.6864 11.0113   3
  -7  -8   7 81.6609 9.51100   2
  -6  -8   7 146.284 11.3949   2
  -6   8   7 144.004 12.3221   3
  -5  -8   7 47.9380 5.82839   2
  -5   8   7 47.2206 7.21566   3
  -4  -8   7 658.150 40.6913   2
   4   8  -7 697.041 39.6822   3
  -4   8   7 643.794 41.4273   3
  -3  -8   7 15.6613 2.62137   2
  -3   8   7 24.3034 3.91154   3
   2  -8  -7 205.472 23.9863   1
  -2  -8   7 253.272 15.3376   2
   2   8  -7 254.961 14.7679   3
   2   8  -7 207.347 15.7236   3
  -2   8   7 264.249 16.2942   3
   1  -8  -7 154.228 18.1749   1
  -1  -8   7 140.331 9.08898   2
   1   8  -7 109.706 12.7837   1
   1   8  -7 112.004 10.4049   3
   1   8  -7 146.921 10.0534   2
  -1   8   7 134.649 10.1163   3
   1   8  -7 135.731 8.67933   3
   0  -8   7 103.163 7.24695   2
   0  -8  -7 92.6718 16.5377   1
   0  -8   7 97.8995 11.3571   1
   0   8   7 106.673 8.07177   3
   0   8  -7 109.563 7.16990   3
   0   8  -7 103.011 7.97450   2
  -1  -8  -7 69.1811 10.9716   1
   1   8   7 72.8803 6.42284   3
  -1   8  -7 79.0794 5.76683   3
  -1   8  -7 64.1654 6.23752   2
  -2  -8  -7 405.430 32.8904   1
  -2  -8  -7 451.497 26.5314   2
  -2   8  -7 426.095 27.0043   2
  -2   8  -7 442.072 27.1711   3
   2   8   7 460.582 27.5436   3
  -3  -8  -7 2.78558 2.22088   2
  -3  -8  -7 -8.7615 9.01435   1
  -3  -8  -7 0.31148 1.80151   2
  -3   8  -7 2.08506 2.52380   3
   3   8   7 3.07029 2.58953   3
  -4  -8  -7 37.6973 12.1010   1
  -4  -8  -7 43.8790 5.70112   2
   4   8   7 47.5630 14.8076   1
  -5  -8  -7 40.6354 5.34667   2
  -5   8  -7 44.7850 5.23738   2
   5   8   7 37.6344 5.66549   3
  -6  -8  -7 -3.1729 3.41565   2
   6   8   7 1.44895 3.07793   3
  -6   8  -7 2.68157 2.55298   2
  -7  -8  -7 2.51212 4.03186   2
   7   8   7 4.27681 3.52750   3
  -7   8  -7 3.89524 2.82904   2
  -8  -8  -7 21.1794 8.97068   2
   8   8   7 10.1656 4.16055   3
  -8   8  -7 14.1274 4.20437   2
  -8  -9   7 21.6348 5.64028   2
  -8   9   7 16.9827 6.55010   3
  -7   9   7 16.9913 6.18146   3
  -6  -9   7 20.3215 4.38479   2
  -6   9   7 14.5636 5.14619   3
  -5  -9   7 3.27490 2.72751   2
  -5   9   7 -3.1213 4.03342   3
  -4  -9   7 16.4889 3.18048   2
  -4   9   7 30.0315 5.05622   3
  -3  -9   7 77.9141 6.61106   2
  -3   9   7 80.6302 8.13538   3
   3   9  -7 85.8195 5.71433   3
  -2  -9   7 1.94159 1.88581   2
   2   9  -7 2.67780 1.40545   3
  -2   9   7 3.02064 2.90941   3
   2   9  -7 6.63253 3.82984   3
  -1  -9   7 220.985 14.2072   2
  -1   9   7 217.773 15.3848   3
   1   9  -7 227.100 13.9709   3
   0  -9   7 62.0906 8.24920   1
   0   9   7 73.8170 7.10587   3
   0   9  -7 69.6003 7.55782   2
   0   9  -7 78.0148 5.72324   3
  -1   9  -7 4.75272 3.40018   2
  -1   9  -7 12.5508 2.30755   3
   1   9   7 10.2532 3.03416   3
  -2  -9  -7 168.984 10.6672   2
   2   9   7 190.006 12.8962   3
  -2   9  -7 185.298 13.5395   2
  -2   9  -7 172.287 12.2227   3
  -3  -9  -7 125.503 8.94763   2
  -3   9  -7 133.522 10.0954   3
   3   9   7 136.225 10.2370   3
  -4  -9  -7 13.2389 3.19348   2
   4   9   7 17.9437 3.51615   3
  -4   9  -7 10.6684 3.67090   3
  -5  -9  -7 326.145 23.7544   2
  -5   9  -7 396.404 25.1963   3
  -5   9  -7 388.014 23.2800   2
  -6  -9  -7 52.0147 8.15459   2
  -6   9  -7 49.7474 6.13250   2
   6   9   7 49.0127 7.00626   3
  -6   9  -7 56.5473 7.80151   3
  -7  -9  -7 12.9534 5.40473   2
  -7   9  -7 16.3642 3.79232   2
   7   9   7 8.17733 3.98796   3
  -7 -10   7 143.636 12.6877   2
  -7  10   7 130.650 14.8205   3
  -6 -10   7 33.0389 5.02299   2
  -6  10   7 23.6370 6.32648   3
  -5 -10   7 58.5970 6.83653   2
  -5  10   7 60.8223 8.69904   3
  -4 -10   7 153.808 11.4555   2
  -4  10   7 149.306 13.1256   3
   4  10  -7 170.242 10.5103   3
  -3 -10   7 29.0934 4.56478   2
   3  10  -7 33.0743 3.54503   3
  -2 -10   7 12.1950 2.61055   2
  -2  10   7 23.0003 4.29653   3
   2  10  -7 17.2625 2.24506   3
  -1 -10   7 256.019 16.5657   2
  -1  10   7 272.697 18.1475   3
   1  10  -7 260.304 16.4696   3
   0  10   7 6.00730 3.29667   3
   0  10  -7 7.55182 2.19700   3
  -1  10  -7 105.818 7.97674   3
   1  10   7 105.386 9.09380   3
  -2  10  -7 133.279 9.89935   3
   2  10   7 125.896 10.5081   3
  -3  10  -7 -1.5381 2.81219   3
  -4  10  -7 8.02499 3.75833   3
   4  10   7 3.64651 3.24258   3
  -4  10  -7 0.01175 2.45025   2
  -5 -10  -7 55.5147 7.60817   2
  -5  10  -7 47.9775 6.00942   2
  -5  10  -7 41.3605 6.59398   3
   5  10   7 39.9304 5.82394   3
  -6  10  -7 -0.5046 5.22080   3
  -6  10  -7 3.56548 3.26325   2
   6  10   7 0.96744 3.55769   3
  -6 -11   7 21.0794 4.84428   2
  -6  11   7 31.3744 6.93395   3
  -5 -11   7 1.13517 3.35357   2
  -5  11   7 3.10571 4.98354   3
  -4 -11   7 37.1898 5.81517   2
  -4  11   7 37.7805 6.53140   3
  -3 -11   7 15.1647 3.11108   2
  -3  11   7 19.0098 4.87918   3
   3  11  -7 20.2037 3.11329   3
  -2 -11   7 6.93795 2.49112   2
   2  11  -7 9.86229 2.30977   3
  -2  11   7 6.91425 3.75773   3
   1  11  -7 19.0379 2.91763   3
  -1  11   7 14.5893 4.43800   3
   0  11  -7 83.3896 6.82368   3
   0  11   7 77.5918 8.46008   3
   1  11   7 2.14738 3.54009   3
  -1  11  -7 3.59569 2.66366   3
  -2  11  -7 201.033 14.5780   3
   2  11   7 220.265 15.4468   3
   3  11   7 26.6403 4.64415   3
  -3  11  -7 25.1881 4.67925   3
  -3  11  -7 27.5159 3.72644   2
   4  11   7 13.6483 4.17709   3
  -4  11  -7 8.93014 4.37476   3
  -5  11  -7 36.4168 6.79596   3
   5  11   7 40.0675 5.96679   3
  -3  12   7 9.08922 4.97784   3
  -2  12   7 -0.2671 4.43170   3
  -1  12   7 172.051 13.6023   3
   1  12  -7 163.974 11.6446   3
   0  12   7 1.33942 3.89981   3
   0  12  -7 -0.5642 2.84026   3
  -1  12  -7 66.2355 7.06566   3
   1  12   7 60.5352 8.26862   3
   2  12   7 3.05627 4.23071   3
   3  12   7 1.40576 4.11362   3
  -3  12  -7 -1.2550 3.86560   3
 -12   0   8 55.2999 9.15028   2
 -12   0   8 55.0588 7.55536   3
 -11   0   8 4.82188 3.20081   3
 -11   0   8 4.20547 4.72661   2
 -10   0   8 534.682 34.5318   3
 -10   0   8 584.688 35.8685   2
  -9   0   8 0.86561 2.28216   3
  -9   0   8 6.91384 3.69336   2
  -8   0   8 350.695 21.9574   3
  -8   0   8 355.497 36.3401   1
  -8   0   8 359.601 22.9025   2
  -8   0   8 328.806 21.7580   3
  -7   0   8 6.07711 11.6572   1
  -7   0   8 14.0394 2.82700   3
   7   0  -8 28.9354 14.7810   1
  -6   0   8 267.212 16.8342   3
   6   0  -8 225.993 26.7989   1
  -6   0   8 280.395 16.9181   3
  -6   0   8 284.659 17.7440   2
  -5   0   8 3.86312 7.85704   1
   5   0  -8 5.67540 2.22015   2
  -5   0   8 4.39992 1.45509   3
  -5   0   8 6.10167 2.26168   2
   5   0  -8 4.31232 9.02979   1
  -5   0   8 7.95899 1.65126   3
  -4   0   8 3493.93 212.455   3
   4   0  -8 3570.61 212.778   2
   4   0  -8 3412.07 217.326   1
  -4   0   8 3628.85 212.953   2
  -4   0   8 3883.03 218.551   1
  -3   0   8 9.30883 5.19594   1
  -3   0   8 2.84765 1.37657   2
  -3   0   8 3.91769 0.87128   3
   3   0  -8 6.67489 5.66103   1
   3   0  -8 5.55926 1.52494   2
  -2   0   8 1879.59 112.881   1
  -2   0   8 1822.33 110.163   2
   2   0  -8 1887.79 109.846   3
  -2   0   8 1772.26 109.903   3
   2   0  -8 1923.94 110.115   2
   2   0  -8 1865.40 113.054   1
   1   0  -8 6.75830 3.50347   1
   1   0  -8 8.69344 1.54241   2
  -1   0   8 3.39844 2.83911   1
   0   0   8 631.112 38.4366   2
   0   0  -8 649.632 38.4040   2
   0   0   8 638.636 40.1164   1
   0   0  -8 650.974 38.3046   3
   0   0  -8 643.741 40.3887   1
  -1   0  -8 -0.9663 1.09624   2
  -1   0  -8 2.67577 2.74222   1
  -1   0  -8 0.09026 2.52166   1
  -1   0  -8 -0.4554 0.97877   3
   2   0   8 3935.44 244.499   3
  -2   0  -8 4259.32 244.372   2
  -2   0  -8 4201.59 246.305   1
  -2   0  -8 4146.27 245.786   1
  -2   0  -8 4128.41 244.374   3
  -3   0  -8 3.07322 3.34350   1
  -3   0  -8 4.67220 1.73639   2
   3   0   8 0.83628 1.58037   3
  -3   0  -8 0.28096 2.69294   1
  -3   0  -8 2.78856 1.76610   3
   4   0   8 711.687 45.1567   3
  -4   0  -8 751.966 45.1769   3
   4   0   8 776.398 47.1905   1
  -4   0  -8 747.128 46.8148   1
  -5   0  -8 -0.1058 4.21719   1
  -5   0  -8 2.29640 2.22173   2
   5   0   8 2.59835 2.56490   3
   5   0   8 -2.8628 4.81025   1
   6   0   8 124.014 9.58308   3
  -6   0  -8 142.618 14.6339   1
   6   0   8 125.508 15.3457   1
  -6   0  -8 124.376 9.01864   2
  -7   0  -8 0.16990 2.09574   2
   7   0   8 -0.7700 2.59124   3
  -8   0  -8 392.948 24.7920   2
   8   0   8 385.442 25.3624   3
  -9   0  -8 0.95687 4.19038   2
  10   0   8 7.07172 4.40543   3
 -10   0  -8 3.07595 3.30234   2
  11   0   8 0.40647 5.75617   3
 -11   0  -8 -1.9705 4.38810   2
 -12  -1   8 3.34227 4.63682   2
 -12   1   8 -1.0817 4.52338   2
 -12   1   8 1.84826 4.23860   3
 -11  -1   8 132.150 11.7773   2
 -11  -1   8 103.973 9.16402   3
 -11   1   8 110.226 11.2493   2
 -11   1   8 109.413 9.95482   3
 -10  -1   8 9.47278 6.53935   2
 -10   1   8 9.91739 4.73796   2
 -10   1   8 6.52450 3.40747   3
  -9  -1   8 2.47185 3.61819   2
  -9   1   8 1.84097 2.56131   3
  -9   1   8 3.14952 3.40509   2
  -8  -1   8 35.0475 4.01420   3
  -8  -1   8 27.3909 4.58504   2
  -8  -1   8 11.2816 13.5160   1
  -8  -1   8 32.7629 4.11634   3
   8   1  -8 32.8050 19.1098   1
  -8   1   8 23.3206 4.14013   3
  -8   1   8 41.3085 6.25925   2
  -8   1   8 36.9881 4.88887   3
  -8   1   8 50.4202 28.6440   1
  -7  -1   8 83.9931 6.38141   3
  -7  -1   8 129.284 22.4774   1
   7  -1  -8 81.1982 17.4305   1
  -7  -1   8 90.0407 8.17895   2
  -7   1   8 81.3372 6.93085   3
   7   1  -8 63.3371 17.6318   1
  -7   1   8 71.3621 16.2702   1
  -7   1   8 87.6859 8.07543   2
  -7   1   8 88.0779 7.13513   3
  -6  -1   8 -7.2270 9.62205   1
   6  -1  -8 6.61522 10.4565   1
  -6  -1   8 3.91857 2.57472   2
   6  -1  -8 1.82386 2.57606   2
  -6  -1   8 4.36747 1.64764   3
  -6  -1   8 3.43714 1.28877   3
  -6   1   8 2.00295 1.76504   3
  -6   1   8 1.99643 2.31890   2
  -6   1   8 3.43437 1.70668   3
  -6   1   8 2.10578 9.84445   1
   5  -1  -8 144.265 11.2029   2
  -5  -1   8 176.626 20.9660   1
  -5  -1   8 199.081 10.7769   3
   5  -1  -8 154.599 19.9533   1
  -5  -1   8 175.536 11.6177   2
  -5  -1   8 169.930 10.4963   3
   5   1  -8 158.806 22.3129   1
  -5   1   8 163.905 20.2792   1
   5   1  -8 154.543 11.4331   2
  -5   1   8 171.298 10.9881   3
  -5   1   8 182.633 11.5289   2
   4  -1  -8 10.7982 7.02276   1
  -4  -1   8 5.09780 6.99272   1
  -4  -1   8 9.33549 1.23114   3
   4  -1  -8 6.86198 2.02289   2
  -4  -1   8 8.94649 1.33760   3
  -4  -1   8 6.90679 2.11496   2
  -4   1   8 5.56591 1.90259   2
   4   1  -8 12.8261 8.36284   1
  -4   1   8 6.87823 6.29836   1
   4   1  -8 4.98900 2.14874   2
  -4   1   8 5.65493 1.51111   3
   3  -1  -8 16.2420 5.76310   1
   3  -1  -8 15.4774 2.40101   2
  -3  -1   8 15.4372 1.36669   3
  -3   1   8 14.7052 2.28395   2
   3   1  -8 15.5024 7.13639   1
   3   1  -8 16.1914 2.65978   2
  -3   1   8 6.32958 4.68574   1
   2  -1  -8 25.1583 5.67724   1
   2  -1  -8 37.5146 2.95051   3
  -2  -1   8 40.1049 2.71333   3
  -2  -1   8 39.7688 3.52000   2
  -2  -1   8 29.5910 6.55194   1
   2  -1  -8 38.2308 3.20975   2
   2   1  -8 40.2583 3.34079   2
   2   1  -8 30.8173 6.32900   1
  -2   1   8 39.7227 3.27969   2
  -2   1   8 40.0215 3.49656   3
   2   1  -8 35.9017 2.52498   3
  -2   1   8 31.0837 5.63975   1
   1  -1  -8 574.300 37.1276   1
  -1  -1   8 531.003 37.5446   1
   1  -1  -8 585.467 34.6232   2
  -1  -1   8 599.778 34.5755   3
  -1  -1   8 584.329 34.7707   2
   1   1  -8 588.953 34.7025   2
   1   1  -8 576.763 37.4518   1
   1   1  -8 585.504 34.3853   3
  -1   1   8 577.329 36.9830   1
  -1   1   8 578.973 34.6811   2
   0  -1  -8 12.2272 1.77888   3
   0  -1  -8 4.25600 3.25292   1
   0  -1   8 12.1041 1.90991   2
   0   1  -8 6.28851 1.44104   2
   0   1  -8 8.89883 1.46272   3
   0   1   8 8.60772 1.43058   3
   0   1  -8 7.75374 3.08183   1
  -1  -1  -8 129.506 10.8791   1
  -1  -1  -8 129.856 8.41463   2
  -1  -1  -8 131.160 10.9370   1
   1  -1   8 133.260 8.72505   3
  -1  -1  -8 131.889 8.40947   3
  -1   1  -8 126.575 8.44670   2
  -1   1  -8 141.955 10.0970   1
   1   1   8 123.551 8.48360   3
  -1   1  -8 128.582 8.38150   3
  -1   1  -8 143.986 10.4506   1
  -2  -1  -8 169.227 10.5181   2
  -2  -1  -8 162.932 13.1730   1
   2  -1   8 165.135 10.9033   3
  -2  -1  -8 165.994 12.8511   1
  -2  -1  -8 163.887 10.5655   3
  -2   1  -8 157.247 11.7450   1
   2   1   8 159.435 10.6661   3
  -2   1  -8 170.841 10.5463   2
  -2   1  -8 164.650 10.5528   3
  -3  -1  -8 336.502 19.9865   2
  -3  -1  -8 294.895 23.1626   1
   3  -1   8 317.253 20.3217   3
  -3  -1  -8 331.240 20.1026   3
  -3   1  -8 338.068 21.5627   1
   3   1   8 321.227 20.1316   3
  -3   1  -8 320.481 21.2218   1
  -3   1  -8 325.499 20.1485   3
  -3   1  -8 331.430 19.9889   2
  -4  -1  -8 6.86248 2.43529   3
  -4  -1  -8 0.99698 3.87777   1
   4  -1   8 6.31641 2.25959   3
   4   1   8 9.14352 4.80563   1
   4   1   8 5.58005 2.02270   3
  -4   1  -8 7.47095 2.57086   3
  -4   1  -8 7.27893 2.17500   2
  -4   1  -8 12.5858 3.69918   1
  -5  -1  -8 1321.96 80.8320   1
   5  -1   8 1338.06 80.1608   1
   5  -1   8 1180.30 78.4052   3
  -5  -1  -8 1328.23 78.0362   2
   5   1   8 1264.70 78.2242   3
  -5   1  -8 1302.12 80.2434   1
   5   1   8 1371.20 81.4777   1
  -5   1  -8 1345.06 78.0327   2
   6  -1   8 6.98398 6.23533   1
  -6  -1  -8 5.46577 6.00424   1
   6  -1   8 6.68995 2.89421   3
  -6  -1  -8 9.38256 2.34809   2
   6   1   8 -4.6695 7.07997   1
  -6   1  -8 2.36289 5.65223   1
   6   1   8 4.25231 2.50486   3
   7  -1   8 438.288 28.9444   3
  -7  -1  -8 463.834 28.4267   2
  -7   1  -8 447.123 36.0267   1
  -7   1  -8 472.250 28.3606   2
   7   1   8 455.049 28.8277   3
  -8  -1  -8 69.1707 7.30361   2
   8  -1   8 61.4858 8.01652   3
  -8   1  -8 62.1719 7.03370   2
   8   1   8 63.8634 7.61999   3
  -9  -1  -8 168.662 15.2047   2
 -10  -1  -8 12.0227 3.92256   2
  10  -1   8 19.3141 5.31252   3
  10   1   8 5.95746 4.38032   3
 -10   1  -8 9.63536 3.77681   2
 -11  -1  -8 287.175 20.4589   2
 -11   1  -8 272.726 20.2495   2
  11   1   8 316.977 21.7358   3
 -11  -2   8 22.2088 5.67877   2
 -11   2   8 36.8639 5.91824   2
 -11   2   8 26.2850 4.78590   3
 -10  -2   8 376.107 27.9485   2
 -10   2   8 393.591 25.8158   3
 -10   2   8 423.258 26.5751   2
  -9  -2   8 72.9582 8.24682   2
  -9   2   8 73.5977 8.06827   2
  -9   2   8 66.3302 7.23177   3
  -8  -2   8 248.254 15.5243   3
  -8  -2   8 246.427 29.9815   1
  -8  -2   8 241.145 17.0371   2
  -8   2   8 222.324 16.1477   3
  -8   2   8 248.374 16.6989   2
   8   2  -8 254.761 38.7227   1
  -7  -2   8 195.305 12.5716   3
  -7  -2   8 223.446 14.7003   2
  -7  -2   8 177.139 12.7605   3
  -7  -2   8 259.870 28.1651   1
   7  -2  -8 187.897 28.6827   1
  -7   2   8 183.273 27.6631   1
  -7   2   8 226.015 14.3305   2
  -7   2   8 210.546 13.7477   3
  -7   2   8 159.705 13.4749   3
   7   2  -8 281.541 33.8168   1
  -6  -2   8 166.148 10.4674   3
  -6  -2   8 180.285 12.0882   2
  -6  -2   8 196.918 23.4375   1
  -6  -2   8 174.664 10.5672   3
   6  -2  -8 143.679 22.8037   1
  -6   2   8 181.992 11.7838   2
  -6   2   8 154.681 11.4116   3
  -6   2   8 171.516 11.5177   3
   6   2  -8 206.146 27.9881   1
  -6   2   8 134.304 22.3864   1
  -5  -2   8 385.241 32.3927   1
   5  -2  -8 370.418 30.0817   1
  -5  -2   8 372.603 23.6004   2
  -5   2   8 378.094 23.3201   2
   5   2  -8 400.106 34.3844   1
  -5   2   8 356.606 23.1452   3
  -5   2   8 383.188 30.8975   1
   4  -2  -8 2809.05 168.361   2
  -4  -2   8 2869.88 174.695   1
   4  -2  -8 2776.32 172.276   1
  -4  -2   8 2911.23 168.714   2
  -4   2   8 2819.95 168.464   2
  -4   2   8 3060.82 173.504   1
   4   2  -8 2607.25 178.825   1
   4   2  -8 2941.73 168.560   2
  -4   2   8 2783.10 168.424   3
  -3  -2   8 226.764 14.1089   2
  -3  -2   8 226.086 19.5271   1
   3  -2  -8 216.451 13.7980   2
   3  -2  -8 230.898 18.3134   1
   3   2  -8 220.130 13.9912   2
  -3   2   8 231.419 18.2105   1
  -3   2   8 221.081 13.8818   3
  -3   2   8 219.280 13.8411   2
  -2  -2   8 1040.87 61.7957   2
   2  -2  -8 1049.16 64.5688   1
  -2  -2   8 1079.50 64.8856   1
   2  -2  -8 1106.77 61.5971   3
   2  -2  -8 1057.38 61.5650   2
  -2   2   8 1003.74 61.5952   2
   2   2  -8 1057.10 61.7311   2
  -2   2   8 1039.60 64.6077   1
  -2   2   8 1045.00 61.6930   3
   2   2  -8 867.302 65.7164   1
   1  -2  -8 916.291 51.6776   2
   1  -2  -8 903.214 51.7323   3
   1  -2  -8 831.293 54.1770   1
  -1  -2   8 896.696 53.7432   1
  -1  -2   8 841.345 51.8446   2
  -1   2   8 857.642 51.8185   3
   1   2  -8 901.571 51.8286   2
  -1   2   8 869.406 51.7057   2
   1   2  -8 862.511 51.4038   3
  -1   2   8 889.955 54.3472   1
   1   2  -8 776.378 54.9494   1
   0  -2  -8 371.549 22.3563   2
   0  -2   8 394.514 23.8160   1
   0  -2   8 357.286 22.5112   2
   0  -2  -8 361.425 25.0277   1
   0  -2  -8 370.596 22.4518   3
   0  -2  -8 385.235 25.1911   1
   0   2  -8 384.933 25.1509   1
   0   2  -8 380.912 22.2481   3
   0   2  -8 348.801 22.4582   2
   0   2   8 363.845 22.5424   3
  -1  -2  -8 505.962 29.5443   3
  -1  -2  -8 497.743 29.4171   2
  -1  -2  -8 481.564 31.8580   1
  -1  -2  -8 511.051 32.0674   1
   1  -2   8 409.370 29.8523   3
   1   2   8 494.589 29.5956   3
  -1   2  -8 501.708 31.3574   1
  -1   2  -8 520.655 30.5137   1
  -1   2  -8 504.432 29.5235   2
  -1   2  -8 475.161 29.6788   3
  -2  -2  -8 3054.10 180.433   1
  -2  -2  -8 3223.38 180.998   1
  -2  -2  -8 3210.18 178.242   2
   2  -2   8 2582.39 178.612   3
  -2  -2  -8 2982.57 178.302   3
  -2   2  -8 3055.09 178.275   2
  -2   2  -8 2942.74 179.329   1
  -2   2  -8 3025.13 178.901   1
   2   2   8 2971.08 178.366   3
  -2   2  -8 3082.32 178.360   3
   3  -2   8 81.9661 7.41514   3
  -3  -2  -8 94.2737 7.09325   3
  -3  -2  -8 101.531 9.90172   1
  -3  -2  -8 108.619 6.88615   2
   3   2   8 98.1555 6.94078   3
  -3   2  -8 95.6178 8.06299   1
  -3   2  -8 95.2793 7.41183   3
  -3   2  -8 99.3871 6.83931   2
  -3   2  -8 98.5199 7.97863   1
  -4  -2  -8 490.088 31.7851   1
  -4  -2  -8 467.717 29.3487   3
  -4  -2  -8 496.171 29.0757   2
   4  -2   8 423.893 29.5923   3
  -4   2  -8 491.537 29.6544   3
  -4   2  -8 485.929 29.1217   2
  -4   2  -8 471.006 30.1628   1
   4   2   8 465.938 32.5300   1
   4   2   8 480.138 29.1893   3
  -4   2  -8 488.357 30.4667   1
   5  -2   8 288.077 19.9446   3
  -5  -2  -8 303.529 19.1395   2
  -5  -2  -8 292.770 22.6686   1
  -5   2  -8 319.764 19.1404   2
   5   2   8 312.212 19.3669   3
   5   2   8 289.933 25.3658   1
  -5   2  -8 300.745 21.6024   1
  -6  -2  -8 90.4723 13.6869   1
   6  -2   8 92.2180 8.37878   3
   6  -2   8 102.213 12.4784   1
  -6  -2  -8 100.262 7.54240   2
  -6   2  -8 107.217 7.54191   2
  -6   2  -8 96.8969 13.2303   1
   6   2   8 95.2152 7.68612   3
  -7  -2  -8 61.1311 5.87928   2
   7  -2   8 67.6366 7.66453   3
  -7   2  -8 65.8907 5.86047   2
   7   2   8 54.2417 6.33071   3
  -7   2  -8 40.9079 9.62090   1
  -8  -2  -8 226.172 16.7041   2
   8  -2   8 283.093 18.0747   3
   8   2   8 235.112 17.2116   3
  -8   2  -8 250.218 16.6752   2
   9  -2   8 8.41371 5.90502   3
 -10  -2  -8 7.32837 3.68706   2
  10   2   8 6.52504 4.12216   3
 -10   2  -8 8.05594 3.75069   2
 -11  -2  -8 -0.2082 4.56330   2
  11   2   8 0.38670 5.48383   3
 -11   2  -8 4.07709 4.65657   2
 -11  -3   8 74.9949 10.1824   2
 -11   3   8 57.8694 9.64330   3
 -11   3   8 68.2554 9.14387   2
 -10  -3   8 49.4312 7.51333   2
 -10   3   8 53.2317 7.97984   3
 -10   3   8 63.2098 8.56509   2
  -9  -3   8 3.58282 3.78334   2
  -9   3   8 0.24914 3.01677   3
  -9   3   8 -2.6653 3.15691   2
  -8  -3   8 119.377 10.5456   2
  -8  -3   8 141.498 26.8212   1
  -8  -3   8 105.869 8.10965   3
  -8   3   8 129.347 9.91424   2
   8   3  -8 128.603 25.1833   1
  -8   3   8 112.667 9.63434   3
  -7  -3   8 38.6733 3.19752   3
  -7  -3   8 34.7852 3.04245   3
   7  -3  -8 19.6671 14.8762   1
  -7  -3   8 42.2295 6.57564   2
  -7  -3   8 49.3710 13.7353   1
  -7   3   8 50.9994 5.91676   2
  -7   3   8 33.1772 14.2462   1
   7   3  -8 17.9785 18.1947   1
  -7   3   8 38.8612 5.73486   3
   6  -3  -8 3.60341 10.4148   1
   6  -3  -8 5.42965 2.71679   2
  -6  -3   8 6.30286 2.67957   2
  -6  -3   8 -9.0777 9.88036   1
  -6   3   8 -4.0576 10.1072   1
  -6   3   8 6.70320 2.29431   3
  -6   3   8 6.78096 2.36843   2
   6   3  -8 -8.1513 13.7325   1
   5  -3  -8 42.9814 10.3715   1
  -5  -3   8 47.1625 5.04203   2
  -5  -3   8 38.7819 11.1415   1
   5  -3  -8 35.6047 4.62862   2
  -5   3   8 43.9039 4.63869   3
  -5   3   8 48.2309 4.51480   2
   5   3  -8 49.3818 14.9413   1
  -5   3   8 53.0853 10.1781   1
   4  -3  -8 0.62048 1.61976   2
  -4  -3   8 6.27011 2.22820   2
  -4  -3   8 3.45760 7.88598   1
   4  -3  -8 1.81355 6.36695   1
  -4   3   8 0.85449 1.77336   3
   4   3  -8 -2.5875 10.1317   1
   4   3  -8 -1.4740 2.19024   2
  -4   3   8 -0.5831 5.64825   1
   3  -3  -8 32.5433 3.08820   2
  -3  -3   8 31.8320 3.48407   2
   3  -3  -8 24.4139 6.45766   1
  -3  -3   8 34.3146 7.90066   1
  -3   3   8 38.7130 3.50123   3
  -3   3   8 26.2239 5.99983   1
   3   3  -8 34.7492 3.75982   2
   3   3  -8 42.8817 10.8274   1
  -3   3   8 32.8356 3.01847   2
  -2  -3   8 3.94578 4.31293   1
   2  -3  -8 3.93682 1.49653   3
   2  -3  -8 5.63812 1.22993   2
  -2  -3   8 5.94655 1.67981   2
   2   3  -8 -1.3939 6.62636   1
  -2   3   8 4.48219 1.50753   3
   2   3  -8 3.88840 1.58998   2
  -2   3   8 4.40905 1.20160   2
  -1  -3   8 234.753 16.2909   1
   1  -3  -8 231.641 17.3703   1
   1  -3  -8 227.883 14.0011   3
  -1  -3   8 226.973 14.0685   2
   1  -3  -8 229.113 13.7738   2
   1   3  -8 173.816 19.4052   1
  -1   3   8 230.543 14.0985   3
  -1   3   8 225.393 13.7987   2
   1   3  -8 234.208 13.4865   3
   1   3  -8 219.156 14.0076   2
   0  -3  -8 144.377 12.7158   1
   0  -3   8 138.771 10.3331   1
   0  -3   8 143.099 9.23280   2
   0  -3  -8 149.388 12.7910   1
   0  -3  -8 142.804 8.97189   2
   0  -3  -8 146.613 9.28518   3
   0   3   8 148.880 9.37579   3
   0   3  -8 149.306 8.92359   3
   0   3  -8 130.950 9.15257   2
  -1  -3  -8 60.9926 8.48125   1
  -1  -3  -8 78.2190 5.04736   2
   1  -3   8 59.1938 5.71284   3
  -1  -3  -8 65.9429 9.36611   1
  -1  -3  -8 74.5086 5.38735   3
  -1   3  -8 71.3086 5.26031   2
  -1   3  -8 79.1724 5.97884   1
  -1   3  -8 75.7195 5.27306   3
  -1   3  -8 64.0528 10.4675   1
   1   3   8 74.0843 5.40457   3
  -2  -3  -8 400.395 23.7211   2
  -2  -3  -8 376.337 26.3843   1
  -2  -3  -8 384.427 23.8945   3
  -2  -3  -8 412.554 27.5765   1
  -2   3  -8 405.678 24.0684   3
  -2   3  -8 392.761 23.9096   1
   2   3   8 388.258 23.9783   3
  -2   3  -8 375.908 24.9369   1
  -2   3  -8 383.008 23.8369   2
  -3  -3  -8 148.239 10.5232   3
  -3  -3  -8 167.313 10.3490   2
  -3  -3  -8 146.227 13.6543   1
   3  -3   8 145.802 11.2092   3
  -3   3  -8 155.458 10.8270   1
  -3   3  -8 157.937 10.4359   2
  -3   3  -8 173.091 10.9843   1
  -3   3  -8 171.082 11.1538   3
   3   3   8 151.310 14.2270   1
   3   3   8 156.835 10.4145   3
  -4  -3  -8 193.469 12.0186   2
  -4  -3  -8 185.089 15.7277   1
   4  -3   8 181.406 13.1909   3
  -4   3  -8 182.500 12.4303   1
   4   3   8 182.644 12.0521   3
   4   3   8 179.763 16.8363   1
  -4   3  -8 159.430 13.9094   1
  -4   3  -8 185.964 13.3716   3
  -4   3  -8 192.773 12.2687   2
  -5  -3  -8 714.846 43.1394   2
  -5  -3  -8 687.589 46.7070   1
   5  -3   8 763.677 44.2683   3
   5   3   8 723.646 43.2848   3
  -5   3  -8 667.660 43.5336   1
   5   3   8 712.019 47.7943   1
  -6  -3  -8 126.411 15.5100   1
   6  -3   8 142.543 10.8583   3
  -6  -3  -8 127.184 9.33903   2
  -6   3  -8 119.443 14.8113   1
  -6   3  -8 125.974 9.13837   2
   6   3   8 127.283 9.40649   3
   7  -3   8 165.619 17.6132   1
  -7  -3  -8 174.944 12.9966   2
   7  -3   8 222.929 14.7329   3
  -7   3  -8 185.382 12.8926   2
   7   3   8 180.456 13.2441   3
  -7   3  -8 225.733 20.7018   1
  -8  -3  -8 331.694 21.7546   2
  -8   3  -8 329.198 21.4231   2
   8   3   8 328.485 21.9291   3
  -9  -3  -8 95.8759 9.61767   2
   9   3   8 96.4233 9.26893   3
 -10  -3  -8 71.0353 8.32802   2
  10   3   8 69.8749 8.75101   3
 -10   3  -8 62.8853 7.89762   2
 -11  -4   8 46.0042 7.64462   2
 -11   4   8 34.6943 5.87767   3
 -11   4   8 45.4393 6.48781   2
 -10  -4   8 153.610 14.0579   2
 -10   4   8 150.301 12.8457   2
 -10   4   8 144.120 13.0014   3
  -9  -4   8 91.7183 10.0009   2
  -9   4   8 92.2341 9.34047   3
  -9   4   8 92.0045 8.95900   2
  -8  -4   8 93.6455 8.87995   2
  -8  -4   8 58.0870 17.9362   1
  -8  -4   8 67.5247 4.94868   3
  -8   4   8 70.7639 8.05429   3
   8   4  -8 15.1231 24.8046   1
  -8   4   8 85.5768 7.74797   2
   7  -4  -8 706.474 44.1260   2
  -7  -4   8 696.226 44.4593   2
  -7  -4   8 846.376 56.2446   1
   7   4  -8 777.212 61.6780   1
  -7   4   8 705.865 43.8136   2
  -7   4   8 642.096 44.0915   3
   6  -4  -8 46.1618 13.9438   1
  -6  -4   8 91.6398 15.5038   1
  -6  -4   8 85.9339 7.29339   2
   6  -4  -8 73.2649 7.15393   2
  -6   4   8 84.7335 6.62568   2
  -6   4   8 77.7604 7.13196   3
  -6   4   8 95.3589 15.1338   1
   6   4  -8 105.301 20.4466   1
  -5  -4   8 521.905 32.9526   2
   5  -4  -8 522.004 38.3827   1
  -5   4   8 549.432 32.4213   2
  -5   4   8 517.998 38.9458   1
   5   4  -8 564.845 44.9238   1
  -5   4   8 530.603 32.9119   3
  -4  -4   8 869.752 46.8172   2
  -4  -4   8 799.118 54.2079   1
   4  -4  -8 761.455 51.0509   1
   4  -4  -8 676.503 46.1566   2
   4   4  -8 700.663 55.3184   1
  -4   4   8 783.985 46.7183   3
  -4   4   8 803.865 51.7787   1
   4   4  -8 752.457 46.9574   2
  -4   4   8 790.147 46.1757   2
   3  -4  -8 242.891 20.7909   1
  -3  -4   8 286.670 23.9916   1
  -3  -4   8 275.097 16.9399   2
   3  -4  -8 262.968 16.4675   2
  -3   4   8 276.887 16.4338   2
   3   4  -8 232.330 25.6220   1
  -3   4   8 286.498 21.4268   1
   3   4  -8 264.708 16.9600   2
  -3   4   8 280.065 17.0189   3
   2  -4  -8 288.608 21.4417   1
   2  -4  -8 281.333 17.3311   3
  -2  -4   8 293.950 21.9844   1
  -2  -4   8 290.733 17.4283   2
  -2   4   8 275.008 21.0477   1
  -2   4   8 278.271 17.4608   3
   2   4  -8 275.600 17.3982   2
   2   4  -8 240.688 24.1763   1
   1  -4  -8 2371.01 137.368   3
   1  -4  -8 2348.70 140.261   1
  -1  -4   8 2288.54 137.378   2
   1  -4  -8 2422.81 140.702   1
  -1  -4   8 2474.20 139.453   1
   1  -4  -8 2294.48 137.579   2
  -1   4   8 2295.68 137.500   3
   1   4  -8 2104.83 136.853   3
   1   4  -8 2247.58 140.995   1
   1   4  -8 2343.28 137.352   2
   1   4  -8 2316.05 136.890   3
   0  -4   8 113.847 8.34018   1
   0  -4  -8 102.090 6.80970   2
   0  -4  -8 102.430 7.37202   3
   0  -4  -8 112.392 11.5493   1
   0  -4  -8 107.225 11.7838   1
   0  -4   8 108.821 7.21892   2
   0   4  -8 100.006 10.6536   1
   0   4  -8 106.616 7.25612   2
   0   4   8 107.781 7.42355   3
   0   4  -8 108.336 6.97283   3
  -1  -4  -8 875.941 55.6678   1
  -1  -4  -8 911.469 52.4734   2
  -1  -4  -8 871.102 52.7770   3
  -1  -4  -8 870.336 55.9738   1
  -1   4  -8 872.484 52.9084   1
   1   4   8 875.365 52.8523   3
  -1   4  -8 877.649 52.5829   1
  -1   4  -8 934.544 52.8261   3
  -1   4  -8 847.066 52.6565   2
  -2  -4  -8 852.778 56.8978   1
  -2  -4  -8 948.194 53.9886   2
  -2  -4  -8 867.303 54.2427   3
  -2  -4  -8 952.311 54.1535   2
  -2  -4  -8 962.065 58.0049   1
  -2   4  -8 938.349 54.5611   3
  -2   4  -8 848.568 54.0797   2
   2   4   8 874.714 54.2828   3
  -3  -4  -8 149.728 14.2526   1
  -3  -4  -8 164.088 10.4554   2
   3   4   8 160.846 10.5633   3
  -3   4  -8 164.444 11.5273   3
  -3   4  -8 149.212 10.4648   2
  -4  -4  -8 100.335 7.54012   2
  -4  -4  -8 97.6625 12.5353   1
   4   4   8 101.123 7.70066   3
   4   4   8 112.519 14.8423   1
  -4   4  -8 105.371 10.3141   3
  -5  -4  -8 786.234 47.5454   2
  -5  -4  -8 775.097 51.4921   1
   5   4   8 806.300 47.5976   3
   5   4   8 765.074 52.9918   1
  -6  -4  -8 25.3951 3.56611   2
  -6   4  -8 20.4208 3.02770   2
   6   4   8 20.3096 3.30363   3
  -7  -4  -8 84.6780 8.08603   2
  -7   4  -8 85.7418 11.6288   1
   7   4   8 103.165 8.10931   3
  -7   4  -8 101.834 7.77476   2
  -8  -4  -8 63.9059 7.64271   2
   8   4   8 55.6545 7.61981   3
  -8   4  -8 67.4361 6.98761   2
  -9  -4  -8 7.58764 3.57579   2
  -9   4  -8 8.32237 3.43868   2
   9   4   8 4.07924 3.67330   3
 -10  -4  -8 3.33100 3.84304   2
 -10   4  -8 -2.3571 3.57028   2
  10   4   8 3.19051 4.27865   3
 -11  -5   8 13.9861 5.76754   2
 -11   5   8 1.34824 4.82748   2
 -11   5   8 7.19365 5.19096   3
 -10  -5   8 91.9912 11.0654   2
 -10   5   8 75.5061 11.3635   3
 -10   5   8 70.1474 9.36848   2
  -9  -5   8 -0.8698 4.37090   2
  -9   5   8 -1.0918 3.81662   3
  -9   5   8 4.79962 3.39232   2
  -8  -5   8 146.082 12.4888   2
  -8   5   8 156.709 11.3720   2
  -8   5   8 140.859 12.2794   3
   7  -5  -8 6.72953 4.24521   2
  -7  -5   8 7.25202 3.79776   2
   7   5  -8 2.64481 22.1541   1
  -7   5   8 10.6914 2.91326   2
  -7   5   8 10.4191 3.83543   3
   6  -5  -8 4.58025 3.05594   2
  -6  -5   8 4.87173 3.05631   2
  -6  -5   8 7.52363 13.3491   1
   6   5  -8 -8.9838 16.8869   1
  -6   5   8 2.65905 2.87709   3
  -6   5   8 7.05990 2.10105   2
  -6   5   8 5.19501 11.1242   1
  -5  -5   8 -1.6277 11.2748   1
  -5  -5   8 2.15900 2.64892   2
   5  -5  -8 0.66124 2.21621   2
   5  -5  -8 -2.1647 9.29704   1
  -5   5   8 0.18281 1.46705   2
  -5   5   8 -10.171 8.23903   1
  -5   5   8 -0.5203 2.48016   3
   5   5  -8 5.23894 14.3161   1
   4  -5  -8 26.4225 3.81008   2
  -4  -5   8 35.1981 4.66659   2
  -4  -5   8 54.7575 11.8688   1
   4  -5  -8 27.8291 9.02411   1
  -4   5   8 37.3301 3.25029   2
  -4   5   8 33.6937 8.37385   1
   4   5  -8 21.0275 12.3115   1
  -4   5   8 36.0028 4.87893   3
  -3  -5   8 6.44850 1.94444   2
   3  -5  -8 8.73719 6.73216   1
   3  -5  -8 9.36520 1.60619   2
  -3  -5   8 8.19185 8.34832   1
  -3   5   8 3.85710 5.55081   1
   3   5  -8 2.39553 9.24109   1
   3   5  -8 1.94310 2.39452   2
  -3   5   8 10.5627 2.23576   3
  -3   5   8 9.84721 1.42511   2
   2  -5  -8 96.7089 13.1117   1
   2  -5  -8 90.4886 6.33328   2
   2  -5  -8 91.4940 7.14455   3
   2  -5  -8 101.923 12.9454   1
  -2  -5   8 95.0666 13.7144   1
  -2  -5   8 96.3416 7.01424   2
   2   5  -8 109.766 14.5978   1
   2   5  -8 96.1000 7.25141   2
  -2   5   8 117.200 7.45322   3
   1  -5  -8 45.7441 3.30534   2
   1  -5  -8 40.0917 4.38065   3
   1  -5  -8 41.9799 7.45369   1
  -1  -5   8 41.1787 4.16749   2
  -1  -5   8 46.5002 8.23468   1
   1   5  -8 42.9999 3.05595   3
   1   5  -8 37.5962 4.25035   2
  -1   5   8 39.1333 4.50079   3
   1   5  -8 51.5181 8.88021   1
   1   5  -8 47.7820 3.39393   3
   0  -5  -8 35.4405 4.22710   3
   0  -5   8 33.7811 3.43496   2
   0  -5   8 35.2397 4.87827   1
   0  -5  -8 34.6205 3.07018   2
   0  -5  -8 39.2556 7.39103   1
   0  -5  -8 29.7033 6.84752   1
   0   5  -8 43.6579 3.77742   2
   0   5  -8 35.4816 5.44491   1
   0   5   8 36.9485 3.76736   3
   0   5  -8 36.4771 3.95185   3
  -1  -5  -8 13.6280 6.50840   1
  -1  -5  -8 16.9003 2.79401   3
  -1  -5  -8 18.5041 2.31274   2
  -1  -5  -8 17.7064 5.86211   1
  -1   5  -8 15.0604 2.77673   3
  -1   5  -8 20.0348 3.14156   2
   1   5   8 22.5912 3.40656   3
  -2  -5  -8 901.565 58.3683   1
  -2  -5  -8 935.429 53.6025   2
  -2  -5  -8 963.134 53.8749   2
  -2  -5  -8 842.346 57.0522   1
   2   5   8 881.312 54.0273   3
  -2   5  -8 919.022 54.5218   3
  -2   5  -8 846.362 53.7801   2
  -3  -5  -8 27.1610 3.49749   2
  -3  -5  -8 16.8669 6.45937   1
   3   5   8 25.3387 3.77966   3
  -3   5  -8 19.1759 2.86708   2
  -3   5  -8 20.5420 4.42959   3
  -4  -5  -8 133.210 9.02639   2
  -4  -5  -8 114.104 14.7131   1
   4   5   8 127.288 9.06644   3
   4   5   8 106.794 16.5467   1
  -5  -5  -8 125.527 9.02835   2
  -5  -5  -8 78.7959 15.8816   1
   5   5   8 106.844 20.2615   1
   5   5   8 116.582 8.88632   3
  -6  -5  -8 165.048 11.6719   2
  -6   5  -8 161.298 11.2059   2
   6   5   8 159.833 11.5557   3
  -7  -5  -8 23.0411 4.05839   2
   7   5   8 23.4863 3.84654   3
  -7   5  -8 18.4912 3.28821   2
  -8  -5  -8 423.687 29.3379   2
  -8   5  -8 492.682 29.0703   2
  -9  -5  -8 12.5424 4.19313   2
   9   5   8 19.2854 4.52892   3
  -9   5  -8 20.6654 4.26125   2
 -10  -5  -8 97.5294 10.6132   2
  10   5   8 100.951 10.6800   3
 -10   5  -8 108.815 9.86372   2
 -10  -6   8 21.7096 6.11104   2
 -10   6   8 20.5889 5.11075   2
 -10   6   8 25.1061 5.95511   3
  -9  -6   8 103.495 11.0465   2
  -9   6   8 93.5940 9.08775   2
  -8  -6   8 2.59500 4.32545   2
  -8   6   8 2.34994 2.90633   2
  -8   6   8 3.78043 4.11861   3
  -7  -6   8 694.020 40.8932   2
  -7   6   8 636.241 40.9586   3
  -7   6   8 619.109 39.4886   2
   6  -6  -8 13.1009 3.43246   2
  -6  -6   8 5.14794 3.14581   2
  -6   6   8 10.9058 3.52378   3
  -6   6   8 12.0856 2.13794   2
  -5  -6   8 425.430 26.7741   2
   5  -6  -8 461.533 26.1445   2
  -5   6   8 421.058 37.2895   1
  -5   6   8 415.817 27.0355   3
  -5   6   8 409.718 25.6469   2
   5   6  -8 394.890 40.6668   1
  -4  -6   8 100.585 17.2928   1
   4  -6  -8 99.6864 7.41426   2
  -4  -6   8 115.980 8.33052   2
  -4   6   8 100.206 6.74750   2
  -4   6   8 114.535 8.95409   3
  -4   6   8 88.0600 15.3060   1
   4   6  -8 84.9370 15.8509   1
   3  -6  -8 202.519 14.7093   2
  -3  -6   8 255.334 15.4759   2
   3  -6  -8 248.513 21.2544   1
  -3  -6   8 236.740 25.1195   1
  -3   6   8 257.675 15.8964   3
   3   6  -8 261.250 23.6148   1
   2  -6  -8 24.2650 7.72417   1
   2  -6  -8 20.6757 7.31864   1
   2  -6  -8 23.5555 2.51797   2
  -2  -6   8 27.6784 3.61778   2
  -2  -6   8 19.3362 8.33273   1
   2   6  -8 24.1675 3.41670   2
   2   6  -8 30.2703 2.32902   3
  -2   6   8 29.7915 4.03604   3
   2   6  -8 26.5460 1.96436   3
   2   6  -8 28.6761 7.09522   1
  -1  -6   8 1973.22 115.071   1
  -1  -6   8 1894.31 112.472   2
   1  -6  -8 1849.51 116.291   1
   1  -6  -8 1836.30 111.936   2
   1  -6  -8 1889.60 116.171   1
   1   6  -8 1970.93 112.274   3
   1   6  -8 1845.01 111.981   3
   1   6  -8 1904.23 114.139   1
  -1   6   8 1898.69 112.811   3
   1   6  -8 1879.75 112.512   2
   0  -6  -8 -2.1348 5.91284   1
   0  -6  -8 3.19887 1.46244   2
   0  -6   8 4.68458 1.61852   2
   0  -6  -8 0.82208 6.45199   1
   0  -6   8 6.62196 2.69675   1
   0   6  -8 4.61953 2.42645   1
   0   6  -8 5.28840 2.17499   3
   0   6  -8 4.37425 2.11998   2
   0   6   8 3.34079 2.04166   3
   0   6  -8 3.39705 1.20288   3
  -1  -6  -8 868.911 55.1831   1
  -1  -6  -8 764.692 50.3457   2
  -1  -6  -8 922.684 50.6252   2
  -1  -6  -8 807.813 54.6177   1
   1   6   8 848.563 50.9338   3
  -1   6  -8 837.673 50.6091   2
  -1   6  -8 861.261 51.1838   3
  -2  -6  -8 31.1969 9.59723   1
  -2  -6  -8 36.5159 3.49274   2
  -2  -6  -8 35.4096 4.24102   2
  -2  -6  -8 30.4518 7.98784   1
   2   6   8 32.6977 4.40703   3
  -2   6  -8 23.5301 3.30185   2
  -2   6  -8 41.6639 6.62844   3
  -3  -6  -8 186.329 11.3866   2
  -3  -6  -8 176.702 11.7720   2
  -3  -6  -8 163.608 17.7599   1
   3   6   8 180.341 11.8069   3
  -3   6  -8 153.660 14.2832   3
  -4  -6  -8 8.50655 2.75481   2
  -4  -6  -8 4.76318 7.71649   1
   4   6   8 12.4961 10.1438   1
   4   6   8 6.80414 2.61635   3
  -5  -6  -8 570.919 37.7792   2
  -5  -6  -8 563.784 43.8138   1
  -5   6  -8 677.891 37.5457   2
   5   6   8 629.818 37.8055   3
  -6  -6  -8 -3.3229 2.72537   2
  -6   6  -8 -0.2630 2.20235   2
   6   6   8 1.54278 2.66941   3
  -7  -6  -8 103.254 11.1497   2
  -7   6  -8 131.011 9.50657   2
   7   6   8 129.445 10.0311   3
  -8  -6  -8 -4.5918 4.08220   2
  -8   6  -8 0.06429 3.10867   2
   8   6   8 -0.7148 3.63757   3
  -9  -6  -8 7.65405 4.74775   2
   9   6   8 8.48360 4.15693   3
  -9   6  -8 6.15130 3.75532   2
 -10  -7   8 41.4464 7.84973   2
 -10   7   8 43.5386 7.55795   3
  -9  -7   8 -0.0863 4.51307   2
  -9   7   8 4.44162 4.82440   3
  -9   7   8 4.59824 3.66509   2
  -8  -7   8 91.2971 11.1722   2
  -8   7   8 81.7797 7.67263   2
  -7  -7   8 -2.5172 3.46174   2
  -7   7   8 -4.8967 3.83539   3
  -7   7   8 -1.5135 2.05106   2
  -6  -7   8 7.14644 3.22950   2
  -6   7   8 11.3161 4.12165   3
  -5  -7   8 8.26191 2.98386   2
  -5   7   8 16.2787 3.93849   3
  -4  -7   8 6.96007 2.59063   2
   4  -7  -8 2.97520 11.8663   1
  -4   7   8 4.93380 3.27738   3
  -3  -7   8 14.3787 2.61461   2
   3  -7  -8 12.0467 9.65017   1
   3   7  -8 10.2971 9.14174   1
  -3   7   8 12.2064 3.03103   3
  -2  -7   8 4.90280 12.9598   1
   2  -7  -8 1.58272 8.15244   1
   2  -7  -8 4.25259 8.04523   1
  -2  -7   8 16.5896 2.62875   2
  -2   7   8 13.1273 3.00396   3
   2   7  -8 16.9118 2.05957   3
   2   7  -8 12.7696 1.69249   3
   2   7  -8 16.2611 6.48820   1
  -1  -7   8 -8.5112 5.89952   1
   1  -7  -8 5.04730 7.94306   1
   1  -7  -8 1.48141 7.65976   1
  -1  -7   8 1.47946 2.00422   2
   1   7  -8 1.05264 2.81659   2
  -1   7   8 1.36410 2.44636   3
   1   7  -8 1.08119 1.43514   3
   1   7  -8 1.79761 4.15633   1
   0  -7   8 124.482 8.44252   2
   0  -7  -8 142.445 16.3892   1
   0  -7  -8 112.633 16.1935   1
   0  -7  -8 127.612 7.64030   2
   0  -7   8 125.155 9.55151   1
   0   7  -8 133.581 9.67979   3
   0   7  -8 128.167 8.11663   3
   0   7  -8 115.605 8.92255   1
   0   7   8 126.171 9.17387   3
   0   7  -8 115.395 8.85106   2
  -1  -7  -8 9.80384 7.35477   1
  -1  -7  -8 4.63240 1.91954   2
  -1  -7  -8 0.47806 1.09093   2
  -1  -7  -8 2.85003 8.66073   1
  -1   7  -8 -1.7572 2.25746   2
  -1   7  -8 2.19829 1.56454   3
   1   7   8 0.42640 2.15451   3
  -1   7  -8 -4.4642 3.56718   3
  -2  -7  -8 428.979 24.5705   2
  -2  -7  -8 410.114 33.1409   1
  -2  -7  -8 407.831 30.5211   1
  -2  -7  -8 351.239 24.9962   2
  -2   7  -8 395.816 26.7048   3
   2   7   8 448.896 25.5610   3
  -3  -7  -8 7.77388 2.19036   2
  -3  -7  -8 8.38783 8.35091   1
  -3  -7  -8 -8.1998 11.2553   1
  -3  -7  -8 9.79524 2.75268   2
   3   7   8 7.43196 2.61656   3
  -4  -7  -8 76.9702 7.44021   2
  -4  -7  -8 76.2071 12.4073   1
   4   7   8 93.5908 7.39202   3
  -5  -7  -8 5.87318 3.43938   2
  -5   7  -8 11.1515 3.04572   2
   5   7   8 8.83351 3.54818   3
  -6  -7  -8 120.047 10.8018   2
   6   7   8 141.609 10.4245   3
  -6   7  -8 141.372 9.93742   2
  -7  -7  -8 2.75351 3.67918   2
  -7   7  -8 0.28250 2.89394   2
   7   7   8 7.80159 3.62841   3
   8   7   8 335.052 22.5160   3
  -9  -7  -8 -5.2487 4.86694   2
   9   7   8 -0.5509 4.15387   3
  -9   7  -8 -2.8689 3.74356   2
  -9  -8   8 44.7564 7.12406   2
  -9   8   8 57.1083 8.20857   3
  -8  -8   8 10.2644 4.80796   2
  -8   8   8 10.1105 5.67707   3
  -7  -8   8 331.608 21.8269   2
  -7   8   8 277.392 22.2118   3
  -6  -8   8 10.0875 3.61720   2
  -6   8   8 15.1904 4.65859   3
  -5  -8   8 206.752 14.3635   2
  -5   8   8 205.004 15.4598   3
  -4  -8   8 111.601 9.04605   2
  -4   8   8 119.171 10.2127   3
  -3  -8   8 130.894 9.53578   2
   3   8  -8 138.917 8.29919   3
  -3   8   8 136.510 10.6179   3
   3   8  -8 133.736 8.66775   3
   2  -8  -8 64.6590 13.5793   1
  -2  -8   8 65.7677 5.75975   2
  -2   8   8 65.4226 6.56554   3
  -1  -8   8 896.740 51.7679   2
   1  -8  -8 820.868 57.7117   1
   1   8  -8 811.021 52.0118   3
   1   8  -8 888.471 51.3226   3
  -1   8   8 882.787 52.4382   3
   0  -8   8 5.19749 5.05425   1
   0  -8   8 2.44300 1.78170   2
   0  -8  -8 19.4028 9.93645   1
   0   8   8 3.13162 2.61083   3
   0   8  -8 2.04753 3.70655   3
   0   8  -8 2.15969 1.47357   3
  -1  -8  -8 255.571 23.8625   1
  -1  -8  -8 223.054 15.1246   2
  -1  -8  -8 262.244 15.0146   2
   1   8   8 279.403 16.6332   3
  -1   8  -8 210.592 17.9573   3
  -1   8  -8 269.031 15.8486   3
  -2  -8  -8 141.419 11.6895   2
  -2  -8  -8 155.369 19.9209   1
  -2   8  -8 180.878 11.4007   3
   2   8   8 169.895 11.9117   3
  -3  -8  -8 38.8349 5.20251   2
  -3  -8  -8 42.1657 5.59150   2
  -3  -8  -8 30.6615 11.6916   1
   3   8   8 46.3171 5.63570   3
  -3   8  -8 52.0105 5.69682   3
  -4  -8  -8 38.8584 5.98591   2
  -4  -8  -8 9.01806 18.8945   1
   4   8   8 52.3648 5.72902   3
  -5  -8  -8 298.361 21.0752   2
   5   8   8 318.486 20.9993   3
  -5   8  -8 336.324 20.3897   2
  -6  -8  -8 -0.3958 3.74084   2
   6   8   8 -2.2759 3.18638   3
  -6   8  -8 -2.8712 2.42427   2
  -7  -8  -8 57.8475 8.91921   2
  -7   8  -8 52.0089 6.57508   2
   7   8   8 54.8118 7.31386   3
  -8  -8  -8 14.9867 5.53835   2
  -8   8  -8 21.1053 4.47163   2
   8   8   8 10.2594 4.50896   3
  -8  -9   8 25.1824 5.67053   2
  -8   9   8 15.7714 6.43149   3
  -7  -9   8 2.09540 4.46250   2
  -7   9   8 7.66233 5.42450   3
  -6  -9   8 4.91075 3.58378   2
  -6   9   8 9.41734 5.05160   3
  -5  -9   8 37.2044 5.88747   2
  -4  -9   8 11.9382 3.14279   2
  -4   9   8 7.73551 3.94734   3
  -3  -9   8 18.2221 2.95908   2
  -3   9   8 23.1390 4.26102   3
   3   9  -8 22.0512 3.13318   3
  -2  -9   8 10.6862 2.48433   2
   2   9  -8 13.9098 1.82942   3
  -2   9   8 13.2697 3.52337   3
  -1  -9   8 22.0913 2.95737   2
   1   9  -8 22.1809 7.37715   3
  -1   9   8 19.6236 3.91383   3
   1   9  -8 19.8980 3.05126   3
   0   9  -8 25.3275 9.23303   3
   0   9   8 19.9064 3.70519   3
   0   9  -8 26.8911 3.32764   3
  -1   9  -8 4.10119 2.07597   3
   1   9   8 0.46466 2.84921   3
  -2  -9  -8 207.547 13.9790   2
   2   9   8 258.744 16.0500   3
  -2   9  -8 237.030 15.2682   3
  -3  -9  -8 26.8096 4.29784   2
   3   9   8 32.7214 4.43877   3
  -3   9  -8 35.6660 5.46787   3
  -4  -9  -8 7.98059 3.17291   2
  -4   9  -8 4.99487 3.63407   3
  -5  -9  -8 99.0784 9.47513   2
  -5   9  -8 97.2225 8.25898   2
   5   9   8 94.0825 9.37652   3
  -5   9  -8 102.174 10.8692   3
  -6  -9  -8 36.4915 5.78995   2
  -6   9  -8 36.4172 5.79096   2
   6   9   8 29.0567 4.87121   3
  -7  -9  -8 16.6625 5.79917   2
   7   9   8 8.54669 4.26864   3
  -7   9  -8 11.3655 4.02302   2
  -7 -10   8 100.642 10.6318   2
  -7  10   8 66.7652 9.80123   3
  -6 -10   8 27.3450 6.19031   2
  -6  10   8 28.0188 6.20839   3
  -5 -10   8 24.2079 4.21140   2
  -5  10   8 17.2966 5.56451   3
  -4 -10   8 196.226 13.7770   2
  -4  10   8 199.189 15.6985   3
  -3 -10   8 18.3614 3.07944   2
  -3  10   8 13.4100 4.35764   3
  -2 -10   8 143.025 10.0240   2
   2  10  -8 146.686 9.28837   3
  -2  10   8 126.717 14.1902   3
   1  10  -8 229.290 14.5024   3
   0  10  -8 31.6297 4.10122   3
  -1  10  -8 39.5227 4.87088   3
  -2  10  -8 221.577 14.8428   3
   2  10   8 217.791 16.3838   3
   3  10   8 4.86412 3.59386   3
  -3  10  -8 7.59805 3.24632   3
  -4  10  -8 99.1598 9.80296   3
   4  10   8 99.7322 9.50903   3
  -4  10  -8 103.783 8.44503   2
  -5  10  -8 72.7201 7.19000   2
   5  10   8 69.5692 8.15303   3
  -5  10  -8 52.1815 7.57466   3
   6  10   8 0.64918 3.94544   3
  -6  10  -8 1.03722 5.69648   3
  -6  10  -8 3.31488 3.52990   2
  -5  11   8 28.6014 6.45300   3
  -4 -11   8 2.26627 3.15352   2
  -4  11   8 6.06566 4.70685   3
  -3 -11   8 28.3675 3.84421   2
  -3  11   8 26.4435 5.14343   3
  -2 -11   8 -0.9282 2.40963   2
   2  11  -8 3.85880 2.73247   3
  -2  11   8 -3.5863 3.79603   3
   1  11  -8 27.7853 4.27563   3
  -1  11   8 26.8880 4.86478   3
   0  11   8 11.0769 4.01526   3
   0  11  -8 5.47654 2.46360   3
   1  11   8 1.40846 3.58553   3
  -1  11  -8 3.07324 2.71224   3
  -2  11  -8 29.5166 4.33679   3
   2  11   8 30.4443 5.18685   3
  -3  11  -8 66.0117 6.66670   2
  -3  11  -8 53.9373 7.65474   3
   3  11   8 66.2486 8.03628   3
   4  11   8 3.05670 3.81731   3
  -4  11  -8 1.67421 4.19945   3
  -2  12   8 51.1277 7.05686   3
  -1  12   8 -0.8109 4.22819   3
   0  12  -8 13.0133 3.37702   3
   0  12   8 9.39453 4.42217   3
  -1  12  -8 1.43444 3.16550   3
   1  12   8 -1.2284 4.25780   3
   2  12   8 174.662 14.1182   3
 -11   0   9 24.7037 4.24289   3
 -11   0   9 24.6032 6.06578   2
 -10   0   9 5.08229 3.15377   3
  -9   0   9 78.7399 8.92380   2
  -9   0   9 85.8137 7.09037   3
  -8   0   9 2.32600 2.92743   3
  -8   0   9 8.52487 14.7070   1
  -8   0   9 2.44426 2.17281   3
   8   0  -9 6.45513 18.9129   1
  -8   0   9 6.54835 3.89768   2
   7   0  -9 816.036 62.6697   1
  -7   0   9 876.763 62.9215   1
  -7   0   9 943.059 51.3123   3
  -7   0   9 768.511 51.1300   3
  -7   0   9 855.582 52.2050   2
  -6   0   9 -14.168 9.78916   1
  -6   0   9 -0.2724 1.57274   3
  -6   0   9 4.05602 2.43013   2
   6   0  -9 -10.172 19.7266   1
  -6   0   9 2.58979 1.39671   3
   5   0  -9 864.035 52.4718   2
   5   0  -9 777.894 59.1504   1
  -5   0   9 929.257 60.8252   1
  -5   0   9 854.839 52.1930   3
  -5   0   9 825.007 51.9962   3
  -5   0   9 978.228 52.8166   2
  -4   0   9 28.4560 3.91883   2
   4   0  -9 18.8308 8.90727   1
  -4   0   9 16.2337 7.35132   1
  -4   0   9 26.1852 2.68298   3
  -3   0   9 291.726 18.1606   2
   3   0  -9 283.340 18.0693   2
  -3   0   9 298.651 23.0454   1
  -3   0   9 295.839 17.7340   3
   3   0  -9 301.997 23.6405   1
   2   0  -9 0.15081 4.92216   1
   2   0  -9 4.53603 1.47902   2
  -2   0   9 7.44232 1.64550   2
   2   0  -9 5.06063 0.99843   3
  -2   0   9 7.02570 4.00668   1
   1   0  -9 4402.43 258.511   2
   1   0  -9 4281.90 258.304   3
  -1   0   9 4681.20 261.028   1
  -1   0   9 4160.74 258.567   2
  -1   0   9 4143.11 258.452   3
   1   0  -9 4591.48 261.225   1
   0   0  -9 1.47269 0.96957   3
   0   0  -9 2.82054 1.24663   2
   0   0  -9 3.36218 3.61089   1
   0   0   9 5.92569 1.33342   2
   0   0   9 4.80315 2.77113   1
  -1   0  -9 1937.42 114.801   2
  -1   0  -9 1943.80 114.737   3
  -1   0  -9 1958.35 116.689   1
   1   0   9 1908.57 114.919   3
   2   0   9 3.01893 1.89929   3
  -2   0  -9 1.01628 1.62858   3
  -2   0  -9 3.08537 1.80522   2
  -2   0  -9 -0.7354 3.08557   1
  -2   0  -9 4.73308 3.43903   1
  -3   0  -9 78.4165 8.59165   1
   3   0   9 87.1573 6.58238   3
  -3   0  -9 88.2024 6.57468   3
  -3   0  -9 81.0485 9.18030   1
  -3   0  -9 88.6689 6.43273   2
  -4   0  -9 5.14220 3.96165   2
  -4   0  -9 0.14307 2.55220   3
   4   0   9 7.55873 2.50118   3
  -4   0  -9 1.81418 3.80334   1
   5   0   9 2783.44 166.393   1
  -5   0  -9 2811.06 163.675   2
   5   0   9 2627.77 163.967   3
  -5   0  -9 2809.72 166.154   1
  -6   0  -9 2.14904 6.23352   1
   6   0   9 0.97292 7.05445   1
  -6   0  -9 2.48053 2.13608   2
   6   0   9 -2.9946 2.33221   3
  -7   0  -9 258.042 16.7669   2
   7   0   9 253.525 17.4731   3
   8   0   9 5.79120 4.11337   3
  -8   0  -9 3.36388 3.40214   2
   9   0   9 6.63100 3.88071   3
  -9   0  -9 8.83298 3.22602   2
  10   0   9 -0.0015 4.30006   3
 -10   0  -9 -3.5810 3.34197   2
 -11  -1   9 29.4178 6.13419   2
 -11  -1   9 14.8333 5.59759   3
 -11   1   9 18.8624 4.25677   3
 -11   1   9 25.3330 5.78223   2
 -10  -1   9 219.436 15.3988   3
 -10  -1   9 223.643 19.1652   2
 -10   1   9 224.457 16.1246   3
 -10   1   9 271.219 17.8528   2
  -9  -1   9 6.69850 3.76890   2
  -9  -1   9 2.20101 2.11960   3
  -9   1   9 2.61423 2.59572   3
  -9   1   9 4.39032 3.52635   2
  -8  -1   9 416.002 27.6390   3
  -8  -1   9 559.539 42.9192   1
  -8  -1   9 463.547 29.3280   2
  -8   1   9 469.725 29.2019   2
  -8   1   9 413.855 28.1594   3
   8   1  -9 519.897 46.2115   1
  -8   1   9 466.311 45.7412   1
  -8   1   9 428.557 28.1645   3
  -7  -1   9 22.1008 4.31988   2
  -7  -1   9 28.1193 13.2728   1
   7  -1  -9 34.6161 15.3929   1
  -7  -1   9 18.2061 3.46161   3
  -7   1   9 22.2136 3.29771   3
  -7   1   9 23.5561 4.06596   2
  -7   1   9 8.63961 12.9560   1
  -7   1   9 26.8659 4.21467   3
   7   1  -9 33.4971 17.3718   1
  -6  -1   9 3.90620 2.54326   2
  -6  -1   9 2.93096 1.15667   3
  -6  -1   9 7.85506 10.5622   1
  -6  -1   9 6.15946 1.65024   3
   6  -1  -9 2.74504 11.0946   1
  -6   1   9 6.77444 2.45084   2
   6   1  -9 11.7059 12.9938   1
  -6   1   9 3.39678 1.66811   3
  -6   1   9 4.50742 1.87511   3
  -6   1   9 1.95254 10.7880   1
   5  -1  -9 32.8847 10.8674   1
  -5  -1   9 43.3739 3.16413   3
  -5  -1   9 46.4843 5.03690   2
  -5  -1   9 29.2534 10.8169   1
   5  -1  -9 32.8102 4.84529   2
  -5  -1   9 46.2047 3.56449   3
   5   1  -9 14.2325 11.6501   1
  -5   1   9 45.8493 4.83181   2
   5   1  -9 41.5711 5.85359   2
  -5   1   9 43.3123 3.99156   3
  -4  -1   9 180.328 10.3583   3
  -4  -1   9 149.673 10.4062   3
   4  -1  -9 158.116 11.1120   2
  -4  -1   9 175.363 11.4232   2
  -4  -1   9 184.727 18.8210   1
   4  -1  -9 184.346 19.2947   1
   4   1  -9 168.802 11.2413   2
  -4   1   9 175.520 10.8716   3
  -4   1   9 179.328 11.3161   2
   4   1  -9 126.783 22.5962   1
  -4   1   9 188.941 18.3427   1
  -3  -1   9 -0.4220 4.93225   1
  -3  -1   9 7.87985 1.24700   3
  -3  -1   9 7.49620 1.75198   2
   3  -1  -9 -3.3658 5.52769   1
  -3   1   9 6.06547 1.31265   3
  -3   1   9 3.68678 4.81241   1
   3   1  -9 5.12598 1.85431   2
   3   1  -9 7.61214 10.8315   1
  -3   1   9 4.05534 1.57042   2
  -2  -1   9 280.792 16.1191   3
  -2  -1   9 266.038 19.7591   1
   2  -1  -9 269.586 16.3820   2
   2  -1  -9 261.085 16.2262   3
   2  -1  -9 270.037 20.2363   1
  -2  -1   9 263.234 16.5401   2
   2   1  -9 270.587 16.4910   2
  -2   1   9 268.210 16.3221   3
  -2   1   9 274.741 20.2373   1
   2   1  -9 271.597 15.9511   3
   2   1  -9 227.587 22.2333   1
  -2   1   9 259.682 16.4328   2
  -1  -1   9 1.80028 1.54023   2
  -1  -1   9 4.12731 3.03821   1
   1  -1  -9 -1.1643 1.01964   3
   1  -1  -9 0.03677 3.93577   1
   1  -1  -9 1.02133 1.37240   2
  -1  -1   9 0.87545 1.06811   3
  -1   1   9 1.57423 1.21300   3
  -1   1   9 0.88608 1.32031   2
   1   1  -9 3.16395 4.83806   1
   1   1  -9 1.18285 0.84661   3
   1   1  -9 1.83188 1.45412   2
   0  -1   9 37.1032 4.17094   3
   0  -1   9 44.7955 5.92048   1
   0  -1  -9 52.5420 7.66517   1
   0  -1   9 42.4817 3.64556   2
   0  -1  -9 45.2810 3.49526   3
   0  -1  -9 41.0839 3.57612   2
   0   1   9 41.4871 3.59919   3
   0   1  -9 48.0241 3.30017   3
   0   1  -9 52.8288 3.80798   2
   0   1   9 43.7216 3.54341   2
  -1  -1  -9 13.3115 4.84640   1
  -1  -1  -9 0.93569 3.42824   1
  -1  -1  -9 4.28045 1.46732   3
   1  -1   9 4.80351 1.69487   3
  -1  -1  -9 8.45199 1.65370   2
   1   1   9 6.58193 1.54264   3
  -1   1  -9 7.59698 1.63077   2
  -1   1  -9 6.09137 2.79668   1
  -1   1  -9 7.02514 1.39459   3
  -1   1  -9 8.21547 3.47403   1
  -2  -1  -9 98.3612 7.06626   3
  -2  -1  -9 105.460 10.0304   1
  -2  -1  -9 99.4731 7.06366   2
  -2  -1  -9 97.3675 10.2982   1
  -2   1  -9 106.222 9.42543   1
   2   1   9 97.9998 7.15003   3
  -2   1  -9 100.373 7.00078   3
  -2   1  -9 101.307 7.03047   2
  -2   1  -9 102.984 8.80531   1
  -3  -1  -9 14.6408 5.17391   1
  -3  -1  -9 14.3303 2.43656   3
  -3  -1  -9 7.51360 4.94950   1
   3  -1   9 14.0994 2.59639   3
  -3   1  -9 16.1832 4.14671   1
   3   1   9 20.3410 3.00041   3
  -3   1  -9 16.2349 2.61897   3
  -3   1  -9 14.4278 3.58761   1
  -3   1  -9 15.4754 2.44096   2
  -4  -1  -9 166.222 14.5364   1
   4  -1   9 160.918 12.0560   3
  -4  -1  -9 195.665 12.5227   2
  -4  -1  -9 183.811 12.7783   3
  -4   1  -9 189.936 14.3699   1
  -4   1  -9 188.359 13.9725   1
   4   1   9 168.565 11.8362   3
  -4   1  -9 171.884 12.3349   3
  -5  -1  -9 12.7763 5.73238   1
   5  -1   9 10.1649 3.14450   3
  -5  -1  -9 9.78430 2.67467   2
   5   1   9 6.57013 2.73845   3
  -5   1  -9 10.4853 4.90910   1
  -5   1  -9 7.47303 2.69841   2
   5   1   9 0.96328 6.07598   1
  -6  -1  -9 58.5810 9.80977   1
  -6  -1  -9 68.8027 6.03947   2
   6  -1   9 64.2644 6.93370   3
   6  -1   9 68.6584 9.91665   1
   6   1   9 71.5042 6.43825   3
  -6   1  -9 79.0020 6.17946   2
  -6   1  -9 67.0328 12.1454   1
  -7  -1  -9 28.9942 3.92043   2
   7  -1   9 26.7218 4.54683   3
  -7   1  -9 23.6917 3.64387   2
   7   1   9 25.8285 4.26817   3
   8  -1   9 395.744 25.8649   3
  -8  -1  -9 386.734 24.9264   2
   8   1   9 368.947 25.3412   3
  -8   1  -9 400.438 24.8655   2
   9  -1   9 8.55243 4.54532   3
  -9  -1  -9 7.06867 3.35361   2
   9   1   9 7.18055 4.21093   3
  -9   1  -9 7.52800 3.36212   2
 -10  -1  -9 143.019 11.3729   2
  10   1   9 127.765 12.3155   3
 -10   1  -9 138.456 11.3654   2
 -11  -2   9 7.32068 5.09225   2
 -11   2   9 7.14284 4.59733   2
 -11   2   9 7.58828 4.07413   3
 -10  -2   9 33.2533 5.88626   2
 -10  -2   9 24.0526 3.36701   3
 -10   2   9 23.8343 4.41650   3
 -10   2   9 24.0517 5.25911   2
  -9  -2   9 62.7242 7.95292   2
  -9  -2   9 43.1201 4.75121   3
  -9   2   9 48.8570 6.22430   3
  -9   2   9 52.1035 7.23468   2
  -8  -2   9 76.0477 8.11089   2
  -8  -2   9 64.6478 17.4761   1
  -8   2   9 78.0133 8.09884   2
   8   2  -9 93.2391 23.8936   1
  -8   2   9 60.5629 6.97386   3
  -7  -2   9 605.694 38.6613   3
  -7  -2   9 658.926 38.7473   3
  -7  -2   9 676.435 40.4458   2
  -7  -2   9 758.508 52.8956   1
  -7   2   9 586.511 53.6750   1
  -7   2   9 679.130 40.1966   2
  -7   2   9 601.721 39.6396   3
  -6  -2   9 60.8639 13.9712   1
   6  -2  -9 38.0013 13.2886   1
  -6  -2   9 61.8279 3.84161   3
  -6  -2   9 63.8050 6.33128   2
  -6  -2   9 60.9262 3.87897   3
   6   2  -9 67.7666 16.9889   1
  -6   2   9 58.7296 5.43884   3
  -6   2   9 60.7459 5.82033   2
  -6   2   9 63.6698 14.5714   1
  -5  -2   9 547.151 42.9236   1
   5  -2  -9 555.091 41.3507   1
  -5  -2   9 579.358 34.9340   2
   5  -2  -9 518.348 34.4630   2
   5   2  -9 640.115 45.9939   1
  -5   2   9 541.793 42.1930   1
  -5   2   9 566.260 34.5140   3
  -5   2   9 608.996 34.7626   2
   4  -2  -9 425.917 31.2905   1
  -4  -2   9 424.161 32.6834   1
   4  -2  -9 393.832 25.4450   2
  -4  -2   9 433.201 25.8464   2
  -4   2   9 441.099 31.6761   1
   4   2  -9 389.301 25.6383   2
   4   2  -9 383.658 34.3067   1
  -4   2   9 425.273 25.5126   3
  -4   2   9 437.366 25.6099   2
   3  -2  -9 189.640 11.6499   2
  -3  -2   9 209.087 18.0580   1
   3  -2  -9 180.025 16.8412   1
  -3  -2   9 177.059 11.8998   2
  -3   2   9 177.434 16.5788   1
  -3   2   9 187.992 11.7129   3
   3   2  -9 136.364 19.9094   1
  -3   2   9 189.750 11.7028   2
   3   2  -9 189.006 11.9013   2
   2  -2  -9 485.083 29.1369   2
  -2  -2   9 494.816 32.6654   1
  -2  -2   9 486.012 29.4092   2
   2  -2  -9 492.988 29.1264   3
   2  -2  -9 513.354 33.0609   1
  -2   2   9 500.619 32.7979   1
  -2   2   9 487.174 29.2045   2
   2   2  -9 487.643 29.3230   2
   2   2  -9 401.340 34.1472   1
  -2   2   9 484.311 29.2695   3
  -1  -2   9 2937.44 181.241   2
   1  -2  -9 3191.04 181.096   3
   1  -2  -9 3158.77 183.952   1
  -1  -2   9 3158.71 183.208   1
   1  -2  -9 3164.71 181.058   2
  -1   2   9 2927.76 181.187   3
   1   2  -9 3015.99 184.687   1
   1   2  -9 3131.13 181.198   2
  -1   2   9 3176.69 184.021   1
   1   2  -9 2965.44 180.773   3
  -1   2   9 2865.01 181.077   2
   0  -2  -9 83.3219 5.71856   3
   0  -2  -9 87.8981 9.22467   1
   0  -2  -9 80.6566 5.57156   2
   0  -2   9 79.3530 5.77741   2
   0  -2   9 82.5888 7.48944   1
   0  -2  -9 84.9422 9.58094   1
   0   2   9 79.1039 5.78269   3
   0   2  -9 82.7843 5.82282   2
   0   2  -9 81.3558 5.33608   3
   0   2  -9 83.7941 9.87187   1
   1  -2   9 1281.78 85.9166   3
  -1  -2  -9 1475.55 88.2499   1
  -1  -2  -9 1412.88 85.6168   3
  -1  -2  -9 1492.04 88.4161   1
  -1  -2  -9 1461.06 85.5432   2
  -1   2  -9 1436.18 85.6402   2
  -1   2  -9 1483.07 87.5421   1
  -1   2  -9 1476.14 86.7938   1
  -1   2  -9 1451.26 85.5063   3
   1   2   9 1447.84 85.7491   3
  -2  -2  -9 750.997 43.6577   2
   2  -2   9 649.961 44.1441   3
  -2  -2  -9 720.004 43.7340   3
  -2  -2  -9 738.137 46.3062   1
  -2  -2  -9 753.662 46.8079   1
  -2   2  -9 736.359 43.7278   3
   2   2   9 715.196 43.8094   3
  -2   2  -9 755.042 45.1825   1
  -2   2  -9 741.736 43.7404   2
  -2   2  -9 722.888 44.5628   1
  -3  -2  -9 112.560 11.0034   1
  -3  -2  -9 118.390 12.7236   1
   3  -2   9 98.6489 8.38548   3
  -3  -2  -9 115.601 7.75032   2
  -3  -2  -9 97.2106 7.85004   3
  -3   2  -9 120.638 9.65315   1
   3   2   9 108.055 7.71637   3
  -3   2  -9 108.832 7.75008   2
  -3   2  -9 106.096 8.10185   3
  -3   2  -9 125.051 9.12398   1
  -4  -2  -9 377.801 22.6735   2
   4  -2   9 320.886 23.2976   3
  -4  -2  -9 361.717 25.8620   1
   4   2   9 401.760 22.9735   3
   4   2   9 333.426 29.1560   1
  -4   2  -9 376.040 24.2047   1
  -4   2  -9 369.056 23.3658   3
  -4   2  -9 368.653 24.1025   1
  -5  -2  -9 1758.39 99.1666   2
  -5  -2  -9 1745.93 102.542   1
   5  -2   9 1541.60 99.7196   3
   5   2   9 1676.31 99.3150   3
  -5   2  -9 1661.16 100.509   1
  -5   2  -9 1710.30 101.145   1
   5   2   9 1529.24 105.396   1
   6  -2   9 18.8871 4.05453   3
  -6  -2  -9 26.3246 4.06125   2
   6   2   9 17.3022 3.22300   3
  -6   2  -9 24.2539 3.96809   2
  -6   2  -9 22.9205 6.89925   1
   7  -2   9 218.747 16.0073   3
  -7  -2  -9 220.756 14.9958   2
  -7   2  -9 237.325 15.0136   2
   7   2   9 212.863 15.3793   3
  -8  -2  -9 119.665 10.6407   2
   8  -2   9 150.223 12.5555   3
  -8   2  -9 131.583 10.5351   2
   8   2   9 127.883 11.3751   3
   9  -2   9 10.9091 4.73697   3
  -9  -2  -9 7.51047 3.67838   2
  -9   2  -9 12.4153 3.33912   2
   9   2   9 9.38328 3.96405   3
 -10  -2  -9 14.1614 4.25904   2
 -10   2  -9 17.1672 4.31894   2
  10   2   9 15.2786 4.95372   3
 -11  -3   9 107.807 11.8741   2
 -11   3   9 69.2602 11.5833   3
 -11   3   9 111.615 11.1142   2
 -10  -3   9 139.116 13.1146   2
 -10   3   9 143.445 12.3288   2
 -10   3   9 119.964 11.6322   3
  -9  -3   9 5.98320 3.88562   2
  -9  -3   9 3.48434 2.10162   3
  -9   3   9 5.73051 3.40375   3
  -9   3   9 3.46636 3.50919   2
  -8  -3   9 146.503 10.2893   3
  -8  -3   9 191.681 13.7108   2
  -8  -3   9 169.274 31.2834   1
  -8  -3   9 151.841 10.3006   3
  -8   3   9 189.440 12.7107   3
   8   3  -9 191.717 30.4197   1
  -8   3   9 201.453 13.1234   2
  -7  -3   9 193.761 27.1106   1
  -7  -3   9 156.453 12.2370   2
  -7   3   9 159.240 11.6563   2
  -7   3   9 160.734 29.2218   1
  -7   3   9 141.138 11.3949   3
   7   3  -9 156.831 25.1285   1
   6  -3  -9 0.56717 2.82805   2
  -6  -3   9 2.26590 11.5366   1
   6  -3  -9 -5.4140 11.3644   1
  -6  -3   9 4.55215 2.83497   2
  -6   3   9 1.86553 10.5844   1
  -6   3   9 1.36529 1.99352   2
  -6   3   9 2.08947 2.12054   3
   6   3  -9 -3.8198 15.1174   1
   5  -3  -9 157.946 12.1150   2
  -5  -3   9 198.276 12.8149   2
  -5  -3   9 181.835 22.5618   1
   5  -3  -9 167.482 21.2739   1
   5   3  -9 249.827 29.6710   1
  -5   3   9 190.088 12.2436   2
  -5   3   9 185.604 12.3585   3
  -5   3   9 191.551 21.0348   1
  -4  -3   9 91.0381 13.7004   1
  -4  -3   9 75.4466 6.32462   2
   4  -3  -9 66.6971 5.65770   2
   4  -3  -9 71.6964 10.9922   1
  -4   3   9 67.1397 10.8477   1
  -4   3   9 65.3192 5.79188   3
  -4   3   9 73.6670 5.54572   2
   4   3  -9 70.0008 14.5237   1
   3  -3  -9 24.6146 2.87735   2
  -3  -3   9 22.0593 3.30079   2
  -3  -3   9 40.4227 8.45781   1
   3  -3  -9 20.6710 6.91778   1
   3   3  -9 24.3296 3.74335   2
  -3   3   9 14.2205 5.83638   1
  -3   3   9 24.1277 3.03703   3
  -3   3   9 25.4226 2.76248   2
   3   3  -9 22.6280 10.7063   1
   2  -3  -9 120.900 13.3915   1
  -2  -3   9 144.087 13.0538   1
  -2  -3   9 129.933 8.78173   2
   2  -3  -9 131.869 8.52941   3
   2  -3  -9 133.181 8.35944   2
  -2   3   9 129.200 8.71301   3
   2   3  -9 113.022 17.4702   1
  -2   3   9 122.070 13.0548   1
   2   3  -9 132.133 8.76143   2
  -2   3   9 126.322 8.36201   2
   1  -3  -9 7.95483 4.97686   1
  -1  -3   9 13.7640 2.14070   2
   1  -3  -9 9.38053 1.92898   3
  -1  -3   9 8.40716 3.45578   1
   1  -3  -9 11.4833 1.64902   2
  -1   3   9 9.81132 1.98068   3
   1   3  -9 9.97963 1.31311   3
   1   3  -9 7.38976 1.93224   2
   1   3  -9 8.96879 6.78221   1
  -1   3   9 10.5495 1.59106   2
   0  -3  -9 6.63724 4.75561   1
   0  -3   9 11.4750 2.86248   1
   0  -3  -9 7.16802 4.62354   1
   0  -3   9 9.41832 1.83154   2
   0  -3  -9 13.9785 2.11137   2
   0   3  -9 11.4878 1.94672   2
   0   3  -9 10.6976 5.92959   1
   0   3   9 13.0420 2.00917   3
   0   3  -9 14.8168 1.82682   3
   1  -3   9 10.3099 2.27593   3
  -1  -3  -9 8.64094 4.54164   1
  -1  -3  -9 9.72896 1.66318   2
  -1  -3  -9 13.5929 5.38164   1
  -1   3  -9 9.84927 1.65558   3
   1   3   9 10.2966 1.96407   3
  -1   3  -9 5.39655 2.41156   1
  -1   3  -9 10.3296 1.96927   2
  -1   3  -9 7.52190 4.75440   1
  -2  -3  -9 85.9166 10.6079   1
  -2  -3  -9 87.2700 6.74631   3
  -2  -3  -9 106.487 12.1852   1
  -2  -3  -9 93.5842 6.47550   2
   2   3   9 86.2286 6.75157   3
  -2   3  -9 81.3190 6.63035   2
  -2   3  -9 88.8716 6.98278   1
  -2   3  -9 94.0284 6.82872   3
  -2   3  -9 102.545 9.40727   1
   3  -3   9 25.5107 3.96034   3
  -3  -3  -9 25.6934 7.15378   1
  -3  -3  -9 27.6841 4.12393   3
  -3  -3  -9 31.4831 3.85617   2
  -3  -3  -9 27.0484 5.97831   1
  -3   3  -9 25.3989 4.10274   2
   3   3   9 29.1448 3.73072   3
  -3   3  -9 36.1964 4.91067   3
  -3   3  -9 32.9236 5.71113   1
  -3   3  -9 35.0444 4.66559   1
  -4  -3  -9 71.7085 10.8029   1
   4  -3   9 85.2604 8.04260   3
  -4  -3  -9 88.0512 6.58285   2
  -4   3  -9 85.0361 7.83744   1
   4   3   9 92.2328 13.9829   1
  -4   3  -9 78.3927 9.64610   1
  -4   3  -9 83.4230 8.34307   3
   4   3   9 88.6048 6.83946   3
  -5  -3  -9 153.713 16.1443   1
   5  -3   9 188.757 13.0560   3
  -5  -3  -9 162.642 11.2448   2
   5   3   9 142.088 19.1454   1
  -5   3  -9 144.335 14.0088   1
   5   3   9 166.223 11.3690   3
  -5   3  -9 158.841 12.2185   1
  -6  -3  -9 54.8297 5.30518   2
   6  -3   9 47.7567 7.33140   3
  -6   3  -9 57.2951 5.12980   2
  -6   3  -9 38.6839 7.14338   1
  -6   3  -9 44.4346 8.32450   1
   6   3   9 46.7000 5.55412   3
  -7  -3  -9 68.9333 6.89911   2
   7  -3   9 82.0508 9.30048   3
  -7   3  -9 66.2473 11.0319   1
   7   3   9 77.0611 7.48466   3
  -7   3  -9 71.6990 6.82564   2
  -8  -3  -9 165.434 12.9372   2
  -8   3  -9 171.801 12.6587   2
   8   3   9 182.075 13.4919   3
  -9  -3  -9 10.6612 3.67771   2
   9   3   9 7.19485 3.81391   3
  -9   3  -9 18.5784 3.89319   2
 -10  -3  -9 73.7652 9.09590   2
 -10   3  -9 94.3379 8.93675   2
  10   3   9 70.1830 9.50141   3
 -11  -4   9 19.1648 6.33820   2
 -11   4   9 3.47567 4.67890   2
 -11   4   9 -1.8827 4.59000   3
 -10  -4   9 102.702 11.9494   2
 -10   4   9 119.187 11.0165   2
 -10   4   9 97.2589 10.8560   3
  -9  -4   9 8.01574 6.67215   2
  -9   4   9 15.6737 4.17181   2
  -9   4   9 18.8247 4.26705   3
  -8  -4   9 105.326 10.3890   2
  -8   4   9 105.281 9.33555   2
  -8   4   9 108.697 9.58517   3
   8   4  -9 48.2060 42.1443   1
  -7  -4   9 302.819 34.0620   1
  -7  -4   9 247.121 16.8871   2
  -7   4   9 215.713 16.2227   3
   7   4  -9 228.877 39.8273   1
  -7   4   9 229.857 15.9214   2
  -6  -4   9 132.880 9.80393   2
  -6  -4   9 163.329 26.1159   1
   6  -4  -9 132.787 23.7531   1
   6  -4  -9 99.0238 9.30002   2
  -6   4   9 127.990 8.93853   2
  -6   4   9 118.181 9.34311   3
   6   4  -9 153.770 24.1707   1
  -6   4   9 108.644 17.4307   1
   5  -4  -9 130.716 20.3458   1
  -5  -4   9 156.146 11.2361   2
   5  -4  -9 130.655 10.4211   2
  -5  -4   9 181.247 24.3786   1
  -5   4   9 160.950 11.0264   3
  -5   4   9 163.365 10.3971   2
   5   4  -9 165.423 27.8940   1
  -5   4   9 167.564 19.9461   1
   4  -4  -9 1064.42 68.4472   1
  -4  -4   9 1071.31 71.3205   1
   4  -4  -9 944.531 63.2941   2
  -4  -4   9 1111.95 63.9120   2
  -4   4   9 1047.00 63.8162   3
  -4   4   9 1085.02 69.0237   1
   4   4  -9 1094.47 73.8117   1
  -4   4   9 1092.38 63.3525   2
  -3  -4   9 88.4989 14.2287   1
   3  -4  -9 56.7452 4.37782   2
   3  -4  -9 65.0901 12.3628   1
  -3  -4   9 56.0755 4.81969   2
  -3   4   9 55.1916 4.23088   2
  -3   4   9 57.0764 9.01678   1
   3   4  -9 46.1540 5.82130   2
  -3   4   9 53.9352 4.94235   3
   3   4  -9 51.5914 13.0208   1
   2  -4  -9 937.488 59.6935   1
  -2  -4   9 1021.53 59.9610   1
   2  -4  -9 948.300 55.6496   2
   2  -4  -9 943.769 55.9327   3
  -2  -4   9 937.265 56.0656   2
  -2   4   9 954.837 56.1546   3
  -2   4   9 923.513 55.6610   2
  -2   4   9 924.546 59.6619   1
   2   4  -9 810.471 61.9556   1
   2   4  -9 940.691 56.0377   2
   1  -4  -9 988.420 61.1856   1
   1  -4  -9 989.960 57.0097   2
  -1  -4   9 940.139 57.3606   2
   1  -4  -9 980.645 57.3511   3
   1  -4  -9 952.502 60.7794   1
  -1  -4   9 986.553 59.3062   1
  -1   4   9 965.420 57.4894   3
   1   4  -9 972.716 57.3567   2
   1   4  -9 803.891 61.5857   1
   1   4  -9 993.621 56.7560   3
   0  -4  -9 126.564 8.45502   3
   0  -4  -9 124.510 13.0758   1
   0  -4   9 124.722 9.46052   1
   0  -4   9 117.239 8.21219   2
   0  -4  -9 108.980 12.7639   1
   0  -4  -9 129.139 7.85763   2
   0   4   9 123.561 8.44079   3
   0   4  -9 117.862 8.29533   2
   0   4  -9 104.098 12.9587   1
   0   4  -9 129.572 7.83347   3
  -1  -4  -9 358.556 23.1370   3
  -1  -4  -9 365.668 26.6794   1
  -1  -4  -9 378.870 22.7973   2
  -1  -4  -9 392.262 27.2197   1
  -1   4  -9 424.834 23.0845   3
   1   4   9 366.871 23.2060   3
  -1   4  -9 381.865 23.1796   1
  -1   4  -9 362.771 23.0795   2
  -1   4  -9 356.692 24.2250   1
  -2  -4  -9 1999.92 120.341   3
  -2  -4  -9 1965.26 125.167   1
  -2  -4  -9 2040.24 119.200   2
  -2  -4  -9 1976.80 122.471   1
   2   4   9 2012.12 119.558   3
  -2   4  -9 1920.17 119.347   2
  -2   4  -9 2156.95 119.642   3
  -3  -4  -9 51.8803 4.97174   2
  -3  -4  -9 44.4209 7.73469   1
  -3  -4  -9 50.5289 9.34295   1
  -3  -4  -9 60.3371 4.85914   2
   3   4   9 55.6385 4.89763   3
  -3   4  -9 60.0513 6.55075   3
  -4  -4  -9 583.389 40.5867   1
  -4  -4  -9 643.891 37.1089   2
   4   4   9 620.779 37.2021   3
   4   4   9 577.766 42.1910   1
  -5  -4  -9 480.103 28.7141   2
  -5  -4  -9 442.389 33.6528   1
   5   4   9 457.228 28.8693   3
  -6  -4  -9 20.5896 3.35788   2
   6   4   9 14.1834 3.02480   3
  -6   4  -9 13.5726 2.75876   2
  -7  -4  -9 54.4718 6.67861   2
  -7   4  -9 61.3301 6.35133   2
   7   4   9 56.8161 6.82189   3
  -8  -4  -9 350.333 24.1075   2
  -8   4  -9 386.553 23.9078   2
  -9  -4  -9 1.21457 3.45315   2
  -9   4  -9 2.07830 3.19999   2
   9   4   9 2.18094 3.82802   3
 -10  -4  -9 40.0912 6.05933   2
  10   4   9 36.3032 6.21886   3
 -10   4  -9 47.0360 6.06675   2
 -10  -5   9 20.1462 6.32342   2
 -10   5   9 20.9649 5.51217   3
 -10   5   9 8.38426 4.63444   2
  -9  -5   9 0.53317 4.00982   2
  -9   5   9 -1.7539 3.79351   3
  -9   5   9 -0.6252 3.29779   2
  -8  -5   9 23.2663 5.17286   2
  -8   5   9 25.3163 4.11512   2
  -8   5   9 25.1998 4.78100   3
   7  -5  -9 101.643 14.1616   2
  -7  -5   9 116.802 10.1531   2
  -7   5   9 112.456 8.88642   2
  -7   5   9 105.920 10.0264   3
   6  -5  -9 4.89921 3.22338   2
  -6  -5   9 3.07548 2.96410   2
   6   5  -9 -3.2968 18.9136   1
  -6   5   9 4.01623 1.98670   2
  -6   5   9 2.98485 2.64539   3
  -5  -5   9 459.628 38.2400   1
  -5  -5   9 423.573 24.9525   2
   5  -5  -9 341.731 32.0889   1
   5  -5  -9 338.734 24.1256   2
  -5   5   9 395.930 23.9745   2
   5   5  -9 362.795 40.5082   1
  -5   5   9 425.510 25.0675   3
  -5   5   9 390.065 32.5194   1
   4  -5  -9 8.17566 9.05037   1
  -4  -5   9 -0.9272 10.7645   1
   4  -5  -9 1.70575 1.92397   2
  -4  -5   9 1.46051 2.52571   2
  -4   5   9 1.76060 1.40962   2
   4   5  -9 3.03261 12.5564   1
  -4   5   9 5.12178 7.64139   1
  -4   5   9 2.57562 2.46311   3
   3  -5  -9 9.98564 7.31164   1
   3  -5  -9 6.21095 1.64213   2
  -3  -5   9 6.35264 2.02476   2
  -3  -5   9 4.59608 7.72816   1
  -3   5   9 11.3957 6.47999   1
  -3   5   9 10.9444 1.49601   2
   3   5  -9 13.3904 9.81114   1
  -3   5   9 7.17142 2.20909   3
  -2  -5   9 19.0330 6.46052   1
   2  -5  -9 -3.0119 6.77668   1
   2  -5  -9 11.3333 4.34858   3
   2  -5  -9 17.6967 7.07936   1
  -2  -5   9 16.6056 2.47373   2
   2   5  -9 13.3247 8.20528   1
  -2   5   9 11.5224 2.48579   3
   2   5  -9 14.5718 3.40919   2
  -1  -5   9 7.31417 1.95819   2
   1  -5  -9 11.8064 3.17363   3
   1  -5  -9 0.26268 1.18428   2
   1  -5  -9 -1.4109 6.06791   1
   1  -5  -9 -0.2978 7.34968   1
  -1  -5   9 -0.2860 3.84432   1
   1   5  -9 4.62080 5.44802   1
   1   5  -9 1.09807 0.75173   3
  -1   5   9 3.11326 2.01522   3
   1   5  -9 2.42173 2.24845   2
   0  -5  -9 2.55706 6.34692   1
   0  -5   9 2.98024 2.47331   1
   0  -5   9 4.42339 1.68022   2
   0  -5  -9 5.16593 6.24292   1
   0  -5  -9 6.96490 1.33157   2
   0   5  -9 4.07795 3.25181   1
   0   5  -9 6.22264 2.09409   2
   0   5  -9 4.26140 2.35581   3
   0   5   9 6.62882 2.00385   3
  -1  -5  -9 1.54924 6.93911   1
  -1  -5  -9 9.98455 6.02105   1
   1   5   9 5.60597 2.06030   3
  -1   5  -9 1.95085 1.98500   2
  -1   5  -9 12.6883 2.39295   3
  -2  -5  -9 35.7161 4.01717   2
  -2  -5  -9 32.4295 3.73967   2
  -2  -5  -9 42.4854 10.9606   1
  -2  -5  -9 24.1395 7.06054   1
   2   5   9 31.2738 4.42000   3
  -2   5  -9 34.9211 5.23651   2
  -2   5  -9 35.5724 5.63492   3
  -3  -5  -9 84.4305 6.53231   2
  -3  -5  -9 85.7130 12.4346   1
  -3  -5  -9 81.1479 6.46667   2
  -3  -5  -9 71.5116 10.4161   1
   3   5   9 89.6964 6.77862   3
  -3   5  -9 87.5269 8.86296   3
  -4  -5  -9 8.55761 2.39573   2
  -4  -5  -9 4.44622 7.20450   1
   4   5   9 10.5052 2.69542   3
  -5  -5  -9 202.366 13.8181   2
   5   5   9 202.634 13.9810   3
  -6  -5  -9 4.99807 2.96569   2
  -6   5  -9 3.75632 2.38683   2
   6   5   9 4.34473 2.74784   3
  -7  -5  -9 114.554 9.64634   2
   7   5   9 108.846 9.60626   3
  -7   5  -9 119.725 9.13953   2
  -8  -5  -9 45.7539 8.23321   2
   8   5   9 30.7517 5.56579   3
  -9  -5  -9 22.6760 4.82969   2
   9   5   9 30.4964 5.19048   3
  -9   5  -9 39.5288 6.14580   2
 -10  -6   9 101.259 12.3743   2
 -10   6   9 107.825 11.8870   3
 -10   6   9 91.6543 10.7497   2
  -9  -6   9 4.55754 4.85928   2
  -9   6   9 0.65765 5.14546   3
  -9   6   9 5.24845 3.74524   2
  -8   6   9 91.0613 8.50197   2
  -8   6   9 104.994 10.8222   3
  -7  -6   9 41.9411 5.93870   2
  -7   6   9 34.6786 5.05730   2
  -7   6   9 33.7278 5.74305   3
   6  -6  -9 178.813 13.2762   2
  -6  -6   9 151.995 11.5631   2
  -6   6   9 143.986 11.9461   3
  -6   6   9 146.090 10.1752   2
  -5  -6   9 1.86801 2.99078   2
   5  -6  -9 2.50227 2.74125   2
  -5   6   9 1.32433 1.49150   2
  -5   6   9 4.36282 3.19938   3
  -4  -6   9 884.722 51.6834   2
   4  -6  -9 840.060 59.5249   1
  -4   6   9 846.555 57.5609   1
  -4   6   9 878.532 51.9925   3
   4   6  -9 791.470 61.3299   1
  -3  -6   9 0.06083 2.06380   2
   3  -6  -9 1.72644 1.54131   2
   3  -6  -9 -1.9352 7.87809   1
  -3  -6   9 8.54489 10.6009   1
   3  -6  -9 -7.6061 8.64644   1
  -3   6   9 1.65950 2.33364   3
   3   6  -9 8.22446 9.39818   1
  -2  -6   9 937.225 55.2814   2
   2  -6  -9 902.453 54.6488   2
   2  -6  -9 923.868 60.3670   1
  -2  -6   9 932.073 59.9776   1
   2  -6  -9 893.722 59.9137   1
   2   6  -9 948.534 59.3146   1
  -2   6   9 904.420 55.5395   3
   1  -6  -9 41.0894 3.19030   2
   1  -6  -9 27.7388 8.63329   1
  -1  -6   9 38.4915 4.40843   2
   1  -6  -9 23.8895 8.96208   1
  -1  -6   9 51.4494 8.94835   1
   1   6  -9 31.8417 5.90895   1
  -1   6   9 36.7563 5.03464   3
   1   6  -9 37.6968 2.96021   3
   1   6  -9 39.3078 3.42027   3
   0  -6  -9 213.185 13.2595   2
   0  -6   9 200.678 13.5281   1
   0  -6  -9 181.836 19.0641   1
   0  -6   9 190.835 12.9630   2
   0  -6  -9 226.515 19.8433   1
   0   6  -9 203.132 12.5461   3
   0   6   9 196.783 13.4206   3
   0   6  -9 216.676 13.0545   3
   0   6  -9 197.885 13.4891   1
  -1  -6  -9 -1.2085 7.60802   1
  -1  -6  -9 -0.1018 1.35746   2
  -1  -6  -9 -7.4368 6.75214   1
  -1  -6  -9 -2.0684 1.81167   2
   1   6   9 0.15207 2.14816   3
  -1   6  -9 4.27046 2.84015   3
  -2  -6  -9 1450.06 101.260   1
  -2  -6  -9 1469.46 97.4523   1
  -2  -6  -9 1587.79 93.0599   2
  -2  -6  -9 1669.99 93.4824   2
  -2   6  -9 1642.63 94.1132   3
   2   6   9 1567.70 93.6892   3
  -3  -6  -9 2.00461 2.22515   2
  -3  -6  -9 -0.1513 2.11958   2
  -3  -6  -9 -1.6647 9.92158   1
  -3  -6  -9 1.47072 7.80007   1
   3   6   9 3.11716 2.30459   3
  -3   6  -9 9.56069 8.95862   3
  -4  -6  -9 635.037 37.5363   2
  -4  -6  -9 598.019 37.1908   2
  -4  -6  -9 570.889 42.6308   1
   4   6   9 613.494 37.2747   3
  -5  -6  -9 25.7969 4.14823   2
   5   6   9 17.2183 3.97144   3
  -6  -6  -9 31.4941 4.75846   2
   6   6   9 31.8259 4.52225   3
  -6   6  -9 42.4415 5.02574   2
  -7  -6  -9 0.19536 3.66021   2
  -7   6  -9 1.87892 3.04607   2
   7   6   9 4.46330 5.50742   3
  -8  -6  -9 271.671 22.6886   2
  -8   6  -9 317.105 20.7298   2
   8   6   9 325.363 21.0711   3
  -9  -6  -9 -1.3599 4.48829   2
  -9   6  -9 -1.7958 3.57905   2
   9   6   9 0.68385 4.16644   3
  -9  -7   9 -0.8759 4.65251   2
  -9   7   9 5.06109 5.22752   3
  -9   7   9 5.65585 5.74436   2
  -8  -7   9 8.66788 4.57972   2
  -8   7   9 12.7651 5.12284   3
  -8   7   9 4.82591 2.96283   2
  -7  -7   9 101.754 9.76698   2
  -7   7   9 87.0708 7.04860   2
  -7   7   9 88.7066 10.1768   3
  -6  -7   9 11.6486 3.71222   2
  -6   7   9 13.5098 2.17226   2
  -6   7   9 12.6906 4.50262   3
  -5  -7   9 191.641 13.6382   2
   5  -7  -9 193.758 12.5840   2
  -5   7   9 196.143 14.3858   3
   4  -7  -9 13.6213 2.06633   2
   4  -7  -9 29.5134 16.5966   1
  -4  -7   9 11.7644 3.07019   2
  -4   7   9 20.6023 3.91513   3
  -3  -7   9 14.6177 2.63554   2
   3  -7  -9 18.7265 11.0816   1
  -3   7   9 16.1680 3.35061   3
  -2  -7   9 7.58790 2.27918   2
   2  -7  -9 9.95478 9.46083   1
   2  -7  -9 10.0323 13.8757   1
   2   7  -9 12.5176 11.9351   1
  -2   7   9 8.91478 2.86474   3
   2   7  -9 9.54892 1.18136   3
   1  -7  -9 3.42846 1.07688   2
   1  -7  -9 3.41694 1.30224   2
  -1  -7   9 1.81367 2.18422   2
   1  -7  -9 1.97427 9.22356   1
   1  -7  -9 1.58602 8.25198   1
   1   7  -9 0.75704 4.52625   1
   1   7  -9 6.30860 2.87930   3
  -1   7   9 0.72492 2.55980   3
   0  -7  -9 5.03062 1.72763   2
   0  -7  -9 12.1862 8.18871   1
   0  -7  -9 6.92384 1.18686   2
   0  -7   9 5.85315 1.95856   2
   0  -7   9 2.20621 2.39571   1
   0  -7  -9 7.44514 8.84054   1
   0   7  -9 4.62222 2.01187   1
   0   7   9 6.35186 2.43116   3
   0   7  -9 6.96267 1.45874   3
   0   7  -9 8.08003 2.67605   3
  -1  -7  -9 0.84872 10.4314   1
  -1  -7  -9 8.91366 2.00550   2
  -1  -7  -9 26.4333 8.56595   1
  -1  -7  -9 7.49104 2.36955   2
  -1   7  -9 5.97043 1.75565   3
   1   7   9 10.1737 2.77897   3
  -2  -7  -9 0.16829 1.70466   2
  -2  -7  -9 5.91180 2.40675   2
  -2  -7  -9 1.40354 8.47066   1
  -2  -7  -9 3.22350 13.0286   1
   2   7   9 0.52734 2.62651   3
  -2   7  -9 -0.6063 4.57274   3
  -3  -7  -9 50.4855 5.56323   2
  -3  -7  -9 50.5242 14.3956   1
  -3  -7  -9 31.9278 10.6619   1
  -3  -7  -9 51.5031 5.09524   2
   3   7   9 54.5139 5.45238   3
  -4  -7  -9 -1.7576 4.27999   2
  -4  -7  -9 7.54666 3.13222   2
   4   7   9 4.80488 2.90059   3
  -5  -7  -9 169.087 13.7029   2
  -5   7  -9 206.161 13.2064   2
   5   7   9 194.428 13.5183   3
  -6  -7  -9 -0.1265 3.38535   2
  -6   7  -9 3.17546 2.80798   2
  -7  -7  -9 57.5460 8.33493   2
  -7   7  -9 62.3331 6.95006   2
   7   7   9 57.2788 7.28195   3
  -8  -7  -9 0.57793 4.94448   2
   8   7   9 -0.3569 4.09878   3
  -8   7  -9 1.48396 3.67116   2
  -8  -8   9 58.1440 9.31884   2
  -8   8   9 45.2442 7.59814   3
  -7  -8   9 31.4500 6.25529   2
  -7   8   9 43.2974 7.08363   3
  -6  -8   9 70.1226 7.83761   2
  -6   8   9 56.7522 10.3294   3
  -5  -8   9 12.7733 3.51098   2
  -5   8   9 16.1189 4.70221   3
  -4  -8   9 513.837 31.5335   2
  -4   8   9 499.124 32.3764   3
  -3  -8   9 1.42826 2.23034   2
  -3   8   9 3.52967 2.99779   3
  -2  -8   9 335.873 21.4298   2
  -2   8   9 340.987 22.1248   3
   2   8  -9 360.874 20.7122   3
   2   8  -9 328.671 20.4299   3
  -1  -8   9 156.090 10.7784   2
   1  -8  -9 141.288 23.1466   1
   1   8  -9 159.469 9.90526   3
   1   8  -9 161.368 10.9418   3
  -1   8   9 151.269 11.4784   3
   0  -8  -9 72.9869 13.2407   1
   0   8  -9 90.1898 8.29963   3
   0   8   9 82.9015 7.18690   3
   0   8  -9 84.0259 5.95568   3
  -1  -8  -9 55.9317 12.5574   1
  -1  -8  -9 69.4499 5.02764   2
  -1   8  -9 80.5445 9.54759   3
   1   8   9 88.7708 7.43491   3
  -1   8  -9 78.5913 5.96354   3
  -2  -8  -9 634.572 49.0022   1
  -2  -8  -9 752.993 42.5413   2
  -2   8  -9 704.552 42.7729   3
   2   8   9 711.648 43.2521   3
  -3  -8  -9 -7.0728 12.5731   1
  -3  -8  -9 -0.2979 2.71324   2
  -3   8  -9 1.20984 2.66511   3
   3   8   9 3.66857 2.95406   3
  -4  -8  -9 242.423 18.0277   2
   4   8   9 301.695 18.2650   3
  -5  -8  -9 68.6132 8.77626   2
  -5   8  -9 89.6241 7.69206   2
  -6  -8  -9 29.6304 5.15592   2
  -6   8  -9 24.4443 3.89267   2
   6   8   9 16.0244 4.19520   3
  -7  -8  -9 36.2558 6.39847   2
   7   8   9 26.5248 5.00609   3
   8   8   9 131.017 11.9956   3
  -8  -9   9 44.0145 7.21841   2
  -8   9   9 41.0333 7.75716   3
  -7  -9   9 5.57906 4.46264   2
  -7   9   9 7.28959 5.63361   3
  -6   9   9 5.87755 4.84459   3
  -5  -9   9 81.1335 8.29533   2
  -5   9   9 88.3186 9.87652   3
  -4  -9   9 7.13177 2.88547   2
  -3  -9   9 0.04472 2.33802   2
  -3   9   9 2.27084 3.22723   3
  -2  -9   9 54.8426 5.80284   2
  -2   9   9 67.3927 7.46664   3
  -1  -9   9 17.8647 2.91653   2
  -1   9   9 17.2625 4.07684   3
   1   9  -9 14.0373 1.98712   3
   0   9   9 20.4604 3.77820   3
   0   9  -9 16.2366 2.23800   3
   1   9   9 16.1244 3.77707   3
  -1   9  -9 11.3827 2.40048   3
  -2  -9  -9 9.56973 2.49349   2
   2   9   9 11.6187 3.71160   3
  -2   9  -9 14.4160 2.91419   3
  -3  -9  -9 14.5106 3.05297   2
  -3   9  -9 22.7453 3.67994   3
  -4  -9  -9 1.31498 3.29103   2
  -4   9  -9 2.79075 3.59877   3
   4   9   9 -0.8691 3.32072   3
  -5  -9  -9 71.4910 8.98901   2
  -5   9  -9 84.5923 7.68965   2
  -5   9  -9 88.8212 11.1223   3
   5   9   9 69.0610 8.42139   3
  -6  -9  -9 13.5465 5.22324   2
  -6   9  -9 16.5523 3.82557   2
   6   9   9 11.2483 4.21943   3
  -7  -9  -9 18.3440 7.77930   2
   7   9   9 18.3762 5.11510   3
  -7   9  -9 15.6964 4.34910   2
  -6 -10   9 7.45040 4.39298   2
  -6  10   9 12.9665 5.90182   3
  -5 -10   9 61.9222 8.79349   2
  -5  10   9 45.0729 7.18350   3
  -4 -10   9 124.861 10.1298   2
  -4  10   9 125.406 11.7292   3
  -3 -10   9 35.1831 5.27365   2
  -3  10   9 29.0927 5.19613   3
  -2 -10   9 67.8827 6.39442   2
   2  10  -9 66.5996 5.32606   3
  -2  10   9 64.1875 8.32196   3
  -1  10   9 241.856 16.9079   3
   1  10  -9 238.791 15.0181   3
   0  10  -9 35.4053 4.27233   3
   0  10   9 37.7657 5.92196   3
  -1  10  -9 137.250 10.2371   3
   1  10   9 160.808 11.6095   3
   2  10   9 135.144 11.3145   3
  -2  10  -9 148.569 10.6276   3
  -3  10  -9 3.02595 3.21636   3
   3  10   9 4.65856 3.59009   3
   4  10   9 54.3308 8.18575   3
  -4  10  -9 56.6286 8.91736   3
  -4  10  -9 71.7875 7.13558   2
  -5  10  -9 166.198 12.1849   2
   5  10   9 155.657 13.2345   3
  -5  10  -9 161.866 14.1987   3
  -5 -11   9 4.88970 4.25822   2
  -5  11   9 0.22745 5.49677   3
  -4 -11   9 9.22639 4.64792   2
  -4  11   9 5.04595 5.19408   3
  -3 -11   9 3.38883 3.01931   2
  -3  11   9 -2.5012 4.25169   3
  -2 -11   9 39.4399 5.52259   2
  -2  11   9 35.7096 5.86390   3
  -1  11   9 1.90342 3.79453   3
   0  11  -9 28.6680 4.51207   3
   0  11   9 32.9788 5.06640   3
   1  11   9 -1.9868 3.69878   3
  -1  11  -9 -0.1339 2.73841   3
  -2  11  -9 22.4547 4.05139   3
   2  11   9 20.3528 4.81304   3
  -3  11  -9 0.31632 6.17169   3
   3  11   9 3.32026 4.16079   3
  -4  11  -9 -2.0023 4.34147   3
   4  11   9 -1.4571 4.14218   3
 -11   0  10 -6.0816 4.84334   2
 -10   0  10 63.1027 9.50448   2
 -10   0  10 65.8961 6.93379   3
  -9   0  10 -0.0554 2.20867   3
  -9   0  10 3.57920 3.76926   2
  -8   0  10 62.8106 19.0001   1
  -8   0  10 66.7491 8.00626   2
  -8   0  10 58.7800 5.60338   3
  -7   0  10 -0.1602 2.20392   3
  -7   0  10 5.78805 13.9786   1
   7   0 -10 8.91804 16.3241   1
  -7   0  10 -0.0156 1.73358   3
  -7   0  10 2.63140 3.32534   2
  -6   0  10 66.0388 5.70479   3
  -6   0  10 51.7879 14.6199   1
  -6   0  10 76.4134 6.85076   2
  -6   0  10 91.0110 5.68759   3
  -5   0  10 5.79666 2.72895   2
  -5   0  10 -0.6422 8.96797   1
  -5   0  10 7.83520 2.44890   3
  -5   0  10 3.52812 1.44797   3
   5   0 -10 27.6651 11.2241   1
  -4   0  10 1582.45 98.2268   1
  -4   0  10 1575.95 92.0537   3
   4   0 -10 1468.44 98.0038   1
  -4   0  10 1596.33 92.6382   2
   4   0 -10 1535.73 92.4379   2
  -3   0  10 -1.5248 4.98341   1
   3   0 -10 -2.7485 6.62423   1
  -3   0  10 1.64167 1.00781   3
  -3   0  10 1.17809 1.41950   2
   3   0 -10 2.85234 1.79010   2
   2   0 -10 983.084 58.5097   3
  -2   0  10 980.398 62.1754   1
   2   0 -10 963.413 58.8252   2
  -2   0  10 937.967 58.6910   3
   2   0 -10 962.735 63.0445   1
  -2   0  10 1088.14 59.0296   2
   1   0 -10 4.77128 1.43413   3
   1   0 -10 -1.7792 4.53778   1
  -1   0  10 0.72147 1.36764   3
  -1   0  10 3.23828 3.67157   1
   0   0  10 2.99121 1.38078   2
   0   0 -10 1.91823 1.15744   3
   0   0  10 1.19596 1.27930   3
   0   0 -10 -1.5409 4.08037   1
   0   0 -10 2.89486 1.47520   2
  -1   0 -10 11.0510 4.30411   1
  -1   0 -10 7.42145 1.83886   2
  -1   0 -10 1.99530 3.87775   1
   1   0  10 7.81272 1.96808   3
  -1   0 -10 8.05221 1.69403   3
  -2   0 -10 4077.04 240.671   1
  -2   0 -10 3974.53 238.690   3
  -2   0 -10 4029.41 240.903   1
  -2   0 -10 4203.45 238.768   2
   2   0  10 3896.27 238.927   3
   3   0  10 -1.2234 1.66980   3
  -3   0 -10 0.04789 2.05220   3
  -3   0 -10 -2.0320 3.54427   1
  -3   0 -10 -3.5471 2.38810   2
  -3   0 -10 -1.3207 4.19598   1
  -4   0 -10 1178.39 71.8481   1
  -4   0 -10 1172.42 71.2638   1
   4   0  10 1111.24 69.3645   3
  -5   0 -10 3.06205 5.51717   1
  -5   0 -10 2.20374 2.54561   2
   5   0  10 2.88415 2.98843   3
  -6   0 -10 3.65792 2.23795   2
   6   0  10 4.61798 2.73802   3
  -7   0 -10 -1.8218 2.72203   2
   7   0  10 -0.0173 3.43813   3
   8   0  10 835.193 53.6407   3
  -8   0 -10 891.580 52.9315   2
  -9   0 -10 1.07169 3.21167   2
   9   0  10 -4.0616 3.69911   3
 -10   0 -10 157.406 13.1384   2
  10   0  10 179.082 14.2294   3
 -11  -1  10 273.330 20.4554   2
 -11   1  10 283.445 20.5162   2
 -11   1  10 259.014 18.4957   3
 -10  -1  10 36.9232 5.28161   3
 -10  -1  10 35.6797 6.38564   2
 -10   1  10 40.4860 8.69007   2
 -10   1  10 25.7782 4.31946   3
  -9  -1  10 3.12023 2.08142   3
  -9  -1  10 -3.4507 3.55278   2
  -9   1  10 3.31614 2.63743   3
  -9   1  10 -2.1836 3.62905   2
  -8  -1  10 33.6416 4.15325   3
  -8  -1  10 52.1016 7.48182   2
  -8  -1  10 39.9624 17.2219   1
  -8  -1  10 35.8388 5.65133   3
  -8   1  10 43.8003 5.21425   3
  -8   1  10 32.1547 5.35963   3
   8   1 -10 36.4220 21.8086   1
  -8   1  10 36.1378 5.38610   2
  -7  -1  10 495.076 29.3286   2
  -7  -1  10 401.068 27.8404   3
   7  -1 -10 428.101 42.4654   1
  -7  -1  10 552.578 42.6236   1
  -7   1  10 503.609 29.2021   2
  -7   1  10 425.518 42.2475   1
  -7   1  10 434.885 28.0945   3
  -7   1  10 418.271 28.0314   3
   7   1 -10 509.869 44.3937   1
  -6  -1  10 10.2445 11.2329   1
  -6  -1  10 1.30525 2.44859   2
  -6  -1  10 5.38247 1.15978   3
  -6  -1  10 6.14790 1.57116   3
   6  -1 -10 4.51580 12.7557   1
  -6   1  10 2.98400 2.47931   2
   6   1 -10 -1.9610 14.5686   1
  -6   1  10 5.33844 1.87321   3
  -6   1  10 -12.470 10.9240   1
  -5  -1  10 889.334 53.6142   3
  -5  -1  10 913.002 62.9272   1
   5  -1 -10 805.307 54.3735   2
  -5  -1  10 1027.58 53.7616   3
  -5  -1  10 907.083 54.7440   2
  -5   1  10 893.329 61.8229   1
  -5   1  10 877.149 54.0812   3
  -5   1  10 917.696 54.6109   2
   4  -1 -10 42.1092 12.3248   1
  -4  -1  10 78.8263 6.36170   2
   4  -1 -10 70.5496 5.96163   2
  -4  -1  10 79.2328 4.71256   3
  -4  -1  10 71.2562 11.6452   1
  -4  -1  10 62.5336 4.71806   3
  -4   1  10 75.9683 6.06772   2
  -4   1  10 79.4882 13.7142   1
  -4   1  10 81.1930 5.47361   3
   4   1 -10 60.8521 6.07357   2
  -3  -1  10 16.8104 6.25780   1
   3  -1 -10 11.3777 7.00459   1
   3  -1 -10 9.14006 1.99176   2
  -3  -1  10 13.4134 1.62502   3
  -3  -1  10 14.1418 2.24976   2
  -3   1  10 9.00461 1.85712   2
  -3   1  10 6.26652 5.70664   1
   3   1 -10 7.51829 7.78168   1
  -3   1  10 16.3740 2.32557   3
   3   1 -10 11.9567 2.31553   2
   2  -1 -10 19.4681 3.02189   2
  -2  -1  10 19.2073 2.33488   3
  -2  -1  10 24.0298 3.17898   2
  -2  -1  10 21.5562 5.46821   1
   2  -1 -10 13.3319 6.49097   1
   2   1 -10 14.5671 2.38276   2
   2   1 -10 25.0534 1.95813   3
  -2   1  10 21.2360 2.93124   2
   2   1 -10 11.2032 7.14744   1
  -2   1  10 21.8558 2.75109   3
  -2   1  10 15.3353 5.20314   1
   1  -1 -10 331.785 20.6415   3
  -1  -1  10 326.376 20.9193   2
  -1  -1  10 358.675 20.8122   3
   1  -1 -10 341.476 20.8032   2
  -1  -1  10 327.070 23.2843   1
  -1   1  10 335.124 23.9053   1
  -1   1  10 349.343 20.8444   3
   1   1 -10 349.054 24.9253   1
   1   1 -10 344.794 20.8972   2
   1   1 -10 351.878 20.4792   3
  -1   1  10 333.634 20.8602   2
   0  -1 -10 60.6722 8.70339   1
   0  -1 -10 35.1807 6.23567   1
   0  -1  10 33.8347 6.19716   1
   0  -1  10 47.1851 4.11274   3
   0  -1  10 48.0762 3.98399   2
   0  -1 -10 50.8925 3.80555   3
   0  -1 -10 41.8479 3.85557   2
   0   1  10 46.5562 3.89935   3
   0   1 -10 45.9452 3.46175   3
   0   1 -10 31.4492 5.81552   1
   0   1 -10 49.3354 4.02108   2
  -1  -1 -10 389.152 23.7150   3
  -1  -1 -10 392.278 23.7374   2
  -1  -1 -10 399.941 26.8411   1
   1  -1  10 395.497 24.0342   3
  -1  -1 -10 379.013 26.7098   1
  -1   1 -10 371.191 23.7552   2
  -1   1 -10 386.095 26.2723   1
  -1   1 -10 380.312 23.5980   3
  -1   1 -10 408.873 25.8812   1
   1   1  10 397.399 23.9020   3
  -2  -1 -10 63.6278 5.16820   3
   2  -1  10 56.9138 5.43043   3
  -2  -1 -10 48.6608 8.37678   1
  -2  -1 -10 58.4222 5.19014   2
  -2  -1 -10 53.6160 9.16536   1
  -2   1 -10 58.8857 8.23215   1
   2   1  10 59.2259 5.09899   3
  -2   1 -10 52.1705 7.15709   1
  -2   1 -10 60.8991 4.87982   3
  -2   1 -10 57.3569 5.19315   2
  -3  -1 -10 1.51360 4.81320   1
  -3  -1 -10 1.10676 2.13846   2
  -3  -1 -10 7.13666 4.54882   1
   3  -1  10 6.04696 2.23928   3
  -3  -1 -10 2.97769 2.24556   3
   3   1  10 2.99553 1.96557   3
  -3   1 -10 0.94254 3.24383   1
  -3   1 -10 -2.4537 3.70589   1
  -3   1 -10 1.33351 2.07799   3
  -4  -1 -10 16.4837 5.43228   1
   4  -1  10 19.7225 3.32287   3
  -4  -1 -10 16.8972 6.74063   1
   4   1  10 20.4628 3.18405   3
  -4   1 -10 15.6096 4.81841   1
  -4   1 -10 12.2993 4.50345   1
   5  -1  10 57.6489 6.92502   3
  -5  -1 -10 69.7613 11.7656   1
  -5  -1 -10 67.5990 6.27399   2
  -5   1 -10 58.6934 10.6637   1
  -5   1 -10 68.2885 10.9248   1
   5   1  10 77.5689 6.81114   3
   6  -1  10 17.4233 3.66762   3
  -6  -1 -10 14.4534 2.83492   2
  -6   1 -10 15.1795 2.92985   2
  -6   1 -10 22.2099 7.46042   1
   6   1  10 13.9673 3.16057   3
  -7  -1 -10 14.3044 3.50431   2
   7  -1  10 17.1131 4.38720   3
  -7   1 -10 19.6173 3.47924   2
   7   1  10 28.5193 4.41280   3
  -8  -1 -10 0.14443 3.58153   2
   8  -1  10 6.35621 4.68362   3
  -8   1 -10 -2.3641 3.55678   2
   8   1  10 -2.6803 3.80345   3
  -9  -1 -10 0.96384 3.24608   2
   9  -1  10 -4.1134 4.11327   3
  -9   1 -10 -1.0517 3.13180   2
   9   1  10 -4.8544 3.67858   3
  10  -1  10 -0.4417 5.38989   3
 -10  -1 -10 2.86398 3.89389   2
  10   1  10 2.83911 4.83668   3
 -10   1 -10 4.88417 4.27431   2
 -11  -2  10 1.01099 5.19302   2
 -11   2  10 -8.9424 3.83201   3
 -11   2  10 4.85220 5.02782   2
 -10  -2  10 71.4951 9.55282   2
 -10   2  10 57.4520 7.80085   3
  -9  -2  10 26.2778 5.27984   2
  -9   2  10 22.3570 4.47365   2
  -9   2  10 15.8151 3.51254   3
  -8  -2  10 49.9635 4.19773   3
  -8  -2  10 62.2436 7.85413   2
  -8  -2  10 45.9259 3.80511   3
  -8  -2  10 84.3036 19.4672   1
  -8   2  10 47.4374 6.03362   3
  -8   2  10 47.8490 7.11033   2
   8   2 -10 28.5936 21.7806   1
  -7  -2  10 42.5939 15.8172   1
  -7  -2  10 71.9378 7.88468   2
  -7   2  10 65.3036 7.24366   2
  -7   2  10 61.7997 6.26816   3
   7   2 -10 55.4325 19.8503   1
  -7   2  10 60.2102 17.3527   1
  -6  -2  10 62.9094 15.1669   1
  -6  -2  10 73.0461 6.96470   2
   6  -2 -10 76.4716 15.9677   1
  -6   2  10 74.3163 6.05154   3
  -6   2  10 65.4471 15.0393   1
  -6   2  10 73.6811 6.60575   2
   6   2 -10 67.3451 17.8701   1
   5  -2 -10 106.668 18.7411   1
  -5  -2  10 99.9941 16.3824   1
  -5  -2  10 104.796 8.49927   2
   5  -2 -10 94.3037 8.00501   2
   5   2 -10 156.371 23.9366   1
  -5   2  10 112.105 8.07806   2
  -5   2  10 101.362 7.61837   3
  -5   2  10 95.0505 17.7545   1
  -4  -2  10 1014.03 63.9132   1
   4  -2 -10 897.928 56.5322   2
   4  -2 -10 945.816 61.9558   1
  -4  -2  10 979.834 56.9743   2
  -4   2  10 977.506 56.7159   2
  -4   2  10 962.845 63.1463   1
  -4   2  10 947.337 56.5921   3
   4   2 -10 828.600 64.4029   1
   3  -2 -10 21.7046 7.43097   1
  -3  -2  10 38.2457 3.87618   2
  -3  -2  10 36.8067 8.13175   1
   3  -2 -10 34.2569 3.57280   2
  -3   2  10 33.5902 3.38854   3
   3   2 -10 35.1571 11.0663   1
  -3   2  10 30.7082 7.49455   1
   3   2 -10 26.5709 4.08904   2
  -3   2  10 39.8427 3.51768   2
  -2  -2  10 901.701 56.0323   1
   2  -2 -10 893.292 56.5190   1
   2  -2 -10 916.953 52.5177   3
   2  -2 -10 893.315 52.5581   2
  -2  -2  10 889.060 52.8365   2
  -2   2  10 902.163 56.4067   1
  -2   2  10 900.072 52.6967   3
   2   2 -10 744.731 57.5582   1
   2   2 -10 904.752 52.0578   3
  -2   2  10 871.085 52.6276   2
   2   2 -10 854.246 52.7053   2
   1  -2 -10 459.111 28.4467   2
  -1  -2  10 506.120 28.7870   2
   1  -2 -10 473.538 32.3472   1
   1  -2 -10 484.411 28.4859   3
  -1  -2  10 461.969 30.9042   1
  -1   2  10 475.292 28.6533   3
   1   2 -10 426.309 32.9132   1
  -1   2  10 445.014 28.4996   2
   1   2 -10 479.194 28.1173   3
  -1   2  10 456.962 31.7145   1
   1   2 -10 511.374 28.6960   2
   0  -2  10 16.7581 3.72208   1
   0  -2 -10 22.1460 2.83546   3
   0  -2  10 20.4392 2.86423   2
   0  -2 -10 17.0302 2.67526   2
   0  -2 -10 20.9401 5.25804   1
   0   2  10 27.0908 2.93899   3
   0   2 -10 18.9458 2.53927   3
   0   2 -10 19.8472 3.04741   2
   0   2 -10 22.6780 5.96142   1
  -1  -2 -10 487.758 30.9708   1
  -1  -2 -10 450.019 27.4697   2
  -1  -2 -10 457.772 27.5416   3
  -1  -2 -10 467.306 30.9545   1
   1  -2  10 395.445 27.9051   3
  -1   2 -10 461.780 27.3758   3
  -1   2 -10 459.155 30.2164   1
  -1   2 -10 464.660 29.1559   1
  -1   2 -10 448.724 27.6215   2
   1   2  10 453.640 27.6736   3
   2  -2  10 2307.66 157.539   3
  -2  -2 -10 2835.41 160.466   1
  -2  -2 -10 2702.19 159.942   1
  -2  -2 -10 2787.46 157.125   2
  -2  -2 -10 2622.54 157.168   3
  -2   2 -10 2652.33 158.192   1
   2   2  10 2653.98 157.306   3
  -2   2 -10 2664.93 157.120   3
  -2   2 -10 2632.80 157.182   2
  -2   2 -10 2665.22 158.831   1
  -3  -2 -10 11.4482 5.00030   1
  -3  -2 -10 8.81944 6.12888   1
  -3  -2 -10 3.75315 2.34490   2
   3  -2  10 4.66686 2.57446   3
  -3  -2 -10 3.70119 2.99955   3
   3   2  10 4.90994 2.01982   3
  -3   2 -10 5.77271 2.39597   3
  -3   2 -10 4.79026 3.92511   1
  -3   2 -10 7.43005 3.15851   1
   4  -2  10 725.069 50.2896   3
  -4  -2 -10 808.424 52.9034   1
  -4  -2 -10 878.470 54.4044   1
  -4  -2 -10 884.039 49.7589   2
   4   2  10 830.300 49.8947   3
  -4   2 -10 840.373 51.1446   1
  -4   2 -10 805.746 51.1217   1
   5  -2  10 398.361 28.0793   3
  -5  -2 -10 490.120 31.8755   1
  -5  -2 -10 451.423 27.3943   2
  -5   2 -10 417.757 29.3528   1
  -5   2 -10 445.278 29.8046   1
   5   2  10 442.549 27.6964   3
   6  -2  10 -0.8006 3.04737   3
  -6  -2 -10 -0.6519 2.10101   2
  -6   2 -10 0.26967 2.09205   2
   6   2  10 1.68871 2.46822   3
  -7  -2 -10 117.678 9.23872   2
   7  -2  10 118.787 10.6143   3
  -7   2 -10 116.456 9.37230   2
   7   2  10 112.910 9.69522   3
  -8  -2 -10 681.753 44.4654   2
   8  -2  10 707.615 48.2327   3
  -8   2 -10 747.497 45.7640   2
  -9  -2 -10 0.42570 3.27244   2
   9  -2  10 -1.8869 4.39163   3
   9   2  10 -4.0885 3.49494   3
  -9   2 -10 0.87130 2.81760   2
 -10  -2 -10 95.2498 10.0995   2
 -10   2 -10 99.6215 9.67522   2
  10   2  10 103.975 11.1265   3
 -11  -3  10 123.934 13.6548   2
 -11   3  10 135.863 13.0640   2
 -10  -3  10 166.011 14.3785   2
 -10   3  10 147.254 12.7471   3
 -10   3  10 153.921 13.5245   2
  -9   3  10 -1.6291 3.21880   2
  -9   3  10 3.18121 3.36347   3
  -8  -3  10 201.191 15.0316   2
  -8   3  10 189.595 13.9988   3
  -8   3  10 205.883 14.4004   2
   8   3 -10 142.891 30.6386   1
  -7  -3  10 247.198 32.5505   1
  -7  -3  10 212.127 15.4774   2
   7   3 -10 199.643 38.3313   1
  -7   3  10 225.746 15.0316   2
  -7   3  10 200.134 14.6606   3
  -6  -3  10 5.76588 2.92410   2
  -6  -3  10 6.96693 12.5852   1
   6  -3 -10 11.4094 13.3478   1
   6   3 -10 14.3183 17.6201   1
  -6   3  10 5.15927 2.47633   3
  -6   3  10 11.0882 2.59716   2
   5  -3 -10 453.091 35.9258   1
  -5  -3  10 451.090 27.4853   2
  -5  -3  10 440.039 37.8466   1
   5  -3 -10 368.443 26.8669   2
   5   3 -10 513.469 41.9875   1
  -5   3  10 449.050 27.0551   2
  -5   3  10 422.164 27.0957   3
  -5   3  10 473.869 37.8597   1
  -4  -3  10 223.493 14.4679   2
   4  -3 -10 209.378 22.0952   1
  -4  -3  10 241.100 23.7618   1
   4  -3 -10 205.055 13.9882   2
  -4   3  10 214.583 14.2067   3
  -4   3  10 232.061 21.8749   1
  -4   3  10 226.125 14.0569   2
   4   3 -10 216.308 28.3164   1
   3  -3 -10 4.25454 6.83201   1
  -3  -3  10 3.18172 1.94271   2
   3  -3 -10 2.97084 1.55997   2
  -3  -3  10 2.05802 6.53208   1
  -3   3  10 3.72175 1.48892   2
  -3   3  10 3.78768 1.60916   3
   3   3 -10 24.1398 11.2636   1
  -3   3  10 12.4810 7.40715   1
  -2  -3  10 484.023 31.4704   1
   2  -3 -10 443.925 27.4688   2
   2  -3 -10 468.222 32.2463   1
   2  -3 -10 469.478 27.6264   3
  -2  -3  10 469.209 27.8900   2
   2   3 -10 368.367 34.7172   1
   2   3 -10 446.142 27.7858   2
  -2   3  10 453.258 27.5339   2
  -2   3  10 474.198 27.8349   3
   1  -3 -10 146.546 9.48862   2
   1  -3 -10 130.011 14.1241   1
   1  -3 -10 148.412 9.72376   3
  -1  -3  10 153.559 9.91993   2
  -1  -3  10 160.085 12.4923   1
   1   3 -10 148.168 9.84856   2
   1   3 -10 109.669 17.5622   1
  -1   3  10 152.226 9.85376   3
   1   3 -10 149.309 8.98172   3
   0  -3  10 5.05006 1.68200   2
   0  -3 -10 1.76214 6.25800   1
   0  -3  10 2.42450 1.84986   3
   0  -3 -10 6.04908 1.48569   2
   0  -3  10 3.22461 2.74697   1
   0  -3 -10 6.69808 1.80271   3
   0  -3 -10 3.03100 5.41438   1
   0   3  10 7.67428 1.89553   3
   0   3 -10 5.02199 1.11245   3
   0   3 -10 5.48309 1.82295   2
   0   3 -10 -1.2754 6.25185   1
  -1  -3 -10 115.385 7.60834   2
  -1  -3 -10 104.724 7.96928   3
  -1  -3 -10 116.024 13.6971   1
  -1  -3 -10 116.476 12.1438   1
   1   3  10 113.607 7.97996   3
  -1   3 -10 108.194 7.94085   2
  -1   3 -10 103.942 12.7655   1
  -1   3 -10 118.559 9.18720   1
  -1   3 -10 109.617 7.49612   3
  -2  -3 -10 5.55117 6.20849   1
  -2  -3 -10 3.93322 1.97624   2
   2  -3  10 2.01650 2.48517   3
  -2  -3 -10 1.72812 2.55900   3
  -2  -3 -10 5.88174 5.26136   1
  -2   3 -10 9.60430 4.90176   1
   2   3  10 2.71708 2.06996   3
  -2   3 -10 5.61430 2.49144   1
  -2   3 -10 9.09999 2.20206   3
  -3  -3 -10 0.29126 5.46052   1
   3  -3  10 5.06257 2.76138   3
  -3  -3 -10 4.95322 2.30659   2
  -3  -3 -10 -2.4919 6.88788   1
  -3   3 -10 10.3170 4.06004   1
   3   3  10 8.42491 2.21853   3
  -3   3 -10 10.1962 2.79186   3
  -4  -3 -10 19.6565 3.00860   2
   4  -3  10 23.0172 4.33498   3
  -4  -3 -10 22.1859 6.80843   1
   4   3  10 30.7150 4.03378   3
  -4   3 -10 19.5360 4.23691   1
  -4   3 -10 23.0597 4.41135   1
   5  -3  10 11.6510 4.10061   3
  -5  -3 -10 13.7537 3.05591   2
  -5  -3 -10 16.1411 9.22921   1
  -5   3 -10 8.22496 4.41680   1
  -5   3 -10 13.3186 5.47109   1
   5   3  10 16.7860 3.39809   3
   6  -3  10 0.20214 3.60823   3
  -6  -3 -10 3.46082 2.32653   2
  -6   3 -10 7.94313 6.90740   1
   6   3  10 4.15353 2.56233   3
  -6   3 -10 3.65545 2.43306   2
  -7  -3 -10 22.4727 3.73169   2
   7  -3  10 30.3013 5.68200   3
   7   3  10 21.9459 4.14115   3
  -7   3 -10 22.6961 3.70660   2
   8   3  10 43.3109 6.48097   3
  -9  -3 -10 3.00100 3.58052   2
  -9   3 -10 2.21800 3.23185   2
   9   3  10 3.63447 3.77504   3
 -10  -3 -10 18.8550 4.94572   2
  10   3  10 13.8871 5.13409   3
 -10   3 -10 18.1338 4.87974   2
 -10  -4  10 28.0501 6.63049   2
 -10   4  10 27.7828 5.51971   2
  -9  -4  10 44.6136 6.59213   2
  -9   4  10 55.8857 7.45042   2
  -9   4  10 49.8038 7.47141   3
  -8  -4  10 13.3322 4.84882   2
  -8   4  10 12.9474 4.10464   3
  -8   4  10 12.3142 3.83080   2
  -7  -4  10 174.260 13.1680   2
  -7   4  10 171.629 12.3079   2
  -7   4  10 159.564 12.5993   3
   7   4 -10 194.677 38.9106   1
  -6  -4  10 16.1936 3.74365   2
  -6  -4  10 35.3609 17.9830   1
   6  -4 -10 13.3468 3.85452   2
  -6   4  10 21.2206 13.7879   1
  -6   4  10 13.2361 3.05618   3
   6   4 -10 24.9934 19.4196   1
  -6   4  10 21.2293 3.06618   2
  -5  -4  10 194.360 13.0954   2
   5  -4 -10 194.458 23.5886   1
  -5  -4  10 176.649 27.5916   1
   5  -4 -10 156.675 12.3207   2
   5   4 -10 194.798 31.3066   1
  -5   4  10 187.380 22.6440   1
  -5   4  10 192.689 12.8711   3
  -5   4  10 194.510 12.2964   2
  -4  -4  10 335.586 20.3027   2
  -4  -4  10 322.708 29.3857   1
   4  -4 -10 321.649 27.5598   1
   4  -4 -10 286.956 19.5595   2
  -4   4  10 304.124 26.6179   1
  -4   4  10 316.776 20.1083   3
  -4   4  10 325.815 19.5832   2
   4   4 -10 321.437 34.7300   1
   3  -4 -10 46.4160 4.21793   2
   3  -4 -10 40.8213 9.32350   1
  -3  -4  10 57.5959 10.5823   1
  -3  -4  10 45.9360 4.71524   2
  -3   4  10 52.9114 4.77834   3
   3   4 -10 57.4647 14.3583   1
  -3   4  10 45.0876 8.89676   1
  -3   4  10 54.6617 4.13024   2
  -2  -4  10 272.094 17.4167   2
   2  -4 -10 268.321 17.3021   3
   2  -4 -10 262.946 22.2016   1
  -2  -4  10 307.118 21.7702   1
   2  -4 -10 284.499 16.9401   2
  -2   4  10 286.777 17.4552   3
   2   4 -10 236.560 27.0609   1
  -2   4  10 270.475 16.9344   2
   1  -4 -10 1390.48 82.2203   2
   1  -4 -10 1372.18 86.3275   1
  -1  -4  10 1426.51 82.6389   2
   1  -4 -10 1405.24 86.7849   1
  -1  -4  10 1365.60 84.3960   1
   1  -4 -10 1380.02 82.5213   3
   1   4 -10 1344.91 83.0924   2
   1   4 -10 1414.05 81.9049   3
  -1   4  10 1371.06 82.6915   3
   0  -4 -10 34.9459 7.73101   1
   0  -4 -10 21.4926 2.73267   2
   0  -4  10 20.0822 3.13688   2
   0  -4 -10 21.5610 6.77592   1
   0  -4  10 19.8940 3.53694   1
   0  -4 -10 18.3724 2.88125   3
   0   4 -10 22.0123 2.42364   3
   0   4 -10 18.1969 7.24386   1
   0   4 -10 22.4481 3.26045   2
   0   4  10 24.5049 3.42733   3
  -1  -4 -10 838.829 53.5956   1
  -1  -4 -10 816.458 49.1361   2
  -1  -4 -10 829.895 53.3025   1
  -1   4 -10 838.917 49.7811   1
   1   4  10 848.992 49.6285   3
  -1   4 -10 706.363 51.1501   1
  -1   4 -10 877.189 49.2579   3
  -2  -4 -10 761.586 49.3349   1
  -2  -4 -10 764.715 50.1128   1
  -2  -4 -10 737.910 45.2503   2
  -2   4 -10 778.671 45.5787   3
   2   4  10 732.646 45.6610   3
  -3  -4 -10 8.51929 2.51944   2
  -3  -4 -10 4.05508 7.95935   1
  -3  -4 -10 8.23822 2.16089   2
  -3  -4 -10 5.83750 6.56459   1
  -3   4 -10 3.47890 3.12901   3
   3   4  10 7.73851 2.25362   3
  -4  -4 -10 258.747 21.3462   1
  -4  -4 -10 242.491 16.1575   2
   4   4  10 248.797 16.2909   3
  -5  -4 -10 1052.70 63.4692   2
   5   4  10 1053.42 63.6726   3
  -6  -4 -10 11.7196 2.99272   2
   6   4  10 5.98055 2.86071   3
  -6   4 -10 2.24052 2.43806   2
  -7  -4 -10 334.583 22.2603   2
   7   4  10 333.546 22.5346   3
  -7   4 -10 356.132 22.0860   2
   8   4  10 188.924 14.7124   3
  -8   4 -10 191.843 14.5662   2
  -9  -4 -10 4.38789 3.74668   2
  -9   4 -10 3.48093 3.46680   2
   9   4  10 -1.4642 3.97254   3
 -10  -5  10 160.334 15.0817   2
 -10   5  10 156.181 14.1833   3
 -10   5  10 158.956 13.6282   2
  -9  -5  10 -2.5483 4.37471   2
  -9   5  10 2.82749 3.63231   2
  -9   5  10 3.90618 4.32198   3
  -8   5  10 281.569 19.0848   2
  -8   5  10 289.222 23.6159   3
  -7  -5  10 16.0308 4.43863   2
  -7   5  10 18.5119 3.42248   2
  -7   5  10 15.0109 4.00102   3
  -6  -5  10 20.3671 3.98913   2
   6  -5 -10 18.2929 3.88525   2
  -6   5  10 20.1434 2.90951   2
  -6   5  10 20.2573 3.82689   3
   5  -5 -10 47.1323 6.09400   2
  -5  -5  10 75.0018 6.76225   2
  -5   5  10 55.4293 13.6173   1
  -5   5  10 61.9177 5.24729   2
   5   5 -10 29.3652 20.0040   1
  -5   5  10 73.4795 6.65108   3
  -4  -5  10 382.258 22.8125   2
   4  -5 -10 314.308 21.9824   2
  -4  -5  10 360.645 35.2434   1
   4  -5 -10 353.164 30.2710   1
  -4   5  10 402.556 30.8936   1
   4   5 -10 306.240 36.1494   1
  -4   5  10 368.799 21.9140   2
  -4   5  10 367.799 22.8494   3
   3  -5 -10 4.96300 1.73558   2
  -3  -5  10 8.15812 2.25987   2
  -3  -5  10 -1.3330 8.73019   1
   3  -5 -10 8.61509 8.08319   1
  -3   5  10 7.03539 1.47934   2
   3   5 -10 -8.1944 10.8599   1
  -3   5  10 4.51507 2.24909   3
   2  -5 -10 404.255 30.2368   1
   2  -5 -10 410.401 31.1676   1
   2  -5 -10 404.745 24.4291   2
  -2  -5  10 417.593 29.3666   1
  -2  -5  10 412.804 25.0019   2
   2   5 -10 368.785 32.0410   1
  -2   5  10 404.156 25.2012   3
  -1  -5  10 3.30338 2.13908   2
  -1  -5  10 11.1237 4.34461   1
   1  -5 -10 4.18725 7.06022   1
   1  -5 -10 9.62250 1.62820   2
   1  -5 -10 1.73237 6.90901   1
   1   5 -10 5.85325 1.00219   3
   1   5 -10 6.11406 0.90699   3
  -1   5  10 4.15401 2.26115   3
   1   5 -10 2.56794 6.26737   1
   0  -5  10 40.5909 4.08925   2
   0  -5 -10 46.9766 9.39168   1
   0  -5 -10 52.7616 9.60471   1
   0  -5  10 46.8319 5.95248   1
   0  -5 -10 44.9933 3.71193   2
   0   5  10 41.3338 4.34526   3
   0   5 -10 39.1932 5.88055   1
  -1  -5 -10 20.3586 7.48548   1
  -1  -5 -10 15.2646 2.15828   2
  -1  -5 -10 17.8304 8.54246   1
  -1   5 -10 17.5335 2.58028   3
   1   5  10 15.1775 2.81498   3
  -2  -5 -10 31.0934 3.82495   2
  -2  -5 -10 13.9755 7.45572   1
  -2  -5 -10 26.2182 3.82824   2
  -2  -5 -10 19.9728 8.89045   1
   2   5  10 22.7387 3.43497   3
  -2   5 -10 29.8551 3.80477   3
  -3  -5 -10 9.43740 2.39942   2
  -3  -5 -10 -1.9229 7.10578   1
  -3  -5 -10 11.9779 9.95237   1
  -3  -5 -10 7.67430 2.43793   2
   3   5  10 10.0187 2.53534   3
  -3   5 -10 -1.1272 3.96419   3
  -4  -5 -10 16.8455 11.2626   1
  -4  -5 -10 10.3540 8.49453   1
  -4  -5 -10 10.0874 2.82415   2
   4   5  10 5.98880 2.73060   3
  -5  -5 -10 21.5600 3.71135   2
   5   5  10 15.0701 3.67352   3
  -6  -5 -10 11.7271 3.18323   2
  -6   5 -10 16.7222 3.20383   2
   6   5  10 5.77609 3.13941   3
  -7  -5 -10 -1.8085 3.34637   2
   7   5  10 1.46125 5.26686   3
  -7   5 -10 1.58067 2.87573   2
  -8  -5 -10 58.3965 8.16423   2
  -8   5 -10 65.4354 7.48817   2
   8   5  10 61.0701 8.09856   3
  -9  -5 -10 -1.9104 3.99105   2
  -9   5 -10 1.53838 3.34946   2
   9   5  10 -0.8520 3.95516   3
 -10  -6  10 9.09041 6.03562   2
 -10   6  10 0.56368 5.54106   3
 -10   6  10 0.70754 4.88729   2
  -9  -6  10 66.8585 9.75862   2
  -9   6  10 62.5992 9.70089   3
  -9   6  10 63.7722 8.33369   2
  -8  -6  10 -2.0116 4.17397   2
  -8   6  10 7.80826 3.35234   2
  -8   6  10 5.86509 4.47049   3
  -7  -6  10 152.501 12.1623   2
  -7   6  10 124.466 11.8161   3
  -7   6  10 139.992 10.1387   2
  -6  -6  10 1.88462 3.08401   2
  -6   6  10 0.45894 1.79176   2
  -6   6  10 4.09410 3.45697   3
   5  -6 -10 203.007 14.3637   2
  -5  -6  10 236.440 15.2526   2
  -5   6  10 217.383 13.7541   2
  -5   6  10 216.675 15.4148   3
  -4  -6  10 15.4396 3.22364   2
   4  -6 -10 12.3008 2.68061   2
  -4   6  10 19.6711 2.79100   2
  -4   6  10 11.4520 3.29378   3
  -3  -6  10 93.4814 7.00480   2
   3  -6 -10 74.6028 12.7483   1
   3  -6 -10 79.7411 7.04895   2
   3  -6 -10 68.6698 13.1474   1
  -3   6  10 93.0595 7.24756   3
   3   6 -10 84.1547 16.1334   1
  -2  -6  10 6.88539 2.35444   2
   2  -6 -10 7.18109 8.96570   1
   2  -6 -10 6.89497 8.72406   1
  -2   6  10 3.79591 2.59572   3
   2   6 -10 2.06750 7.92307   1
   1  -6 -10 1227.59 76.8940   1
   1  -6 -10 1131.31 76.4709   1
   1  -6 -10 1190.28 71.1362   2
  -1  -6  10 1164.84 73.3903   1
  -1  -6  10 1223.47 71.6666   2
  -1   6  10 1204.98 71.9914   3
   1   6 -10 1155.49 73.7175   1
   1   6 -10 1302.02 70.9613   3
   1   6 -10 1173.04 70.8727   3
   0  -6  10 1.25838 2.67149   1
   0  -6 -10 -1.1287 1.35231   2
   0  -6 -10 -1.4459 7.65391   1
   0  -6 -10 -1.1362 8.57398   1
   0  -6  10 0.27556 1.73490   2
   0   6 -10 2.03979 1.21524   3
   0   6  10 0.33729 2.05865   3
   0   6 -10 -1.5579 2.64652   1
   0   6 -10 -0.2120 1.65782   3
  -1  -6 -10 740.768 52.3612   1
  -1  -6 -10 876.568 47.2753   2
  -1  -6 -10 742.442 53.8343   1
  -1  -6 -10 746.615 46.8211   2
  -1   6 -10 802.819 47.3948   3
   1   6  10 785.288 47.6560   3
  -2  -6 -10 34.0611 4.11641   2
  -2  -6 -10 19.3075 8.76895   1
  -2  -6 -10 39.9378 11.6942   1
  -2  -6 -10 34.2136 4.67979   2
  -2   6 -10 36.6693 4.78425   3
   2   6  10 33.3675 5.27878   3
  -3  -6 -10 25.2849 9.98883   1
  -3  -6 -10 21.3864 3.07572   2
  -3  -6 -10 16.8230 3.03366   2
  -3  -6 -10 13.4955 11.6676   1
   3   6  10 13.6823 3.00056   3
  -4  -6 -10 -9.3610 13.2933   1
  -4  -6 -10 -0.8604 2.74705   2
   4   6  10 -0.4804 2.89793   3
  -5  -6 -10 912.107 56.3282   2
   5   6  10 941.051 56.3764   3
  -6  -6 -10 5.90845 3.39570   2
  -6   6 -10 -0.1989 2.62232   2
   6   6  10 1.62119 4.09401   3
  -7  -6 -10 307.214 21.6664   2
   7   6  10 332.729 21.7080   3
  -7   6 -10 329.869 22.9599   2
  -8  -6 -10 8.83736 4.84698   2
   8   6  10 0.55388 4.51232   3
  -8   6 -10 0.54208 3.54638   2
  -9  -7  10 0.97044 5.17072   2
  -9   7  10 2.03805 5.11989   3
  -8  -7  10 180.278 14.9713   2
  -8   7  10 175.856 15.0907   3
  -8   7  10 168.088 12.5456   2
  -7  -7  10 10.5948 6.99922   2
  -7   7  10 12.4692 5.47633   3
  -7   7  10 7.74137 2.56820   2
  -6  -7  10 6.95038 3.69414   2
  -6   7  10 2.68558 3.83565   3
  -6   7  10 4.90664 1.92318   2
  -5  -7  10 13.7005 3.72415   2
  -5   7  10 27.4227 4.82700   3
  -4  -7  10 177.344 12.5110   2
   4  -7 -10 173.173 11.3732   2
  -4   7  10 177.386 13.1324   3
  -3  -7  10 5.20310 2.39734   2
   3  -7 -10 6.82342 1.80438   2
   3  -7 -10 -11.612 11.4275   1
  -3   7  10 5.70061 2.90207   3
   2  -7 -10 250.240 17.1635   2
   2  -7 -10 269.816 27.0672   1
  -2  -7  10 316.003 18.2368   2
  -2   7  10 298.250 18.6692   3
  -1  -7  10 6.22912 2.46049   2
   1  -7 -10 3.16444 9.38473   1
   1  -7 -10 2.20256 1.33993   2
   1  -7 -10 5.43266 1.79235   2
   1   7 -10 4.56548 1.08030   3
   1   7 -10 6.12486 1.63008   3
  -1   7  10 5.18260 2.83647   3
   0  -7  10 11.6333 2.31902   2
   0  -7 -10 10.2759 9.48795   1
   0  -7 -10 24.4011 11.7706   1
   0   7  10 15.5342 3.15713   3
   0   7 -10 20.8148 2.84419   3
   0   7 -10 12.4136 1.78491   3
  -1  -7 -10 17.9582 2.20269   2
  -1  -7 -10 33.7167 10.1598   1
  -1  -7 -10 16.5530 11.5720   1
  -1  -7 -10 12.4025 2.70871   2
  -1   7 -10 18.4334 2.43261   3
   1   7  10 10.2534 3.16030   3
  -1   7 -10 22.7369 3.88322   3
  -2  -7 -10 3.09095 2.07405   2
  -2  -7 -10 3.35935 13.3318   1
  -2  -7 -10 2.77283 9.92818   1
  -2  -7 -10 1.29965 2.41730   2
  -2   7 -10 -5.0875 4.55012   3
  -3  -7 -10 15.5990 4.42317   2
  -3  -7 -10 12.1956 3.02904   2
   3   7  10 10.1071 3.03924   3
  -4  -7 -10 11.4951 3.46362   2
   4   7  10 7.35108 3.28789   3
  -5  -7 -10 5.44160 3.68649   2
   5   7  10 -2.2477 3.55226   3
  -6  -7 -10 13.1621 4.11265   2
  -6   7 -10 17.1185 3.56407   2
   6   7  10 9.93597 3.69227   3
  -7  -7 -10 -1.4858 4.26088   2
  -7   7 -10 -1.1121 3.62377   2
   7   7  10 -1.9766 3.70499   3
  -8  -7 -10 52.5137 7.16230   2
   8   7  10 47.4572 6.58485   3
  -8   7 -10 36.8014 5.33700   2
  -8  -8  10 -0.4705 4.90395   2
  -8   8  10 -11.536 5.00765   3
  -7  -8  10 93.8637 10.1772   2
  -7   8  10 84.6811 11.1575   3
  -6  -8  10 9.19791 5.37419   2
  -6   8  10 9.04437 5.95984   3
  -5  -8  10 111.612 9.64881   2
  -5   8  10 109.018 10.8363   3
  -4  -8  10 40.9136 5.96646   2
  -4   8  10 39.9363 5.84102   3
  -3  -8  10 74.4632 6.53360   2
  -3   8  10 65.0701 7.20951   3
  -2  -8  10 37.7756 5.22034   2
  -2   8  10 50.0966 6.66380   3
  -1  -8  10 497.033 30.8734   2
   1  -8 -10 467.947 41.9859   1
  -1   8  10 529.707 31.7223   3
   0  -8 -10 16.0346 12.6647   1
   0   8  10 8.20092 3.09766   3
   0   8 -10 5.78668 3.34172   3
   0   8 -10 6.46516 1.64133   3
  -1  -8 -10 369.045 33.9539   1
   1   8  10 425.656 25.5450   3
  -1   8 -10 407.708 24.4676   3
  -1   8 -10 373.524 28.2726   3
  -2  -8 -10 52.7412 6.23376   2
  -2  -8 -10 71.2254 16.5238   1
  -2   8 -10 69.8530 6.16706   3
  -3  -8 -10 29.6888 4.32545   2
   3   8  10 40.6116 5.87589   3
  -4  -8 -10 59.3060 7.60298   2
  -5  -8 -10 341.436 26.0465   2
   5   8  10 416.463 25.9879   3
  -5   8 -10 445.147 25.6802   2
  -6  -8 -10 1.04763 4.45965   2
   6   8  10 -1.0380 3.55783   3
  -6   8 -10 -2.1085 3.04612   2
  -7   8 -10 189.813 13.9111   2
   7   8  10 185.709 14.7751   3
  -7  -9  10 24.8229 5.76100   2
  -7   9  10 26.0947 6.69975   3
  -6  -9  10 -1.1731 3.76190   2
  -6   9  10 1.19773 4.46960   3
  -5  -9  10 99.2780 9.43657   2
  -5   9  10 104.196 11.2138   3
  -4  -9  10 46.9968 6.27120   2
  -4   9  10 44.7066 6.48398   3
  -3  -9  10 8.86424 3.03441   2
  -2  -9  10 78.8778 7.03148   2
  -2   9  10 75.4989 9.27313   3
  -1  -9  10 9.13026 2.64691   2
   1   9 -10 10.0387 1.75942   3
  -1   9  10 11.2222 3.67275   3
   0   9  10 15.2694 3.81203   3
   0   9 -10 17.7873 2.28065   3
  -1   9 -10 58.2077 5.37715   3
   1   9  10 61.2413 9.10000   3
  -2   9 -10 0.35363 2.35906   3
   2   9  10 7.38776 5.83313   3
  -3  -9 -10 8.45934 3.27500   2
   3   9  10 14.8901 3.75936   3
  -3   9 -10 18.7011 3.59104   3
  -4  -9 -10 -0.7078 3.73123   2
  -4   9 -10 -1.2155 3.68971   3
   4   9  10 -7.2136 3.24472   3
  -5  -9 -10 4.69805 4.64275   2
  -5   9 -10 3.38704 3.43498   2
   5   9  10 1.03453 3.95079   3
  -6  -9 -10 17.4333 5.84055   2
  -6   9 -10 21.1677 4.64465   2
   6   9  10 8.57644 4.49043   3
  -6 -10  10 20.0759 5.05280   2
  -6  10  10 16.1444 6.29843   3
  -5 -10  10 23.1285 4.49342   2
  -5  10  10 26.3379 6.15458   3
  -4 -10  10 118.954 10.7247   2
  -4  10  10 109.396 11.7457   3
  -3 -10  10 23.3526 3.72416   2
  -3  10  10 25.1901 5.12861   3
  -2 -10  10 65.5851 6.40536   2
  -2  10  10 53.1594 7.68295   3
   1  10 -10 105.446 7.47751   3
  -1  10  10 102.408 10.0862   3
   0  10 -10 13.1879 2.37674   3
   0  10  10 13.0478 4.12583   3
   1  10  10 88.0268 8.56502   3
  -1  10 -10 81.1388 6.98094   3
   2  10  10 226.659 15.5651   3
  -2  10 -10 203.617 14.5095   3
  -3  10 -10 11.4195 3.71449   3
   3  10  10 9.43204 3.89395   3
   4  10  10 124.176 11.6713   3
  -4  10 -10 145.985 10.9269   2
   5  10  10 90.4691 10.3881   3
  -5  10 -10 114.471 14.2776   2
  -5  10 -10 84.5869 11.4883   3
  -4 -11  10 3.11421 3.88586   2
  -4  11  10 4.55700 5.19006   3
  -3  11  10 9.18106 4.85647   3
  -2 -11  10 0.34362 3.11866   2
  -2  11  10 5.46877 4.44479   3
  -1  11  10 4.76378 4.43093   3
   0  11  10 4.73596 3.91200   3
  -1  11 -10 43.2093 5.96633   3
   1  11  10 63.9958 8.27205   3
  -2  11 -10 -0.1264 3.36039   3
   2  11  10 -0.4251 4.29572   3
   3  11  10 28.2918 5.49467   3
 -11   0  11 22.1931 6.31608   2
 -10   0  11 1.69728 3.02626   3
 -10   0  11 2.89627 4.37306   2
  -9   0  11 48.6956 6.54284   2
  -9   0  11 37.2853 5.05030   3
  -8   0  11 -0.4187 2.00100   3
  -8   0  11 -17.264 30.8798   1
  -8   0  11 5.78168 4.21628   2
  -7   0  11 174.128 10.4158   3
  -7   0  11 160.736 11.9571   2
   7   0 -11 125.570 23.9749   1
  -7   0  11 139.134 10.0612   3
  -7   0  11 115.816 21.3283   1
  -6   0  11 3.11090 1.55042   3
  -6   0  11 -1.9641 12.1958   1
   6   0 -11 7.29005 14.6944   1
  -6   0  11 1.94556 2.62628   2
  -6   0  11 -0.2507 2.60987   3
   5   0 -11 9.50636 12.1370   1
  -5   0  11 27.6310 11.3719   1
  -4   0  11 -11.772 7.48195   1
  -4   0  11 0.93978 2.22156   2
  -4   0  11 4.02085 1.37714   3
   4   0 -11 13.9380 9.92949   1
   3   0 -11 9.45652 7.80869   1
  -3   0  11 10.0318 6.07612   1
  -3   0  11 7.63631 1.97278   2
   3   0 -11 7.43774 2.22689   2
  -3   0  11 7.75045 1.72216   3
  -2   0  11 11.3912 5.19949   1
   2   0 -11 6.72671 2.15254   2
  -2   0  11 8.98472 2.22787   2
  -2   0  11 6.73868 1.89080   3
   2   0 -11 -0.9290 6.53162   1
  -1   0  11 1544.50 93.2968   2
  -1   0  11 1548.92 96.0176   1
  -1   0  11 1598.50 93.1890   3
   1   0 -11 1596.15 92.9392   3
   1   0 -11 1554.91 93.1975   2
   1   0 -11 1567.58 96.6702   1
   0   0  11 2.88270 1.52420   2
   0   0 -11 4.19793 1.40296   3
   0   0 -11 1.07652 1.70014   2
   0   0  11 1.81176 1.51153   3
   0   0 -11 1.86955 4.95789   1
  -1   0 -11 1250.02 75.8935   3
  -1   0 -11 1244.33 76.0269   2
   1   0  11 1279.68 76.2101   3
  -1   0 -11 1279.50 78.7993   1
  -1   0 -11 1330.72 78.7172   1
  -2   0 -11 1.51605 1.96973   3
  -2   0 -11 -4.5923 4.62295   1
  -2   0 -11 -1.6352 4.17300   1
  -3   0 -11 0.05075 2.46494   3
  -3   0 -11 -0.7886 4.89050   1
   3   0  11 2.80229 2.07707   3
  -3   0 -11 -0.1304 4.28234   1
   4   0  11 -3.2036 2.57678   3
  -4   0 -11 -2.5341 4.96430   1
  -4   0 -11 2.41776 5.70863   1
   5   0  11 1278.72 80.7120   3
  -5   0 -11 1336.98 83.2899   1
  -5   0 -11 1307.30 89.9997   1
  -5   0 -11 1431.92 80.4209   2
   6   0  11 2.02402 2.86879   3
  -6   0 -11 -0.0904 2.14298   2
   7   0  11 776.756 50.3896   3
  -7   0 -11 853.158 49.8724   2
  -8   0 -11 -1.4733 3.83787   2
   8   0  11 -1.3436 4.70621   3
  -9   0 -11 1.69023 3.22169   2
   9   0  11 -6.1878 3.96254   3
  10   0  11 2.49711 5.45924   3
 -10   0 -11 1.83267 4.76847   2
 -11  -1  11 17.2793 5.95975   2
 -10  -1  11 236.101 18.0160   2
 -10   1  11 238.822 17.6520   2
 -10   1  11 218.416 15.8428   3
  -9  -1  11 1.24274 2.02252   3
  -9  -1  11 5.79052 5.64564   2
  -9   1  11 4.44935 2.75024   3
  -9   1  11 1.70013 3.84860   2
  -8  -1  11 584.668 36.1238   2
  -8  -1  11 626.161 55.2823   1
  -8   1  11 565.623 35.8564   2
   8   1 -11 705.617 74.1366   1
  -8   1  11 490.657 34.5275   3
  -7  -1  11 62.1413 4.66161   3
   7  -1 -11 46.5282 19.3833   1
  -7  -1  11 74.7453 5.22222   3
  -7  -1  11 70.4321 7.90929   2
  -7  -1  11 37.1040 17.7905   1
  -7   1  11 62.6684 18.1802   1
  -7   1  11 65.5517 7.48525   2
  -7   1  11 45.8063 6.10424   3
  -7   1  11 64.9571 5.80185   3
   7   1 -11 45.5574 19.6842   1
  -6  -1  11 1.00646 2.81974   2
  -6  -1  11 -0.3607 12.6176   1
  -6  -1  11 6.35638 1.15851   3
   6  -1 -11 11.8652 14.0182   1
   6   1 -11 4.11386 15.4912   1
  -6   1  11 5.86540 2.04257   3
  -6   1  11 16.5262 3.24532   2
  -6   1  11 10.3814 12.5297   1
  -5  -1  11 37.4808 3.14030   3
  -5  -1  11 35.8048 2.85015   3
  -5  -1  11 37.9762 5.25150   2
  -5  -1  11 41.9857 12.6575   1
   5  -1 -11 25.1298 12.2435   1
   5   1 -11 7.43228 13.6067   1
  -5   1  11 42.3597 11.4764   1
  -5   1  11 38.5101 4.00547   3
  -5   1  11 43.4036 5.16076   2
  -4  -1  11 577.390 41.2506   1
   4  -1 -11 527.954 34.1178   2
  -4  -1  11 587.209 33.4310   3
  -4  -1  11 554.300 34.3900   2
   4  -1 -11 561.794 41.1204   1
  -4   1  11 571.266 33.8942   3
   4   1 -11 487.708 42.3331   1
  -4   1  11 572.426 40.7000   1
  -4   1  11 595.675 34.3476   2
   3  -1 -11 38.9664 4.38923   2
   3  -1 -11 33.1709 9.03621   1
  -3  -1  11 45.0095 8.56045   1
  -3  -1  11 46.2695 4.41956   2
  -3  -1  11 46.6242 3.32810   3
  -3   1  11 41.0437 3.76423   3
   3   1 -11 25.6110 9.93723   1
  -3   1  11 44.4338 8.55289   1
  -3   1  11 45.5074 4.19309   2
   2  -1 -11 2036.24 123.835   1
   2  -1 -11 2011.83 119.811   2
  -2  -1  11 2075.87 119.667   3
  -2  -1  11 2102.40 123.422   1
  -2  -1  11 2018.13 120.028   2
   2  -1 -11 2079.77 119.613   3
  -2   1  11 1957.20 119.911   2
  -2   1  11 1956.10 123.373   1
   2   1 -11 2033.81 124.546   1
   2   1 -11 2011.92 119.395   3
  -2   1  11 2029.44 119.808   3
   2   1 -11 1931.91 119.866   2
   1  -1 -11 155.976 14.6181   1
   1  -1 -11 161.443 9.80353   2
   1  -1 -11 152.843 9.48767   3
  -1  -1  11 156.971 13.2413   1
  -1  -1  11 146.677 9.95058   2
  -1   1  11 148.813 9.73320   3
   1   1 -11 135.339 9.74392   2
   1   1 -11 121.114 15.2737   1
  -1   1  11 147.346 13.5413   1
   1   1 -11 140.637 9.45843   3
  -1   1  11 148.638 9.78138   2
   0  -1  11 4.87983 1.71862   2
   0  -1  11 4.56487 1.73498   3
   0  -1 -11 8.88334 1.84672   2
   0  -1 -11 9.90661 5.01210   1
   0  -1 -11 6.17854 1.64150   3
   0   1 -11 3.96151 1.82789   2
   0   1  11 5.55252 1.63967   3
   0   1 -11 1.16957 5.19082   1
   0   1 -11 5.99360 1.36200   3
  -1  -1 -11 27.9851 3.57073   3
  -1  -1 -11 22.0368 5.94967   1
  -1  -1 -11 17.7350 5.90958   1
   1  -1  11 27.0341 3.98452   3
  -1  -1 -11 28.3483 3.71588   2
  -1   1 -11 32.0223 6.13409   1
  -1   1 -11 22.3123 3.18798   3
  -1   1 -11 19.8963 5.02418   1
   1   1  11 23.1769 3.62058   3
  -1   1 -11 27.4229 3.30569   2
  -2  -1 -11 149.537 13.8063   1
  -2  -1 -11 118.768 8.91486   3
  -2  -1 -11 128.984 9.19412   2
   2  -1  11 123.616 9.33257   3
  -2   1 -11 132.875 12.5507   1
  -2   1 -11 127.244 11.4335   1
   2   1  11 134.381 8.98022   3
  -2   1 -11 121.301 8.77258   3
  -3  -1 -11 19.8698 6.88433   1
   3  -1  11 12.9013 2.79305   3
  -3  -1 -11 7.35886 5.05619   1
  -3   1 -11 12.4415 4.37034   1
  -3   1 -11 12.7542 2.72284   3
   3   1  11 13.1328 2.49891   3
  -3   1 -11 19.5237 5.58313   1
  -4  -1 -11 435.106 30.4287   1
  -4  -1 -11 418.225 29.1959   1
   4  -1  11 390.351 26.1847   3
  -4   1 -11 425.486 28.1829   1
   4   1  11 417.707 26.0019   3
  -4   1 -11 403.506 28.6579   1
   5  -1  11 5.46339 3.23557   3
  -5  -1 -11 7.99754 2.74706   2
  -5  -1 -11 -1.6793 10.3360   1
   5   1  11 9.16869 3.15717   3
  -5   1 -11 3.86853 5.81149   1
   6  -1  11 -1.9845 2.91078   3
  -6  -1 -11 6.32757 2.64119   2
   6   1  11 -0.5345 2.69364   3
  -6   1 -11 3.77351 2.28416   2
   7  -1  11 6.95383 4.14200   3
  -7  -1 -11 1.75635 3.10155   2
  -7   1 -11 1.11226 3.17950   2
   7   1  11 4.15965 3.62216   3
  -8  -1 -11 0.42814 3.50436   2
   8  -1  11 2.23199 4.82996   3
   8   1  11 4.55343 3.92549   3
  -8   1 -11 3.89605 3.48614   2
   9  -1  11 -3.6204 4.50954   3
  -9  -1 -11 0.40779 3.32136   2
   9   1  11 -1.1695 3.93030   3
  -9   1 -11 1.31566 2.96145   2
  10  -1  11 0.07501 5.71244   3
 -10  -1 -11 8.14582 4.68395   2
 -10   1 -11 8.06843 4.35010   2
  10   1  11 0.39049 5.22071   3
 -11  -2  11 12.3324 5.97688   2
 -11   2  11 9.43262 4.67474   3
 -11   2  11 4.54736 5.41511   2
 -10  -2  11 -2.3281 4.60899   2
 -10   2  11 4.79402 3.68321   3
 -10   2  11 2.27641 4.72550   2
  -9  -2  11 48.3632 8.60276   2
  -9   2  11 50.5472 7.68079   2
  -9   2  11 39.8125 6.37067   3
  -8  -2  11 2.03573 4.09522   2
   8   2 -11 -27.622 23.3428   1
  -8   2  11 -2.6529 2.57907   3
  -8   2  11 -3.4965 3.53086   2
  -7  -2  11 39.2882 17.5381   1
  -7  -2  11 79.9988 7.87067   2
  -7   2  11 66.4401 6.25434   3
  -7   2  11 64.9842 7.45457   2
   7   2 -11 66.4069 21.6978   1
  -7   2  11 54.1187 6.72245   3
  -7   2  11 54.7282 18.6657   1
  -6  -2  11 17.0445 13.9490   1
  -6  -2  11 24.7841 4.07649   2
   6  -2 -11 8.66734 14.4776   1
  -6   2  11 26.3250 3.76413   2
   6   2 -11 4.72755 15.9847   1
  -6   2  11 11.3329 12.5803   1
  -6   2  11 24.3822 3.76425   3
  -5  -2  11 55.6675 13.8630   1
  -5  -2  11 68.6696 6.39583   2
   5  -2 -11 39.5391 13.2947   1
  -5   2  11 64.7569 5.57846   3
   5   2 -11 84.6054 17.9436   1
  -5   2  11 53.2510 12.3636   1
  -5   2  11 64.0692 6.15460   2
   4  -2 -11 97.5298 17.4812   1
  -4  -2  11 97.5447 16.9896   1
   4  -2 -11 88.9016 7.37781   2
  -4  -2  11 102.944 7.74459   2
  -4   2  11 95.6590 15.5359   1
   4   2 -11 69.1232 15.3472   1
  -4   2  11 100.491 7.14117   3
  -4   2  11 102.087 7.41679   2
   3  -2 -11 21.5123 2.66421   2
   3  -2 -11 20.6142 8.42325   1
  -3  -2  11 20.0497 7.04245   1
   3  -2 -11 16.7367 2.14946   3
  -3  -2  11 18.3934 2.75612   2
  -3   2  11 15.5093 6.66478   1
  -3   2  11 14.3826 2.25772   2
  -3   2  11 16.3258 2.30105   3
   3   2 -11 16.5743 10.6230   1
  -2  -2  11 80.4697 11.5595   1
   2  -2 -11 93.8688 6.93532   2
  -2  -2  11 99.8309 7.37624   2
   2  -2 -11 102.428 6.77840   3
  -2  -2  11 91.8688 6.26890   3
   2  -2 -11 85.7131 13.7816   1
   2   2 -11 103.619 5.96084   3
  -2   2  11 101.111 7.04389   3
  -2   2  11 91.3399 6.92839   2
  -2   2  11 94.1384 12.6249   1
   1  -2 -11 1134.51 71.1430   1
   1  -2 -11 1179.91 67.2460   3
  -1  -2  11 1139.65 69.8177   1
   1  -2 -11 1149.38 67.2475   2
  -1  -2  11 967.177 67.2271   3
  -1  -2  11 1123.19 67.4873   2
  -1   2  11 1169.66 67.4540   3
   1   2 -11 1188.58 67.7063   2
  -1   2  11 1106.87 67.3074   2
   1   2 -11 1076.12 71.8111   1
   1   2 -11 1181.36 66.8895   3
   0  -2 -11 0.87053 5.08426   1
   0  -2  11 0.77464 3.05119   1
   0  -2 -11 1.76165 5.49780   1
   0  -2 -11 2.77356 1.68280   3
   0  -2  11 5.12068 1.92667   3
   0  -2  11 4.52176 1.72346   2
   0  -2 -11 2.84482 1.68990   2
   0   2 -11 0.07986 2.16129   2
   0   2 -11 2.43743 1.14086   3
   0   2 -11 -5.3885 5.41572   1
   0   2  11 4.01597 1.74409   3
   1  -2  11 678.634 46.3122   3
  -1  -2 -11 747.869 45.9262   3
  -1  -2 -11 782.682 49.4987   1
  -1  -2 -11 768.295 45.9184   2
  -1  -2 -11 784.952 49.7282   1
  -1   2 -11 802.456 47.8597   1
   1   2  11 787.095 46.1736   3
  -1   2 -11 776.385 45.7741   3
  -1   2 -11 765.774 48.9873   1
  -2  -2 -11 484.618 28.5445   2
   2  -2  11 416.438 29.0283   3
  -2  -2 -11 489.333 33.1144   1
  -2  -2 -11 448.973 28.6072   3
  -2  -2 -11 473.842 32.2434   1
  -2   2 -11 480.492 28.4517   3
  -2   2 -11 463.004 31.1387   1
  -2   2 -11 473.823 30.0051   1
   2   2  11 471.290 28.7227   3
   3  -2  11 -1.9753 2.32906   3
  -3  -2 -11 -2.3473 5.59220   1
  -3  -2 -11 -5.1121 6.51786   1
   3   2  11 -0.6696 1.93472   3
  -3   2 -11 7.87510 4.83504   1
  -3   2 -11 -0.9462 2.58088   3
  -3   2 -11 6.49571 3.60041   1
  -4  -2 -11 211.106 17.9413   1
   4  -2  11 160.783 13.3380   3
  -4  -2 -11 221.650 19.8845   1
  -4   2 -11 202.023 14.9292   1
  -4   2 -11 149.760 15.2929   1
   4   2  11 176.849 12.6451   3
  -5  -2 -11 1056.59 70.6094   1
   5  -2  11 983.232 64.7393   3
  -5  -2 -11 1121.38 64.0966   2
   5   2  11 1087.82 64.3631   3
  -6  -2 -11 5.62542 2.54172   2
   6  -2  11 4.53446 3.57400   3
  -6   2 -11 3.59608 2.60515   2
   6   2  11 4.39768 2.84199   3
  -7  -2 -11 506.402 31.6410   2
   7  -2  11 499.180 32.7302   3
   7   2  11 492.505 32.0525   3
  -7   2 -11 517.945 31.6360   2
  -8  -2 -11 140.472 11.5922   2
   8  -2  11 169.546 13.9351   3
  -8   2 -11 148.165 11.4758   2
   8   2  11 120.112 12.3493   3
  -9  -2 -11 0.26806 3.31558   2
   9  -2  11 3.52095 4.77664   3
  -9   2 -11 3.19607 3.32437   2
   9   2  11 -2.7959 3.89312   3
 -10  -3  11 122.042 12.9056   2
 -10   3  11 129.904 14.1742   2
 -10   3  11 109.829 11.1100   3
  -9  -3  11 5.95355 4.48489   2
  -9   3  11 4.69258 3.86995   2
  -9   3  11 0.37633 3.26357   3
  -8  -3  11 273.615 18.9744   2
  -8   3  11 244.912 17.8447   3
  -8   3  11 272.640 18.4361   2
  -7  -3  11 184.786 13.7054   2
   7   3 -11 175.984 30.3464   1
  -7   3  11 178.239 12.8741   2
  -7   3  11 161.123 12.4417   3
  -6  -3  11 2.31973 2.86540   2
  -6  -3  11 0.61629 14.6696   1
   6  -3 -11 -0.4814 20.2609   1
  -6   3  11 8.92634 13.2189   1
   6   3 -11 -15.134 17.1472   1
  -6   3  11 4.63461 2.37889   2
  -6   3  11 3.48649 2.20657   3
  -5  -3  11 528.779 43.6352   1
   5  -3 -11 475.792 31.9793   2
   5  -3 -11 408.569 53.3712   1
  -5  -3  11 571.285 32.7289   2
  -5   3  11 557.463 32.1796   2
  -5   3  11 521.728 40.9074   1
  -5   3  11 527.408 32.1792   3
  -4  -3  11 397.837 31.9096   1
  -4  -3  11 377.312 22.4257   2
   4  -3 -11 262.447 39.8510   1
   4  -3 -11 335.054 21.8377   2
  -4   3  11 355.783 21.9238   2
   4   3 -11 344.112 35.2459   1
  -4   3  11 365.245 22.0914   3
  -4   3  11 334.715 29.1877   1
   3  -3 -11 5.97216 1.91767   2
  -3  -3  11 18.6518 7.68102   1
   3  -3 -11 5.81931 1.98912   3
  -3   3  11 -4.5279 6.48740   1
   3   3 -11 5.36890 11.2208   1
  -3   3  11 3.67105 1.77758   3
  -3   3  11 7.29478 1.86346   2
   2  -3 -11 699.156 40.9771   3
   2  -3 -11 693.759 40.8888   2
  -2  -3  11 728.456 44.8172   1
   2  -3 -11 696.074 48.5259   1
  -2  -3  11 703.021 41.3042   2
  -2   3  11 653.046 45.2161   1
  -2   3  11 686.739 40.9570   2
  -2   3  11 686.615 41.1986   3
   2   3 -11 559.987 48.2471   1
   1  -3 -11 214.717 18.7520   1
   1  -3 -11 230.637 19.4398   1
   1  -3 -11 204.091 13.3757   3
  -1  -3  11 212.330 16.2249   1
   1  -3 -11 210.525 13.1983   2
  -1  -3  11 202.509 13.5621   2
   1   3 -11 206.474 12.6466   3
  -1   3  11 207.873 13.5539   3
   0  -3  11 0.29697 1.89194   3
   0  -3 -11 5.00451 6.13091   1
   0  -3 -11 4.32537 1.73328   2
   0  -3  11 7.80527 1.93410   2
   0  -3 -11 -4.0980 5.94602   1
   0  -3 -11 2.76519 2.10047   3
   0  -3  11 4.34931 3.21930   1
   0   3  11 4.25392 1.93129   3
   0   3 -11 -2.1359 7.23709   1
  -1  -3 -11 525.976 33.3626   2
  -1  -3 -11 528.609 33.5679   3
  -1  -3 -11 576.018 38.3044   1
  -1  -3 -11 559.039 37.7454   1
  -1   3 -11 585.971 34.9223   1
  -1   3 -11 577.603 33.3014   3
   1   3  11 557.479 33.7539   3
  -1   3 -11 513.362 37.4449   1
  -2  -3 -11 115.308 13.8775   1
  -2  -3 -11 147.833 16.2474   1
  -2  -3 -11 117.432 8.54454   2
   2   3  11 113.688 8.53023   3
  -2   3 -11 121.713 13.2748   1
  -2   3 -11 111.167 8.45641   3
  -2   3 -11 125.235 9.65828   1
  -3  -3 -11 5.78535 6.20926   1
   3  -3  11 2.45414 2.84105   3
  -3  -3 -11 0.70827 7.56995   1
   3   3  11 5.28739 2.28622   3
  -3   3 -11 5.41849 4.98448   1
  -3   3 -11 4.58344 3.09128   1
  -3   3 -11 2.62446 2.80192   3
  -4  -3 -11 149.426 9.85318   2
  -4  -3 -11 132.965 15.6876   1
   4  -3  11 126.815 11.1735   3
  -4  -3 -11 140.148 19.3939   1
   4   3  11 134.312 9.89433   3
  -4   3 -11 114.202 12.1742   1
  -4   3 -11 136.586 11.5490   1
  -5  -3 -11 15.3480 13.8579   1
  -5  -3 -11 9.55533 2.90667   2
   5  -3  11 10.4043 4.14883   3
  -5   3 -11 6.64067 5.57230   1
   5   3  11 20.7505 3.50645   3
  -6  -3 -11 3.49528 2.51387   2
   6  -3  11 2.51536 3.72786   3
  -6   3 -11 -9.4711 6.87697   1
   6   3  11 4.99409 2.76184   3
  -6   3 -11 1.36476 2.39141   2
  -7  -3 -11 11.8145 3.46521   2
   7  -3  11 15.8586 5.26351   3
  -7   3 -11 13.8131 3.70114   2
   7   3  11 4.42321 3.66347   3
  -8  -3 -11 2.06450 3.51113   2
   8   3  11 -0.8791 3.96715   3
  -8   3 -11 1.30324 3.41761   2
  -9  -3 -11 -2.1491 3.74316   2
   9   3  11 -0.5395 4.18190   3
  -9   3 -11 1.86548 3.33543   2
 -10  -4  11 9.01816 5.70465   2
 -10   4  11 4.07621 5.31795   3
  -9  -4  11 4.91259 4.54621   2
  -9   4  11 10.0610 4.21283   2
  -9   4  11 11.4531 4.26775   3
  -8   4  11 -0.4015 3.29779   2
  -8   4  11 0.71502 3.50100   3
  -7  -4  11 24.7521 4.74188   2
  -7   4  11 15.6718 3.72050   3
  -6  -4  11 37.2588 6.01762   2
  -6   4  11 47.1184 5.52182   3
  -6   4  11 39.6216 5.03660   2
  -5  -4  11 20.0276 3.78067   2
   5  -4 -11 17.0029 3.39260   2
   5  -4 -11 15.0317 12.7966   1
  -5   4  11 29.7896 4.08408   2
  -5   4  11 21.4898 11.9434   1
  -5   4  11 33.4803 4.83319   3
   5   4 -11 21.2750 19.0401   1
   4  -4 -11 248.935 26.0917   1
   4  -4 -11 249.333 17.0611   2
  -4  -4  11 293.648 17.8103   2
  -4  -4  11 235.875 28.6719   1
  -4   4  11 285.622 17.6195   3
  -4   4  11 278.636 17.0443   2
   4   4 -11 284.783 33.8572   1
  -4   4  11 270.185 25.3600   1
   3  -4 -11 7.62097 2.02093   2
  -3  -4  11 6.22798 2.25149   2
   3  -4 -11 4.09433 2.87040   3
   3  -4 -11 5.70986 8.48782   1
  -3  -4  11 5.45405 7.66452   1
   3   4 -11 9.31958 12.6787   1
  -3   4  11 10.6814 2.32465   3
  -3   4  11 5.04983 7.45783   1
  -3   4  11 8.01807 1.71010   2
  -2  -4  11 235.933 19.4302   1
   2  -4 -11 228.411 15.1559   3
   2  -4 -11 198.795 29.8566   1
  -2  -4  11 240.170 15.1759   2
   2  -4 -11 233.944 14.5920   2
  -2   4  11 241.770 15.2294   3
   2   4 -11 224.740 26.3721   1
   1  -4 -11 345.345 22.2475   2
   1  -4 -11 355.138 23.9792   3
   1  -4 -11 355.917 28.5038   1
  -1  -4  11 352.873 24.9395   1
  -1  -4  11 353.534 22.6330   2
   1  -4 -11 377.497 28.4507   1
  -1   4  11 411.647 22.9415   3
   1   4 -11 372.317 21.7857   3
   0  -4 -11 13.5388 2.12991   2
   0  -4 -11 22.7765 7.65239   1
   0  -4  11 13.4497 2.38432   2
   0  -4  11 9.86599 3.53685   1
   0  -4 -11 8.46799 7.19088   1
   0   4  11 12.0233 2.39146   3
   0   4 -11 2.07600 8.21591   1
  -1  -4 -11 242.792 20.1640   1
  -1  -4 -11 225.864 20.7878   1
  -1  -4 -11 225.395 14.4523   2
  -1   4 -11 247.447 14.4595   3
  -1   4 -11 188.202 18.8894   1
   1   4  11 234.591 14.9308   3
  -2  -4 -11 845.701 54.5952   1
  -2  -4 -11 837.366 49.8874   2
  -2  -4 -11 873.370 55.8367   1
   2   4  11 865.279 50.3475   3
  -2   4 -11 711.209 50.1583   1
  -2   4 -11 866.328 50.0676   3
  -2   4 -11 831.423 49.7002   1
  -3  -4 -11 -4.8241 6.70001   1
  -3  -4 -11 0.00346 1.99849   2
  -3  -4 -11 8.61095 9.26455   1
   3   4  11 -0.3557 2.11077   3
  -4  -4 -11 664.888 49.0815   1
  -4  -4 -11 698.916 41.4283   2
   4   4  11 669.823 41.6280   3
  -5  -4 -11 359.637 22.6929   2
   5   4  11 351.054 22.8562   3
  -6  -4 -11 -0.2558 2.75375   2
   6   4  11 -0.8996 2.63574   3
  -6   4 -11 2.79997 2.66982   2
  -7  -4 -11 133.769 11.0923   2
  -7   4 -11 137.307 12.7466   2
   7   4  11 142.424 12.3229   3
  -8  -4 -11 303.213 21.0369   2
   8   4  11 299.585 21.3559   3
  -8   4 -11 328.705 20.8674   2
  -9  -4 -11 -1.9766 4.06922   2
   9   4  11 4.29039 4.37317   3
  -9   4 -11 -5.1741 3.14251   2
 -10  -5  11 14.4191 6.24950   2
 -10   5  11 21.6083 5.93942   3
 -10   5  11 18.4102 6.67684   2
  -9  -5  11 3.90119 4.55547   2
  -9   5  11 11.2560 4.88114   3
  -9   5  11 16.8641 4.61579   2
  -8  -5  11 70.7326 9.33157   2
  -8   5  11 58.6538 8.59233   3
  -8   5  11 52.2046 7.41114   2
  -7  -5  11 310.874 20.8970   2
  -7   5  11 286.572 20.4440   3
  -7   5  11 303.608 19.6245   2
  -6  -5  11 1.95503 3.10692   2
  -6   5  11 1.16786 2.88999   3
  -6   5  11 0.91296 2.10676   2
  -5  -5  11 627.584 37.6830   2
  -5   5  11 593.093 37.6149   3
  -5   5  11 599.679 36.7715   2
   4  -5 -11 29.6519 4.70915   2
  -4  -5  11 34.6241 5.45629   2
   4  -5 -11 31.5592 12.2382   1
  -4   5  11 36.5423 5.37627   3
  -4   5  11 44.5824 3.98983   2
  -3  -5  11 30.7153 4.25201   2
   3  -5 -11 29.2834 10.1925   1
   3  -5 -11 28.5540 3.73555   2
  -3   5  11 26.0395 3.62736   3
  -3   5  11 34.8353 3.24396   2
   3   5 -11 9.31914 13.4734   1
  -2  -5  11 119.250 16.4220   1
   2  -5 -11 127.871 17.7819   1
  -2  -5  11 100.632 8.20859   2
   2  -5 -11 114.290 17.5033   1
   2  -5 -11 104.664 7.40474   2
   2   5 -11 124.479 20.6425   1
  -2   5  11 108.144 8.48565   3
   1  -5 -11 293.575 29.7862   1
   1  -5 -11 346.251 27.8356   1
  -1  -5  11 323.588 20.3766   2
  -1  -5  11 300.851 22.7027   1
   1  -5 -11 344.608 19.8435   2
   1   5 -11 341.746 19.3552   3
  -1   5  11 330.279 20.5370   3
   1   5 -11 319.400 19.3307   3
   1   5 -11 295.876 26.3120   1
   0  -5  11 4.86124 1.99835   2
   0  -5 -11 -3.3061 9.30334   1
   0  -5  11 4.59817 3.23833   1
   0  -5 -11 7.35808 1.81507   2
   0  -5 -11 5.82313 8.21602   1
   0   5 -11 5.65593 5.14453   1
   0   5  11 8.78677 2.42810   3
  -1  -5 -11 602.358 43.5447   1
  -1  -5 -11 592.919 37.8252   2
  -1  -5 -11 622.259 44.2013   1
  -1   5 -11 687.510 38.0418   3
   1   5  11 637.060 38.5146   3
  -2  -5 -11 3.20035 8.21643   1
  -2  -5 -11 8.36714 2.40287   2
  -2  -5 -11 2.21698 2.32628   2
  -2  -5 -11 8.24536 9.79136   1
  -2   5 -11 3.34575 2.99993   3
   2   5  11 1.26090 2.46893   3
  -3  -5 -11 16.8122 2.80857   2
  -3  -5 -11 7.94538 8.87504   1
  -3  -5 -11 15.4025 11.0639   1
   3   5  11 8.92352 2.82946   3
  -4  -5 -11 20.7176 3.53857   2
  -4  -5 -11 -5.2466 13.1559   1
   4   5  11 16.0814 3.45201   3
  -5  -5 -11 24.4781 4.01549   2
  -6  -5 -11 2.30084 2.95629   2
   6   5  11 2.79046 3.26843   3
  -6   5 -11 5.09460 2.85009   2
  -7  -5 -11 9.35165 3.92132   2
   7   5  11 9.75016 3.98722   3
  -7   5 -11 9.84301 5.78342   2
  -8  -5 -11 -0.7753 3.94891   2
  -8   5 -11 5.95539 3.49703   2
   8   5  11 -2.3668 3.89502   3
   9   5  11 9.14454 4.45675   3
  -9  -6  11 -2.6340 4.61802   2
  -9   6  11 -1.9979 4.73298   3
  -9   6  11 0.25333 4.09617   2
  -8  -6  11 -3.4697 4.29243   2
  -8   6  11 2.83678 3.33530   2
  -7   6  11 2.83087 3.94097   3
  -7   6  11 1.62445 2.50776   2
  -6  -6  11 48.5477 6.86382   2
  -6   6  11 51.6996 4.99731   2
  -6   6  11 48.0099 6.81820   3
  -5  -6  11 5.99750 3.31771   2
  -5   6  11 9.23042 3.42465   3
  -5   6  11 5.07010 2.00043   2
   4  -6 -11 236.823 17.3442   2
  -4  -6  11 308.123 18.3084   2
  -4   6  11 289.720 18.5857   3
   3  -6 -11 1.39425 11.0955   1
  -3  -6  11 0.85367 2.10278   2
   3  -6 -11 2.35604 1.97155   2
  -3   6  11 4.31506 2.59654   3
  -2  -6  11 207.230 13.5307   2
   2  -6 -11 192.138 12.6248   2
   2  -6 -11 209.102 23.5161   1
   2  -6 -11 195.416 22.5702   1
  -2   6  11 205.150 13.7509   3
   1  -6 -11 4.42990 17.1490   1
  -1  -6  11 9.14022 2.76789   2
   1  -6 -11 9.51285 1.85855   2
   1  -6 -11 -0.5570 10.0823   1
  -1   6  11 5.10829 2.86596   3
   1   6 -11 5.79569 6.65697   1
   1   6 -11 8.29892 1.15839   3
   1   6 -11 7.19778 0.99049   3
   0  -6  11 17.6786 2.71426   2
   0  -6 -11 23.2059 10.8505   1
   0  -6 -11 15.9989 9.45702   1
   0  -6 -11 15.0371 2.17889   2
   0   6 -11 9.46736 3.31594   1
   0   6 -11 18.2565 2.38313   3
   0   6 -11 19.4112 2.97715   3
   0   6  11 13.6112 3.03134   3
  -1  -6 -11 16.7720 10.0551   1
  -1  -6 -11 10.8183 10.6607   1
  -1  -6 -11 13.6686 2.75432   2
  -1  -6 -11 15.7209 2.48523   2
   1   6  11 15.9545 3.31124   3
  -1   6 -11 17.1098 3.06565   3
  -2  -6 -11 845.255 59.6441   1
  -2  -6 -11 826.122 57.6636   1
  -2  -6 -11 809.295 51.5935   2
  -2  -6 -11 946.670 52.0917   2
   2   6  11 860.435 52.3956   3
  -2   6 -11 876.901 52.3334   3
  -3  -6 -11 5.40931 2.64055   2
  -3  -6 -11 8.27500 12.8424   1
   3   6  11 6.03961 2.65964   3
  -4  -6 -11 616.109 36.3418   2
  -4  -6 -11 530.520 48.2519   1
   4   6  11 592.270 36.5059   3
  -5  -6 -11 2.86027 3.26031   2
   5   6  11 6.52754 3.81546   3
  -6  -6 -11 -0.1666 3.37827   2
  -6   6 -11 0.69850 2.99858   2
   6   6  11 3.23011 3.34276   3
   7   6  11 5.66649 4.01167   3
  -7   6 -11 3.47255 3.60243   2
  -8  -6 -11 316.165 22.9302   2
  -8   6 -11 352.137 22.4737   2
   8   6  11 338.832 23.0096   3
  -9  -7  11 1.54794 5.87868   2
  -9   7  11 -6.0270 5.36589   3
  -8  -7  11 12.6361 5.64977   2
  -8   7  11 -5.3040 4.72059   3
  -7  -7  11 211.695 15.1549   2
  -7   7  11 188.959 12.6337   2
  -7   7  11 136.334 18.7857   3
  -6  -7  11 5.67512 3.92966   2
  -6   7  11 2.98812 2.00691   2
  -6   7  11 1.94362 3.83002   3
  -5  -7  11 418.908 26.5388   2
  -5   7  11 402.591 27.0146   3
  -4  -7  11 11.9036 3.35823   2
  -4   7  11 11.6157 3.79900   3
   3  -7 -11 11.5880 2.56978   2
  -3  -7  11 12.0245 3.01228   2
   3  -7 -11 3.86783 14.2367   1
  -3   7  11 19.8024 3.71166   3
   2  -7 -11 14.9421 2.26015   2
   2  -7 -11 -4.7240 13.2605   1
  -2  -7  11 13.3189 3.03304   2
  -2   7  11 12.6793 3.39486   3
  -1  -7  11 189.020 13.2104   2
   1  -7 -11 188.645 24.8785   1
  -1   7  11 203.341 13.7475   3
   1   7 -11 213.690 12.1131   3
   1   7 -11 189.352 11.9721   3
   0  -7 -11 22.1283 11.3339   1
   0  -7  11 24.1080 3.96900   2
   0  -7 -11 20.1015 3.13065   2
   0  -7 -11 25.1087 4.05996   2
   0   7 -11 23.2569 2.78471   3
   0   7  11 25.2774 3.74880   3
   0   7 -11 27.3600 4.13322   3
  -1  -7 -11 313.879 31.3126   1
  -1  -7 -11 331.306 21.3754   2
  -1  -7 -11 388.966 21.9534   2
  -1   7 -11 368.089 22.2598   3
   1   7  11 346.615 22.5268   3
  -1   7 -11 330.970 21.4445   3
  -2  -7 -11 10.8392 2.96790   2
  -2   7 -11 1.92904 6.20798   3
   2   7  11 10.9648 3.31575   3
  -3  -7 -11 24.5333 3.85176   2
   3   7  11 17.8368 3.60687   3
  -4  -7 -11 10.8214 3.66482   2
   4   7  11 7.49660 3.58350   3
  -5  -7 -11 19.8576 4.41574   2
   5   7  11 10.2911 4.03786   3
  -6  -7 -11 3.79957 4.18636   2
   6   7  11 3.38817 3.64216   3
  -7  -7 -11 4.05100 5.81505   2
   7   7  11 5.78776 4.09845   3
  -7   7 -11 -0.5621 3.66818   2
  -8  -8  11 3.99388 4.92611   2
  -8   8  11 0.23784 5.43545   3
  -7  -8  11 3.12344 4.84996   2
  -7   8  11 4.88512 5.09343   3
  -6  -8  11 46.7818 7.55015   2
  -6   8  11 56.7727 8.96647   3
  -5  -8  11 6.69717 3.74233   2
  -4  -8  11 135.413 10.5664   2
  -4   8  11 135.270 11.7216   3
  -3  -8  11 15.9777 3.23514   2
  -3   8  11 21.4235 4.25653   3
  -2  -8  11 141.274 10.6901   2
  -2   8  11 156.198 11.8165   3
  -1  -8  11 29.2474 4.93262   2
  -1   8  11 46.8716 5.89780   3
   1   8 -11 28.9214 2.98719   3
   0  -8 -11 32.3420 15.3028   1
   0  -8 -11 14.8682 2.68519   2
   0   8  11 21.3995 3.78093   3
   0   8 -11 21.5812 2.88202   3
  -1  -8 -11 26.9454 3.71109   2
  -1   8 -11 29.8499 4.00292   3
   1   8  11 30.2575 4.50074   3
  -2  -8 -11 347.937 24.6949   2
   2   8  11 415.292 25.5575   3
  -2   8 -11 419.991 24.6291   3
  -3  -8 -11 -0.6138 3.40478   2
  -4  -8 -11 228.582 17.1863   2
   4   8  11 264.209 17.3418   3
  -5  -8 -11 47.8878 6.54170   2
   5   8  11 50.0295 7.58719   3
  -5   8 -11 54.3725 7.01299   2
  -6  -8 -11 3.64091 4.85596   2
  -6   8 -11 3.17161 3.42889   2
   6   8  11 1.02901 3.85992   3
  -7  -9  11 77.8729 10.5365   2
  -7   9  11 89.0010 12.4465   3
  -6  -9  11 1.08040 3.87538   2
  -6   9  11 2.32804 5.20891   3
  -5  -9  11 100.928 9.80857   2
  -5   9  11 103.526 11.5702   3
  -4  -9  11 40.5629 6.60905   2
  -4   9  11 36.6178 6.06545   3
  -3  -9  11 15.0308 3.47116   2
  -3   9  11 23.4721 4.93287   3
  -2  -9  11 138.726 10.3568   2
  -2   9  11 135.326 11.8039   3
  -1  -9  11 107.551 8.24611   2
  -1   9  11 85.8515 11.8065   3
   0   9  11 17.3447 4.42436   3
   0   9 -11 16.6607 2.23823   3
   1   9  11 57.6577 7.16793   3
  -1   9 -11 63.5124 5.60456   3
  -2   9 -11 10.0872 2.88784   3
   2   9  11 10.6322 3.85577   3
  -3   9 -11 20.1239 3.72847   3
   3   9  11 15.7465 4.09494   3
  -4   9 -11 39.2535 5.59248   3
   4   9  11 42.7528 5.76732   3
  -5  -9 -11 0.23520 7.68572   2
  -5   9 -11 6.04607 4.37249   2
   5   9  11 -3.7650 3.85399   3
  -5 -10  11 -1.8650 4.17278   2
  -5  10  11 2.59323 5.41847   3
  -4 -10  11 26.3403 4.49614   2
  -4  10  11 26.6489 6.25635   3
  -3 -10  11 15.5757 5.92225   2
  -3  10  11 25.3168 5.36378   3
  -2 -10  11 36.7528 4.72122   2
  -2  10  11 37.9254 6.06296   3
  -1  10  11 104.103 9.83109   3
   0  10 -11 11.3788 3.75494   3
   0  10  11 4.41869 3.93991   3
  -1  10 -11 76.8164 6.69003   3
   1  10  11 75.1156 8.90286   3
  -2  10 -11 97.8209 8.54900   3
   2  10  11 107.975 10.1524   3
   3  10  11 1.69805 3.93376   3
  -3  10 -11 2.76585 3.64463   3
  -4  10 -11 48.3997 7.14913   3
   4  10  11 55.9624 7.91513   3
  -3  11  11 4.53785 5.08645   3
  -2  11  11 130.857 12.7301   3
  -1  11  11 4.76064 4.46701   3
   0  11  11 19.8076 4.86999   3
   1  11  11 12.4960 4.88496   3
 -10   0  12 -2.8952 4.53639   2
  -9   0  12 -3.9211 2.19392   3
  -8   0  12 41.8437 5.95339   2
  -8   0  12 33.8100 4.37119   3
  -7   0  12 1.22351 1.73259   3
  -7   0  12 3.71178 3.47602   2
  -7   0  12 -15.691 17.3202   1
  -7   0  12 3.28750 2.68240   3
   7   0 -12 18.0827 19.4304   1
  -6   0  12 136.070 9.69567   2
   6   0 -12 77.8344 19.9939   1
  -6   0  12 99.1041 18.7930   1
   5   0 -12 -7.3670 13.2126   1
  -5   0  12 4.64850 11.0754   1
  -4   0  12 58.3643 5.65029   2
  -4   0  12 54.5943 10.8115   1
   4   0 -12 43.6928 13.0844   1
  -3   0  12 2.32703 1.70236   3
  -3   0  12 7.83351 2.27531   2
   3   0 -12 -6.8784 8.59358   1
  -3   0  12 3.33682 6.65899   1
   2   0 -12 261.434 16.1412   3
  -2   0  12 269.626 16.4655   3
   2   0 -12 249.491 23.0350   1
  -2   0  12 249.714 21.2058   1
  -2   0  12 281.822 16.8901   2
   1   0 -12 4.43312 3.23788   2
   1   0 -12 4.46044 1.45357   3
  -1   0  12 5.19648 1.93784   2
  -1   0  12 -1.0447 4.51076   1
  -1   0  12 4.86501 1.70883   3
   1   0 -12 7.99579 6.81197   1
   0   0 -12 74.9452 5.73698   3
   0   0  12 85.9313 6.19365   3
   0   0 -12 81.9963 12.6334   1
   0   0 -12 75.4207 11.5208   1
  -1   0 -12 2.11952 1.86401   3
  -1   0 -12 9.13592 6.32462   1
  -1   0 -12 3.48932 5.08861   1
   1   0  12 1.44720 2.09663   3
  -2   0 -12 551.076 35.6399   1
   2   0  12 538.721 32.8808   3
  -2   0 -12 530.624 36.0733   1
  -2   0 -12 519.306 32.5038   3
   3   0  12 5.97986 2.52729   3
  -3   0 -12 2.23693 6.43715   1
  -3   0 -12 3.21182 5.07192   1
  -4   0 -12 883.797 59.3292   1
  -4   0 -12 946.916 58.1906   1
   4   0  12 909.739 55.6061   3
   5   0  12 -3.5583 2.92876   3
  -5   0 -12 0.33790 2.62778   2
   6   0  12 2.41252 3.24287   3
  -6   0 -12 8.13856 2.95187   2
   7   0  12 6.78829 4.27591   3
  -7   0 -12 0.25085 3.84863   2
  -8   0 -12 410.612 25.5102   2
   8   0  12 372.313 26.2501   3
   9   0  12 -2.2494 4.34904   3
  -9   0 -12 -0.3235 3.31756   2
 -10  -1  12 15.9124 5.47458   2
 -10   1  12 21.4166 6.27962   3
 -10   1  12 25.2229 5.94995   2
  -9  -1  12 1.17011 4.21916   2
  -9   1  12 3.42478 4.99077   2
  -9   1  12 1.55175 2.70153   3
  -8  -1  12 19.6184 5.18545   2
  -8  -1  12 24.4686 3.57640   3
  -8   1  12 25.5067 5.06923   2
  -8   1  12 15.8414 3.07307   3
  -7  -1  12 192.148 36.7297   1
  -7  -1  12 229.710 14.7792   3
  -7  -1  12 275.002 14.8708   3
  -7  -1  12 265.513 17.3334   2
   7  -1 -12 211.206 40.9982   1
  -7   1  12 224.682 15.7217   3
  -7   1  12 246.039 17.1586   2
  -7   1  12 267.006 36.8181   1
  -6  -1  12 7.90310 3.11332   2
   6  -1 -12 -0.0238 15.8030   1
  -6  -1  12 17.0220 14.6463   1
  -6   1  12 9.51464 2.11414   3
  -6   1  12 8.15693 2.23923   3
  -6   1  12 7.89082 2.98625   2
  -6   1  12 -4.5903 13.5170   1
   6   1 -12 29.0841 17.2193   1
  -5  -1  12 1501.25 91.2595   3
  -5  -1  12 1569.94 92.6537   2
  -5  -1  12 1752.83 91.3004   3
  -5  -1  12 1558.71 101.004   1
   5  -1 -12 1377.84 99.3135   1
  -5   1  12 1456.89 100.106   1
  -5   1  12 1586.85 92.5300   2
  -5   1  12 1515.09 91.8888   3
  -4  -1  12 67.6099 6.20183   2
  -4  -1  12 64.3689 11.7522   1
   4  -1 -12 43.9369 12.7085   1
  -4  -1  12 61.8673 4.40945   3
   4   1 -12 54.8892 13.9430   1
  -4   1  12 67.1462 6.05494   2
  -4   1  12 63.6412 11.8218   1
  -4   1  12 67.7767 5.25007   3
  -3  -1  12 6.02435 2.29354   2
   3  -1 -12 9.71914 8.99115   1
  -3  -1  12 5.91444 6.93336   1
  -3   1  12 14.9721 7.27569   1
  -3   1  12 6.95422 1.74692   3
   3   1 -12 14.2445 9.93155   1
  -3   1  12 6.48013 2.20121   2
   2  -1 -12 109.765 16.5848   1
  -2  -1  12 131.959 9.06650   2
   2  -1 -12 120.622 8.84194   2
  -2  -1  12 121.488 13.6163   1
  -2  -1  12 122.176 8.46644   3
   2  -1 -12 127.236 8.29956   3
   2   1 -12 131.323 7.94468   3
  -2   1  12 135.896 8.68182   3
   2   1 -12 104.211 17.4150   1
  -2   1  12 125.477 8.85275   2
  -2   1  12 129.619 14.6594   1
  -1  -1  12 547.927 35.3275   1
   1  -1 -12 498.624 31.9269   2
  -1  -1  12 518.606 32.1102   2
   1  -1 -12 523.495 31.7338   3
  -1  -1  12 546.715 32.0327   3
   1  -1 -12 550.487 36.8857   1
  -1   1  12 535.790 32.0237   3
  -1   1  12 522.750 32.0292   2
  -1   1  12 503.211 35.4914   1
   1   1 -12 530.655 31.5434   3
   1   1 -12 527.556 37.3087   1
   0  -1  12 2.64416 1.77547   2
   0  -1 -12 0.33803 5.95274   1
   0  -1 -12 -4.1940 1.90319   2
   0  -1 -12 4.34590 5.76656   1
   0  -1 -12 3.95835 1.74707   3
   0  -1  12 -1.1862 1.62353   3
   0   1 -12 4.05653 6.00876   1
   0   1  12 -1.6606 1.59451   3
   0   1 -12 0.65954 1.37733   3
  -1  -1 -12 1827.76 111.200   3
  -1  -1 -12 1945.60 114.791   1
   1  -1  12 1824.55 111.605   3
  -1  -1 -12 1831.40 114.671   1
   1   1  12 1898.13 111.502   3
  -1   1 -12 1863.44 111.100   3
  -1   1 -12 2002.96 113.971   1
  -1   1 -12 1793.69 114.223   1
  -2  -1 -12 5.41293 5.73841   1
  -2  -1 -12 9.82346 6.86894   1
   2  -1  12 10.6893 2.95212   3
  -2  -1 -12 9.68639 2.92426   3
  -2   1 -12 11.5620 5.79107   1
   2   1  12 10.0852 2.55489   3
  -2   1 -12 11.1061 2.56465   3
  -2   1 -12 10.1449 4.87217   1
   3  -1  12 19.3219 3.47901   3
  -3  -1 -12 21.4596 6.74355   1
  -3  -1 -12 20.5389 7.36950   1
  -3   1 -12 16.6351 6.23004   1
   3   1  12 16.5507 2.92973   3
  -3   1 -12 20.7489 5.46850   1
   4  -1  12 102.347 8.70576   3
  -4  -1 -12 81.5296 15.5029   1
   4   1  12 92.0547 8.26877   3
  -4   1 -12 84.3924 15.1416   1
  -4   1 -12 97.3540 12.0234   1
  -5  -1 -12 184.429 12.2205   2
   5  -1  12 167.500 12.8984   3
   5   1  12 163.304 12.5064   3
  -6  -1 -12 3.30992 2.63631   2
   6  -1  12 2.70409 3.33293   3
  -6   1 -12 5.00826 2.82545   2
   6   1  12 5.17852 3.28687   3
   7  -1  12 138.235 12.8156   3
  -7  -1 -12 166.883 12.9137   2
  -7   1 -12 150.267 13.4180   2
   7   1  12 150.467 12.4023   3
   8  -1  12 -4.5925 4.23652   3
  -8  -1 -12 1.89069 3.45166   2
  -8   1 -12 -5.1656 3.09994   2
   8   1  12 -1.6367 4.07978   3
  -9  -1 -12 0.63523 3.50346   2
   9  -1  12 2.83134 5.21397   3
   9   1  12 -0.7849 4.41769   3
  -9   1 -12 0.59902 3.47475   2
 -10  -2  12 10.2174 5.21661   2
 -10   2  12 0.42673 3.80131   3
 -10   2  12 0.63859 4.74242   2
  -9  -2  12 18.9804 4.96403   2
  -9   2  12 12.4741 3.55490   3
  -9   2  12 14.7059 4.51748   2
  -8  -2  12 24.7506 5.36525   2
  -8   2  12 27.9488 4.95220   2
  -8   2  12 25.0303 3.87429   3
  -7  -2  12 2.80790 3.49936   2
   7   2 -12 12.9808 24.3303   1
  -7   2  12 4.52291 2.41448   3
  -7   2  12 7.11648 3.48358   2
   6  -2 -12 76.8198 18.9159   1
  -6  -2  12 70.1279 7.05624   2
  -6  -2  12 58.4642 18.4226   1
   6   2 -12 34.5925 18.9430   1
  -6   2  12 74.7008 16.7167   1
  -6   2  12 65.8063 5.95181   3
  -6   2  12 69.3586 6.73948   2
   5  -2 -12 13.5261 13.1882   1
  -5  -2  12 -1.2352 11.8372   1
  -5  -2  12 6.88960 3.16368   2
   5   2 -12 10.1802 15.8762   1
  -5   2  12 8.16918 2.88710   2
  -5   2  12 -4.9053 10.8990   1
  -5   2  12 5.39700 2.17779   3
  -4  -2  12 85.3915 7.12326   2
   4  -2 -12 61.6018 13.5846   1
  -4  -2  12 88.8652 14.5124   1
  -4   2  12 80.0019 13.1591   1
  -4   2  12 89.8286 6.96856   2
  -4   2  12 93.3506 6.74520   3
   4   2 -12 90.9137 17.4740   1
   3  -2 -12 7.65664 1.84157   3
  -3  -2  12 7.53900 6.92009   1
  -3  -2  12 8.61262 2.45172   2
   3  -2 -12 3.58051 2.35752   2
   3  -2 -12 3.00671 8.94567   1
   3   2 -12 -1.8444 10.5969   1
  -3   2  12 8.26389 2.06283   2
  -3   2  12 8.19132 2.01096   3
  -3   2  12 7.01379 7.04331   1
   2  -2 -12 91.9337 15.0221   1
   2  -2 -12 100.287 7.09123   3
  -2  -2  12 105.894 7.67893   2
   2  -2 -12 102.460 7.42332   2
  -2  -2  12 94.3590 6.65571   3
  -2  -2  12 106.598 13.2095   1
  -2   2  12 106.705 7.39532   3
   2   2 -12 105.319 6.27295   3
  -2   2  12 107.493 7.39834   2
  -2   2  12 87.2733 13.6248   1
   2   2 -12 68.7744 13.3719   1
   1  -2 -12 137.568 9.80945   2
  -1  -2  12 148.720 10.0416   2
  -1  -2  12 149.543 13.5260   1
  -1  -2  12 129.981 9.80387   3
   1  -2 -12 146.710 9.71634   3
   1  -2 -12 127.236 16.1996   1
  -1   2  12 170.048 10.0469   3
  -1   2  12 144.432 9.75696   2
   1   2 -12 149.830 9.13139   3
   1   2 -12 161.520 18.2925   1
   0  -2 -12 20.1237 2.57864   3
   0  -2 -12 8.23785 6.92890   1
   0  -2  12 15.1769 2.68165   3
   0  -2  12 14.6649 2.46411   2
   0  -2 -12 12.3192 2.41540   2
   0  -2 -12 24.5325 7.38931   1
   0   2 -12 8.88024 7.37254   1
   0   2 -12 14.5977 2.35154   3
   0   2  12 17.8144 2.54744   3
  -1  -2 -12 50.4464 5.18892   3
  -1  -2 -12 44.5314 8.98015   1
   1  -2  12 49.8610 5.64056   3
  -1  -2 -12 57.3534 6.00932   2
  -1  -2 -12 45.0634 8.14480   1
  -1   2 -12 43.8790 6.61114   1
  -1   2 -12 31.5942 7.80186   1
  -1   2 -12 57.4202 4.64270   3
   1   2  12 60.0985 5.18024   3
  -2  -2 -12 514.517 34.3964   1
   2  -2  12 439.112 30.4558   3
  -2  -2 -12 472.299 34.8337   1
  -2   2 -12 472.613 33.0703   1
  -2   2 -12 532.211 31.9672   1
  -2   2 -12 496.385 29.8313   3
   2   2  12 495.836 30.1776   3
   3  -2  12 4.70741 2.98962   3
  -3  -2 -12 3.63127 7.00155   1
  -3  -2 -12 10.5664 7.96117   1
  -3   2 -12 9.39169 5.84694   1
  -3   2 -12 9.12905 4.34585   1
   3   2  12 7.30876 2.51470   3
  -4  -2 -12 587.087 42.9773   1
   4  -2  12 565.469 37.4724   3
   4   2  12 637.914 37.0488   3
  -5  -2 -12 149.347 10.2151   2
   5  -2  12 111.028 10.8400   3
   5   2  12 139.504 10.6037   3
  -5   2 -12 132.420 14.5797   1
  -6  -2 -12 2.60091 2.91061   2
   6  -2  12 1.49922 3.67208   3
   6   2  12 4.93995 3.03995   3
  -6   2 -12 0.73534 2.61952   2
  -7  -2 -12 127.516 12.5742   2
   7  -2  12 106.130 11.4495   3
  -8  -2 -12 283.320 19.9588   2
   8  -2  12 323.393 21.7997   3
  -8   2 -12 304.164 20.0561   2
   8   2  12 270.164 20.3091   3
  -9  -2 -12 3.75592 4.06706   2
   9  -2  12 2.47805 5.08034   3
  -9   2 -12 6.58123 3.79547   2
   9   2  12 -4.5206 4.35084   3
 -10  -3  12 69.0917 10.8309   2
 -10   3  12 55.5882 8.82126   3
 -10   3  12 64.6371 9.89967   2
  -9  -3  12 1.49503 4.67524   2
  -9   3  12 -2.3179 3.85224   2
  -9   3  12 1.95892 3.49452   3
  -8   3  12 170.004 13.7427   3
  -8   3  12 214.444 14.6757   2
  -7  -3  12 195.432 13.6863   2
  -7   3  12 165.807 12.7017   2
  -7   3  12 151.723 12.1348   3
  -6  -3  12 6.92657 3.43207   2
  -6   3  12 4.95370 2.57012   3
  -6   3  12 5.86916 15.0602   1
  -6   3  12 5.04688 2.71091   2
  -5  -3  12 643.467 37.5422   2
   5  -3 -12 538.953 47.0342   1
  -5   3  12 576.879 36.8912   3
  -5   3  12 557.409 46.3765   1
  -5   3  12 633.340 36.9890   2
   5   3 -12 658.275 54.2701   1
   4  -3 -12 202.919 14.2138   2
  -4  -3  12 233.398 14.7056   2
   4  -3 -12 208.021 24.9910   1
  -4  -3  12 197.309 24.8919   1
  -4   3  12 199.658 23.1021   1
   4   3 -12 173.894 30.4171   1
  -4   3  12 220.832 14.1290   2
  -4   3  12 235.163 14.3087   3
   3  -3 -12 10.2482 2.29332   3
  -3  -3  12 10.4209 2.65582   2
   3  -3 -12 22.3186 9.71805   1
   3  -3 -12 6.13539 2.39952   2
  -3  -3  12 -6.7102 7.73305   1
  -3   3  12 8.20796 7.81734   1
  -3   3  12 6.70152 2.13394   3
  -3   3  12 6.46101 2.00845   2
   3   3 -12 17.8933 12.7613   1
  -2  -3  12 799.270 51.9737   1
   2  -3 -12 812.583 53.8060   1
   2  -3 -12 791.355 48.0631   2
  -2  -3  12 798.876 48.4474   2
   2  -3 -12 815.718 48.1326   3
  -2   3  12 784.310 53.0341   1
  -2   3  12 784.089 48.1377   2
  -2   3  12 828.039 48.4335   3
   1  -3 -12 281.328 23.9208   1
   1  -3 -12 290.549 24.2134   1
   1  -3 -12 264.804 17.7625   3
   1  -3 -12 278.351 17.6732   2
  -1  -3  12 295.794 18.0238   2
  -1  -3  12 300.657 21.1720   1
   1   3 -12 295.008 17.0713   3
   1   3 -12 214.350 26.5798   1
  -1   3  12 303.842 18.0835   3
   0  -3 -12 23.7391 8.43493   1
   0  -3 -12 32.8535 4.05043   2
   0  -3 -12 38.2294 8.77923   1
   0  -3  12 37.7815 4.14554   2
   0  -3 -12 29.1199 4.81265   3
   0  -3  12 35.3461 4.20615   3
   0   3  12 32.8209 4.17270   3
   0   3 -12 26.6302 9.35735   1
   0   3 -12 40.7039 3.21373   3
  -1  -3 -12 843.447 55.0532   1
  -1  -3 -12 822.011 50.6140   2
  -1  -3 -12 892.146 56.0218   1
  -1   3 -12 870.759 50.4553   3
   1   3  12 850.128 50.9745   3
  -1   3 -12 744.203 54.7524   1
  -1   3 -12 879.842 52.3701   1
   2  -3  12 148.075 12.7753   3
  -2  -3 -12 181.184 19.5346   1
  -2  -3 -12 188.266 17.8041   1
   2   3  12 196.000 12.5238   3
  -2   3 -12 184.639 17.2728   1
  -2   3 -12 192.261 17.9952   1
  -2   3 -12 188.141 12.1401   3
  -3  -3 -12 3.98976 7.29491   1
   3  -3  12 2.27052 3.07020   3
  -3  -3 -12 9.78817 9.04202   1
  -3   3 -12 -0.9011 6.16487   1
   3   3  12 7.09445 2.57181   3
  -3   3 -12 6.03102 3.72412   1
  -4  -3 -12 309.785 18.4597   2
  -4  -3 -12 241.860 27.4284   1
   4  -3  12 266.360 19.5940   3
   4   3  12 292.959 18.7143   3
  -4   3 -12 281.574 19.8399   1
   5  -3  12 57.1023 8.35305   3
  -5  -3 -12 78.3810 6.95795   2
   5   3  12 73.8143 7.27541   3
  -5   3 -12 58.8203 11.4530   1
   6  -3  12 8.24057 4.52895   3
  -6  -3 -12 16.3717 3.57742   2
   6   3  12 17.6170 3.81351   3
  -6   3 -12 20.2260 3.77659   2
   7  -3  12 57.4952 11.1010   3
  -7   3 -12 59.6330 7.27439   2
   7   3  12 60.1244 8.20025   3
  -8  -3 -12 14.9227 4.35770   2
   8   3  12 5.25553 4.28243   3
  -8   3 -12 20.1529 4.34264   2
  -9  -3 -12 0.15652 3.86585   2
  -9   3 -12 2.41093 3.98823   2
   9   3  12 4.06402 4.71698   3
 -10  -4  12 7.22935 5.90531   2
 -10   4  12 -2.5529 4.85012   2
  -9  -4  12 35.9412 6.30334   2
  -9   4  12 46.6680 6.16742   2
  -9   4  12 37.5831 5.74396   3
  -8  -4  12 5.82917 4.41519   2
  -8   4  12 -2.3634 3.51346   2
  -8   4  12 1.01188 3.60658   3
  -7  -4  12 9.40102 4.16201   2
  -7   4  12 7.75923 3.28352   2
  -7   4  12 3.05557 3.06208   3
  -6  -4  12 14.5093 3.82407   2
  -6   4  12 8.14742 2.98939   3
  -6   4  12 13.8299 2.99235   2
  -5  -4  12 -0.1622 2.89280   2
   5  -4 -12 -0.1856 20.9540   1
  -5   4  12 1.55301 2.15536   2
  -5   4  12 3.17403 2.75734   3
  -5   4  12 5.64033 11.8371   1
  -4  -4  12 37.7399 5.42232   2
   4  -4 -12 30.8854 4.99001   2
   4  -4 -12 50.0709 13.6378   1
  -4   4  12 25.7410 10.9801   1
  -4   4  12 42.6248 4.44316   2
   4   4 -12 45.9443 29.4748   1
  -4   4  12 45.0474 5.12891   3
  -3  -4  12 87.1831 6.84592   2
   3  -4 -12 71.0676 6.30138   2
   3  -4 -12 69.4169 13.1751   1
  -3   4  12 72.3576 12.2627   1
   3   4 -12 58.7725 17.9008   1
  -3   4  12 85.3698 6.79270   3
  -3   4  12 86.0611 6.09177   2
   2  -4 -12 23.7548 9.75820   1
  -2  -4  12 22.7358 8.94126   1
   2  -4 -12 24.7440 3.83771   2
  -2  -4  12 30.3840 3.84739   2
   2   4 -12 40.4869 13.7377   1
  -2   4  12 35.8878 4.54923   3
   1  -4 -12 157.316 19.1589   1
  -1  -4  12 144.980 14.3462   1
  -1  -4  12 161.704 10.9876   2
   1  -4 -12 161.676 19.4976   1
   1  -4 -12 152.004 10.4843   2
   1   4 -12 166.852 9.68934   3
  -1   4  12 165.577 11.1084   3
   0  -4  12 6.59137 2.30571   2
   0  -4 -12 7.75791 8.24952   1
   0  -4 -12 3.97244 2.12603   2
   0  -4 -12 9.55552 8.53669   1
   0   4 -12 -9.2614 9.29712   1
   0   4 -12 8.66877 1.65254   3
   0   4  12 6.62504 2.32380   3
  -1  -4 -12 290.693 18.9149   2
  -1  -4 -12 270.527 26.0870   1
  -1  -4 -12 324.043 25.9638   1
   1   4  12 310.731 19.4732   3
  -1   4 -12 300.381 20.1716   1
  -1   4 -12 315.551 18.7604   3
  -2  -4 -12 174.354 21.7678   1
  -2  -4 -12 179.086 19.5624   1
   2   4  12 175.808 12.1093   3
  -2   4 -12 178.968 11.9526   1
  -2   4 -12 140.557 14.4630   1
  -2   4 -12 196.318 12.0323   3
  -3  -4 -12 1.43728 2.14592   2
  -3  -4 -12 1.73385 10.3586   1
   3   4  12 2.48050 2.52800   3
  -4  -4 -12 190.105 12.6693   2
  -4  -4 -12 134.157 25.7003   1
   4   4  12 183.084 13.0291   3
  -5  -4 -12 315.460 20.2710   2
   5   4  12 306.771 20.6326   3
  -6  -4 -12 2.76248 2.88982   2
   6   4  12 -0.0009 3.57308   3
  -6   4 -12 1.25059 2.91031   2
   7   4  12 291.995 20.7004   3
  -7   4 -12 308.679 20.2266   2
  -8  -4 -12 93.1197 9.90012   2
  -8   4 -12 106.395 9.64686   2
   8   4  12 101.198 10.4716   3
  -9  -5  12 -3.9285 4.76753   2
  -9   5  12 -1.4849 4.26525   2
  -8  -5  12 256.110 19.0438   2
  -8   5  12 259.108 17.5240   2
  -8   5  12 233.856 18.1024   3
  -7   5  12 19.0007 3.64508   2
  -7   5  12 20.2439 4.31734   3
  -6  -5  12 10.9679 3.83655   2
  -6   5  12 11.8140 2.72670   2
  -6   5  12 7.67383 3.27178   3
  -5  -5  12 106.150 9.26852   2
  -5   5  12 106.226 8.00378   2
  -5   5  12 101.747 9.06718   3
  -4  -5  12 307.673 19.4751   2
   4  -5 -12 257.748 18.6401   2
  -4   5  12 293.887 29.8878   1
  -4   5  12 308.714 19.4378   3
  -4   5  12 312.138 18.5141   2
   3  -5 -12 1.92446 2.19661   2
  -3  -5  12 3.86445 2.64237   2
   3  -5 -12 12.4458 11.0299   1
  -3   5  12 0.92448 2.43956   3
   2  -5 -12 1055.68 64.0121   2
  -2  -5  12 1059.55 64.5781   2
   2  -5 -12 1124.13 71.4102   1
   2  -5 -12 1026.93 70.0771   1
  -2   5  12 1105.93 64.7894   3
   1  -5 -12 39.3353 4.31843   2
  -1  -5  12 45.8338 5.08519   2
   1  -5 -12 34.4861 10.9507   1
   1  -5 -12 56.6297 12.0048   1
   1   5 -12 38.8009 2.73951   3
   1   5 -12 42.6855 2.81686   3
   1   5 -12 31.3103 11.3424   1
  -1   5  12 43.3068 5.02960   3
   0  -5  12 45.1897 4.68026   2
   0  -5 -12 26.9653 10.8256   1
   0  -5 -12 38.3865 4.45754   2
   0   5 -12 45.9549 8.13859   1
   0   5  12 45.6843 5.20839   3
   0   5 -12 51.9314 5.16093   3
  -1  -5 -12 76.3390 6.63055   2
  -1  -5 -12 65.9270 13.5168   1
  -1   5 -12 90.2162 6.66724   3
   1   5  12 89.6787 7.40300   3
  -1   5 -12 81.6811 6.11932   1
  -2  -5 -12 250.130 26.0410   1
  -2  -5 -12 259.818 16.2498   2
   2   5  12 247.517 16.5856   3
  -2   5 -12 243.201 16.4309   3
  -3  -5 -12 -11.945 11.9035   1
  -3  -5 -12 3.19863 2.53885   2
   3   5  12 2.29983 2.70606   3
  -4  -5 -12 443.827 27.4939   2
   4   5  12 431.170 27.7415   3
  -5  -5 -12 20.3668 3.85543   2
   5   5  12 13.5347 3.94903   3
  -6  -5 -12 12.8640 3.89818   2
   6   5  12 16.2951 3.87736   3
  -7  -5 -12 -3.7230 3.70217   2
   7   5  12 -1.4568 3.65579   3
  -7   5 -12 4.45146 3.57607   2
  -8  -5 -12 15.4154 5.13842   2
   8   5  12 12.1597 5.02699   3
  -8   5 -12 17.9825 4.60330   2
  -9  -6  12 36.0737 6.88429   2
  -9   6  12 48.3177 7.24654   3
  -9   6  12 35.6140 5.90487   2
  -8  -6  12 -1.4348 4.60918   2
  -8   6  12 -0.9282 3.44276   2
  -8   6  12 3.95366 7.49814   3
  -7  -6  12 13.0470 4.63026   2
  -7   6  12 12.9358 4.51054   3
  -7   6  12 14.6585 3.36404   2
  -6  -6  12 4.71991 3.58659   2
  -6   6  12 1.31992 2.35364   2
  -6   6  12 0.23749 3.58363   3
  -5  -6  12 -2.4916 3.06472   2
  -5   6  12 2.41877 1.98320   2
  -5   6  12 6.40315 3.58844   3
  -4  -6  12 2.17049 3.03068   2
  -4   6  12 3.38705 3.07841   3
   3  -6 -12 50.7855 14.7378   1
   3  -6 -12 48.9658 5.35521   2
  -3  -6  12 66.1721 6.06580   2
  -3   6  12 56.2827 6.32744   3
   2  -6 -12 32.9339 12.6281   1
   2  -6 -12 22.6229 2.75040   2
  -2  -6  12 17.4717 3.33994   2
  -2   6  12 17.2459 3.64665   3
   1  -6 -12 233.843 14.8078   2
   1  -6 -12 242.152 25.9166   1
   1  -6 -12 230.647 25.8133   1
  -1  -6  12 238.752 15.5375   2
  -1   6  12 237.801 15.9065   3
   0  -6  12 10.5375 2.59796   2
   0  -6 -12 11.5883 10.7566   1
   0  -6 -12 11.4647 2.38170   2
   0  -6 -12 4.05452 11.6289   1
   0   6  12 6.00730 2.91245   3
   0   6 -12 6.93241 1.88032   3
   0   6 -12 8.85345 1.58875   3
  -1  -6 -12 188.767 13.9028   2
  -1  -6 -12 175.971 29.4321   1
  -1  -6 -12 241.246 27.9251   1
  -1  -6 -12 245.748 14.3547   2
  -1   6 -12 224.757 14.2053   3
   1   6  12 213.439 14.8683   3
  -2  -6 -12 15.4421 13.7095   1
  -2  -6 -12 -3.2612 3.06540   2
  -2  -6 -12 1.45314 2.56990   2
   2   6  12 -0.3735 2.86633   3
  -2   6 -12 -4.5972 3.77166   3
  -3  -6 -12 1.28576 2.58938   2
  -3  -6 -12 -17.477 14.6788   1
   3   6  12 1.54441 2.69748   3
  -4  -6 -12 12.5910 3.78331   2
   4   6  12 20.1021 4.12578   3
  -5  -6 -12 404.734 25.8524   2
   5   6  12 398.522 26.7998   3
  -6  -6 -12 3.60615 3.91425   2
  -6   6 -12 3.69249 3.33197   2
   6   6  12 5.65304 3.74538   3
  -7  -6 -12 245.986 18.2835   2
   7   6  12 242.717 18.1962   3
  -7   6 -12 270.805 17.7927   2
  -8  -7  12 161.635 14.2584   2
  -8   7  12 141.376 14.1468   3
  -7  -7  12 8.87734 5.12924   2
  -7   7  12 13.4513 5.36035   3
  -6  -7  12 12.2398 4.17849   2
  -6   7  12 8.00502 6.02061   3
  -5  -7  12 6.97718 4.14294   2
  -5   7  12 9.87175 4.32961   3
  -4  -7  12 287.203 18.6547   2
  -4   7  12 270.414 19.0627   3
   3  -7 -12 39.3482 24.5587   1
  -3   7  12 6.88894 3.42301   3
  -2  -7  12 577.421 34.4519   2
   2  -7 -12 506.474 44.8879   1
  -2   7  12 569.131 34.8796   3
  -1  -7  12 3.79050 2.69088   2
   1  -7 -12 0.86829 12.9121   1
  -1   7  12 3.62949 3.09040   3
   0  -7 -12 69.5914 6.00193   2
   0   7  12 64.9230 6.75532   3
   0   7 -12 59.0463 4.68880   3
   0   7 -12 65.0142 6.03704   3
  -1  -7 -12 33.2669 5.09978   2
  -1   7 -12 23.9026 3.74061   3
   1   7  12 27.9690 4.32568   3
  -2  -7 -12 234.604 15.6264   2
   2   7  12 230.783 15.9401   3
  -3  -7 -12 8.50862 3.39181   2
   3   7  12 9.89151 3.37946   3
  -4  -7 -12 193.877 14.3479   2
   4   7  12 199.456 14.5554   3
  -5  -7 -12 0.23105 3.90017   2
   5   7  12 -3.2909 3.62104   3
  -6  -7 -12 23.0253 5.23340   2
   6   7  12 18.7045 4.86616   3
  -6   7 -12 32.8669 4.80052   2
  -7  -7 -12 6.70540 5.14241   2
   7   7  12 8.13581 4.77229   3
  -7   7 -12 1.66498 3.98089   2
  -7  -8  12 6.07896 4.74733   2
  -7   8  12 6.20266 5.70965   3
  -6  -8  12 14.3761 4.53978   2
  -6   8  12 15.4493 5.39152   3
  -5  -8  12 1.16837 3.43893   2
  -5   8  12 -2.3352 4.19632   3
  -4  -8  12 6.91598 3.63251   2
  -3  -8  12 25.5734 4.10841   2
  -3   8  12 26.4677 5.38634   3
  -2  -8  12 2.52861 2.94275   2
  -2   8  12 1.30831 3.44344   3
  -1  -8  12 164.712 11.7272   2
  -1   8  12 165.812 12.6846   3
   0   8  12 4.15012 3.48985   3
   0   8 -12 4.11004 1.58221   3
  -1  -8 -12 79.6056 7.69912   2
  -1   8 -12 92.6841 6.67937   3
  -2  -8 -12 26.3042 4.28239   2
   2   8  12 30.6141 5.50627   3
  -2   8 -12 18.0171 3.23896   3
  -3  -8 -12 5.16252 3.82258   2
   3   8  12 1.77150 3.38323   3
  -4  -8 -12 28.1355 5.33316   2
   4   8  12 29.0859 5.14344   3
  -5  -8 -12 205.721 16.7291   2
   5   8  12 238.763 16.6038   3
  -6  -8 -12 1.05383 6.43399   2
   6   8  12 2.85568 4.28873   3
  -6   8 -12 3.74864 3.79428   2
  -6  -9  12 0.19736 4.56109   2
  -6   9  12 1.85675 5.64063   3
  -5  -9  12 76.7908 9.13719   2
  -5   9  12 87.3123 10.8423   3
  -4  -9  12 122.505 10.3841   2
  -4   9  12 116.686 11.5757   3
  -3  -9  12 4.46520 4.61756   2
  -3   9  12 2.08019 3.95881   3
  -2  -9  12 173.396 12.5381   2
  -2   9  12 173.987 13.9857   3
  -1   9  12 35.5726 5.34840   3
   0   9 -12 10.9062 2.13055   3
   0   9  12 10.3246 4.02812   3
   1   9  12 132.495 11.3117   3
  -1   9 -12 128.048 9.15273   3
  -2   9 -12 50.7772 6.12318   3
   2   9  12 60.7259 7.69616   3
   3   9  12 13.2884 4.27632   3
  -3   9 -12 19.1051 3.84878   3
  -4   9 -12 77.0533 9.15531   3
   4   9  12 58.5349 8.56690   3
  -5   9 -12 5.83910 4.01539   2
   5   9  12 12.3422 4.60556   3
  -4 -10  12 19.9470 4.51432   2
  -4  10  12 12.1391 5.45627   3
  -3 -10  12 8.01912 3.62158   2
  -3  10  12 10.5354 4.76261   3
  -2 -10  12 7.93540 4.11532   2
  -2  10  12 1.31439 4.17499   3
  -1  10  12 43.1550 6.32732   3
   0  10  12 13.2886 4.31874   3
   1  10  12 34.7213 5.83207   3
   2  10  12 100.000 10.0222   3
  -2  10 -12 86.0586 8.20318   3
  -3  10 -12 4.93747 3.81929   3
   3  10  12 1.49440 4.08501   3
 -10   0  13 0.01597 5.14468   2
  -9   0  13 175.582 14.6969   2
  -8   0  13 3.29141 2.18325   3
  -8   0  13 0.52227 4.03002   2
  -7   0  13 54.4384 29.9314   1
   7   0 -13 29.4949 22.8746   1
  -7   0  13 52.1621 7.38215   2
  -6   0  13 -3.0050 16.7309   1
   6   0 -13 4.67237 18.3955   1
  -6   0  13 1.16989 3.12212   2
   5   0 -13 32.7778 16.1042   1
  -5   0  13 17.4937 13.1184   1
  -5   0  13 11.6564 3.31297   2
  -4   0  13 -5.0088 9.65651   1
  -4   0  13 2.39620 2.36439   3
  -4   0  13 2.06781 2.38819   2
   4   0 -13 4.00570 12.5802   1
   3   0 -13 289.636 29.0114   1
  -3   0  13 321.664 19.0831   3
  -3   0  13 318.353 19.6416   2
  -3   0  13 286.785 26.3279   1
   2   0 -13 4.07168 9.09053   1
  -2   0  13 9.01513 6.42179   1
  -2   0  13 0.49830 1.64729   3
  -2   0  13 -1.2473 2.04575   2
   1   0 -13 25.8733 3.26979   3
  -1   0  13 35.9838 3.81870   3
   1   0 -13 17.6155 8.65638   1
  -1   0  13 28.0399 6.93596   1
  -1   0  13 35.2057 3.98387   2
   0   0 -13 9.36711 2.06725   3
   0   0 -13 2.33286 6.47722   1
   0   0 -13 8.87788 7.31006   1
   0   0  13 6.41829 2.21527   3
  -1   0 -13 122.609 8.72760   3
   1   0  13 138.036 9.31291   3
  -1   0 -13 98.5910 15.0216   1
  -1   0 -13 123.238 14.5179   1
  -2   0 -13 -0.2440 6.66459   1
  -2   0 -13 8.24604 6.20754   1
   2   0  13 2.15404 2.48076   3
  -3   0 -13 -6.7494 12.2993   1
   3   0  13 0.81759 2.54580   3
  -3   0 -13 0.78763 6.03096   1
   4   0  13 -2.0482 2.92575   3
   5   0  13 259.733 17.7526   3
   6   0  13 2.43335 3.42010   3
  -6   0 -13 1.17213 2.97895   2
   7   0  13 348.465 24.3379   3
  -7   0 -13 357.592 23.2788   2
   8   0  13 8.01341 4.82763   3
  -8   0 -13 9.64874 4.11885   2
  -9   0 -13 15.0673 4.36280   2
   9   0  13 21.1833 5.67396   3
 -10  -1  13 75.0959 10.9680   2
 -10   1  13 73.8178 10.8053   2
  -9  -1  13 0.33862 4.49918   2
  -9   1  13 -2.9082 2.81397   3
  -9   1  13 0.10368 4.61751   2
  -8  -1  13 348.462 25.5479   2
  -8   1  13 290.586 20.5447   3
  -8   1  13 354.318 22.7133   2
  -7  -1  13 8.94114 4.02045   2
  -7   1  13 6.77451 2.31135   3
  -7   1  13 8.56930 3.72633   2
  -7   1  13 0.05152 22.6494   1
  -6  -1  13 10.8340 3.59045   2
   6  -1 -13 5.44526 17.5830   1
   6   1 -13 2.75775 19.6129   1
  -6   1  13 -1.3099 15.3624   1
  -6   1  13 15.5780 2.45871   3
  -6   1  13 8.23044 2.42503   3
  -6   1  13 10.5209 3.31278   2
  -5  -1  13 111.192 9.19006   2
  -5  -1  13 68.9190 16.7160   1
   5  -1 -13 100.907 18.4710   1
  -5   1  13 110.753 8.83813   2
  -5   1  13 105.072 7.65774   3
  -5   1  13 96.3609 16.9738   1
   4  -1 -13 452.371 38.6646   1
  -4  -1  13 459.224 28.7664   2
  -4  -1  13 463.105 36.8017   1
  -4  -1  13 476.598 27.5708   3
  -4   1  13 458.302 28.5974   2
  -4   1  13 463.217 28.1359   3
  -4   1  13 443.909 36.7877   1
  -3  -1  13 1.88234 1.43178   3
  -3  -1  13 -6.1792 7.32070   1
   3  -1 -13 13.4107 10.8237   1
  -3  -1  13 3.38963 2.41846   2
  -3   1  13 -0.6594 7.71858   1
   3   1 -13 21.3518 11.4838   1
  -3   1  13 2.84022 2.15980   2
  -3   1  13 3.01599 1.74112   3
  -2  -1  13 1566.17 95.7484   1
   2  -1 -13 1553.20 91.1794   3
   2  -1 -13 1498.07 96.7098   1
  -2  -1  13 1596.56 91.7630   2
  -2   1  13 1611.81 91.5310   3
  -2   1  13 1510.19 95.9494   1
  -2   1  13 1572.48 91.6528   2
   2   1 -13 1430.07 91.2757   3
   2   1 -13 1479.69 97.3558   1
  -1  -1  13 6.15576 2.23057   2
  -1  -1  13 7.18081 5.70632   1
   1  -1 -13 5.13915 1.78290   3
  -1  -1  13 2.68071 2.00847   3
   1  -1 -13 13.5324 7.84782   1
   1   1 -13 -9.9301 8.17542   1
  -1   1  13 4.80002 1.94941   3
   1   1 -13 7.85240 1.49950   3
  -1   1  13 6.21310 2.18271   2
   0  -1 -13 158.824 17.7116   1
   0  -1  13 189.255 11.9754   3
   0  -1 -13 168.035 11.4875   3
   0  -1 -13 168.345 18.3980   1
   0   1  13 184.448 11.8310   3
   0   1 -13 185.570 16.8398   1
   0   1 -13 172.140 18.3542   1
   0   1 -13 173.745 11.2355   3
   1  -1  13 196.938 13.7172   3
  -1  -1 -13 200.293 19.7314   1
  -1  -1 -13 196.503 19.5495   1
  -1  -1 -13 192.380 13.2398   3
   1   1  13 206.038 13.5393   3
  -1   1 -13 222.071 17.6670   1
  -1   1 -13 209.549 12.9976   3
  -1   1 -13 185.533 18.7044   1
  -2  -1 -13 542.998 39.2146   1
  -2  -1 -13 633.411 39.1018   1
   2  -1  13 562.536 34.9580   3
  -2   1 -13 535.943 34.3491   3
  -2   1 -13 515.054 38.4145   1
  -2   1 -13 591.403 37.4074   1
   2   1  13 574.497 34.7412   3
  -3  -1 -13 -5.9138 8.41259   1
   3  -1  13 -0.2589 2.57875   3
   3   1  13 3.00544 2.52900   3
  -3   1 -13 3.62017 5.68310   1
   4  -1  13 914.927 57.4765   3
   4   1  13 964.972 57.2829   3
  -5  -1 -13 12.1415 3.34724   2
   5  -1  13 7.16457 4.09344   3
   5   1  13 7.80563 3.54628   3
  -6  -1 -13 45.4562 6.13056   2
   6  -1  13 38.1010 5.82693   3
   6   1  13 44.0863 6.57256   3
  -6   1 -13 53.6339 6.14058   2
  -7  -1 -13 24.0693 4.72334   2
   7  -1  13 23.9768 6.03263   3
  -7   1 -13 22.3912 4.86969   2
   7   1  13 30.2954 5.59285   3
   8  -1  13 86.3184 10.3547   3
  -8  -1 -13 73.7190 8.63846   2
   8   1  13 85.8669 9.91216   3
  -8   1 -13 83.2297 8.57265   2
  -9  -1 -13 4.07727 4.08695   2
   9  -1  13 12.5553 5.98413   3
  -9   1 -13 5.56712 3.96153   2
   9   1  13 14.4265 5.24661   3
 -10  -2  13 0.20605 5.36973   2
 -10   2  13 -1.6212 5.15656   2
  -9  -2  13 97.0127 10.1677   2
  -9   2  13 73.3528 11.8616   2
  -9   2  13 70.6701 8.04404   3
  -8  -2  13 33.0580 6.67764   2
  -8   2  13 35.8601 5.95565   2
  -8   2  13 30.4724 4.31778   3
  -7  -2  13 11.7525 4.20089   2
  -7   2  13 8.58387 3.74483   2
  -7   2  13 8.42818 2.79371   3
   6  -2 -13 35.3870 19.3378   1
  -6  -2  13 27.1993 4.59812   2
  -6   2  13 15.3840 16.5864   1
  -6   2  13 36.3346 4.63448   3
  -6   2  13 33.5969 4.54715   2
   5  -2 -13 19.3550 15.2300   1
  -5  -2  13 31.1186 4.68345   2
   5   2 -13 3.00301 19.4708   1
  -5   2  13 38.0068 14.1343   1
  -5   2  13 39.3447 4.65623   3
  -5   2  13 32.9106 5.31806   2
   4  -2 -13 16.8337 12.2083   1
  -4  -2  13 1.88708 2.58572   2
  -4  -2  13 -0.9407 18.0383   1
   4   2 -13 -11.953 14.8657   1
  -4   2  13 -8.8176 9.43025   1
  -4   2  13 5.80205 2.05904   3
  -4   2  13 7.96086 2.48861   2
   3  -2 -13 148.164 9.95112   3
  -3  -2  13 125.790 18.5675   1
  -3  -2  13 151.227 10.6955   2
   3  -2 -13 155.962 21.8435   1
  -3   2  13 159.208 10.2809   3
  -3   2  13 148.266 18.5918   1
  -3   2  13 153.250 10.3938   2
   2  -2 -13 -0.3013 8.86592   1
  -2  -2  13 -5.0360 6.24646   1
  -2  -2  13 2.44905 1.42890   3
  -2  -2  13 1.96727 2.46409   2
   2  -2 -13 1.91976 2.03299   3
  -2   2  13 0.63541 6.73760   1
   2   2 -13 8.80268 10.6968   1
   2   2 -13 3.42117 0.96760   3
  -2   2  13 0.68688 2.03869   2
  -2   2  13 4.55366 2.12044   3
  -1  -2  13 28.5892 4.14281   2
  -1  -2  13 20.2818 4.29889   3
   1  -2 -13 33.7301 9.60264   1
   1  -2 -13 26.2282 3.87017   3
  -1  -2  13 18.3409 6.51161   1
   1  -2 -13 25.9909 8.99551   1
  -1   2  13 32.2300 3.95308   3
   1   2 -13 9.97437 9.25645   1
   0  -2 -13 20.6883 8.40984   1
   0  -2 -13 28.2795 4.26099   3
   0  -2 -13 17.8458 7.96814   1
   0  -2  13 19.2322 3.10658   3
   0   2 -13 6.46522 8.72112   1
  -1  -2 -13 107.581 16.1609   1
  -1  -2 -13 103.959 15.0266   1
   1  -2  13 100.774 8.71267   3
  -1   2 -13 117.944 16.1370   1
  -1   2 -13 126.237 12.5959   1
  -1   2 -13 105.314 7.68274   3
   1   2  13 107.558 8.34392   3
  -2  -2 -13 27.3658 9.75927   1
   2  -2  13 34.2583 5.59195   3
  -2  -2 -13 25.1270 8.31627   1
  -2   2 -13 37.0928 4.86565   3
   2   2  13 36.5217 4.90236   3
  -2   2 -13 28.4897 6.03775   1
   3  -2  13 -0.8196 2.93017   3
  -3  -2 -13 -5.7535 9.93581   1
  -3   2 -13 -0.1969 4.83909   1
   3   2  13 6.14838 2.74055   3
   4  -2  13 47.7205 7.42116   3
  -4   2 -13 62.1340 11.1259   1
   4   2  13 51.0571 6.55218   3
  -5  -2 -13 176.500 12.3318   2
   5  -2  13 153.427 13.3244   3
   5   2  13 177.982 12.5576   3
   6  -2  13 7.08458 4.21595   3
  -6  -2 -13 2.81487 3.04293   2
   6   2  13 1.99955 3.43912   3
  -6   2 -13 9.81537 3.66945   2
  -7  -2 -13 248.732 17.0505   2
   7  -2  13 242.239 18.4498   3
   7   2  13 236.894 17.4490   3
  -7   2 -13 245.465 17.0142   2
  -8  -2 -13 38.2479 5.55143   2
   8  -2  13 44.5489 7.38478   3
  -8   2 -13 35.2837 5.53329   2
   8   2  13 43.8200 6.51714   3
 -10  -3  13 66.1278 10.8683   2
 -10   3  13 60.0246 8.03297   2
 -10   3  13 53.3174 8.84011   3
  -9  -3  13 1.09549 4.64465   2
  -9   3  13 -1.1661 3.62573   3
  -8  -3  13 175.514 14.2480   2
  -8   3  13 162.182 13.2826   2
  -8   3  13 148.095 12.2020   3
  -7  -3  13 100.809 9.97459   2
  -7   3  13 106.824 9.18783   2
  -7   3  13 83.7002 8.36339   3
  -6  -3  13 2.14037 3.63668   2
  -6   3  13 1.41985 2.49980   3
  -6   3  13 -0.1578 2.49373   2
  -5  -3  13 343.511 21.5758   2
   5  -3 -13 320.823 35.9082   1
  -5   3  13 320.706 20.7807   3
  -5   3  13 326.795 20.8697   2
  -5   3  13 290.874 34.5684   1
   4  -3 -13 166.894 24.7896   1
  -4  -3  13 198.655 13.2877   2
  -4   3  13 196.431 12.7433   2
  -4   3  13 178.249 24.2079   1
  -4   3  13 184.994 12.7837   3
  -3  -3  13 49.4835 5.45781   2
   3  -3 -13 40.2902 5.20388   3
   3  -3 -13 35.7176 12.5536   1
  -3   3  13 30.2734 10.1667   1
  -3   3  13 50.8157 5.09754   3
  -3   3  13 51.9992 4.70233   2
   2  -3 -13 894.179 52.2874   3
   2  -3 -13 838.010 58.0791   1
  -2  -3  13 872.627 52.3402   2
   2  -3 -13 852.462 52.4968   2
  -2   3  13 868.342 52.2409   3
  -2   3  13 859.206 51.9812   2
   1  -3 -13 304.655 20.0506   2
  -1  -3  13 287.193 19.0084   2
   1  -3 -13 349.844 27.0005   1
   1  -3 -13 294.588 25.8686   1
  -1   3  13 291.587 19.0009   3
   1   3 -13 290.046 17.9671   3
   0  -3  13 39.4323 4.60993   2
   0  -3  13 29.7071 4.45676   3
   0  -3 -13 41.9021 9.65659   1
   0  -3 -13 44.4016 10.3839   1
   0   3 -13 39.3895 3.57618   3
   0   3  13 41.7505 4.67305   3
   0   3 -13 22.0037 10.9593   1
  -1  -3 -13 596.317 42.9058   1
  -1  -3 -13 581.096 41.8141   1
  -1   3 -13 596.410 38.4055   1
   1   3  13 597.585 36.6345   3
  -1   3 -13 608.415 35.9912   3
  -2  -3 -13 229.663 24.0222   1
   2  -3  13 193.492 15.7956   3
   2   3  13 247.691 15.5146   3
  -2   3 -13 230.852 24.9168   1
  -2   3 -13 237.696 15.0836   3
  -2   3 -13 243.333 17.1670   1
  -3  -3 -13 78.3533 15.3105   1
   3  -3  13 87.2983 9.07729   3
  -3   3 -13 111.724 10.4144   1
   3   3  13 101.635 8.21142   3
  -4  -3 -13 504.309 29.4255   2
   4  -3  13 454.940 30.4707   3
  -4   3 -13 452.809 30.5942   1
   4   3  13 460.004 29.6193   3
  -5  -3 -13 145.864 10.7710   2
   5  -3  13 142.214 12.6388   3
   5   3  13 143.317 11.2201   3
  -5   3 -13 126.562 14.6499   1
   6  -3  13 14.5454 5.24380   3
  -6  -3 -13 14.2637 3.53532   2
  -7  -3 -13 119.410 10.7961   2
   7  -3  13 166.486 13.9259   3
   7   3  13 116.347 11.4347   3
  -7   3 -13 129.067 11.0498   2
  -8  -3 -13 31.6891 5.11596   2
  -8   3 -13 31.1411 5.05216   2
   8   3  13 31.8891 5.90543   3
  -9  -4  13 17.3141 5.70660   2
  -9   4  13 21.0959 5.62600   2
  -9   4  13 25.7921 5.08258   3
  -8  -4  13 63.8037 9.06592   2
  -8   4  13 51.5725 8.04622   2
  -8   4  13 42.1401 5.98605   3
  -7  -4  13 3.95681 6.81759   2
  -7   4  13 0.18361 3.08521   2
  -7   4  13 1.31278 3.13927   3
  -6  -4  13 136.144 11.4676   2
  -6   4  13 139.522 10.4932   2
  -6   4  13 142.280 10.8314   3
  -5  -4  13 4.80469 3.48762   2
  -5   4  13 5.48175 2.73020   2
  -5   4  13 8.70676 3.16204   3
  -4  -4  13 1.38689 2.78805   2
   4  -4 -13 -19.685 12.8461   1
  -4   4  13 0.64168 1.91490   2
  -4   4  13 7.40733 2.61230   3
  -4   4  13 -8.3303 11.4889   1
   3  -4 -13 38.0899 5.18040   2
  -3  -4  13 35.6723 5.19836   2
   3  -4 -13 42.0593 13.1711   1
  -3   4  13 34.5539 4.93722   3
  -3   4  13 38.5768 4.22051   2
  -2  -4  13 1.91499 2.56171   2
   2  -4 -13 -1.6350 2.40943   2
   2  -4 -13 7.46259 10.5524   1
  -2   4  13 -0.1029 2.38280   3
   1  -4 -13 7.36150 10.4055   1
   1  -4 -13 12.2307 2.66280   2
  -1  -4  13 21.2314 3.27715   2
   1  -4 -13 12.5910 10.0991   1
   1   4 -13 17.1026 1.79647   3
  -1   4  13 18.4535 3.18877   3
   0  -4 -13 42.4804 11.5835   1
   0  -4 -13 49.4047 6.25025   2
   0  -4 -13 49.6434 11.4625   1
   0  -4  13 51.6687 5.37730   2
   0   4  13 48.8574 5.46441   3
   0   4 -13 59.8865 4.25043   3
  -1  -4 -13 58.0352 12.1037   1
  -1  -4 -13 23.5863 14.1675   1
  -1   4 -13 29.7033 5.18404   1
  -1   4 -13 30.7615 13.7138   1
  -1   4 -13 30.9242 4.20238   3
   1   4  13 26.0189 3.88357   3
  -2  -4 -13 92.5649 15.2474   1
  -2   4 -13 108.611 8.49821   3
  -2   4 -13 85.2876 12.9270   1
  -2   4 -13 110.467 9.03192   1
   2   4  13 112.012 8.61255   3
  -3  -4 -13 6.09805 2.63178   2
  -3  -4 -13 -5.6283 15.6732   1
   3   4  13 3.09364 2.86625   3
  -4  -4 -13 134.855 10.0668   2
   4   4  13 121.794 10.4104   3
  -5  -4 -13 95.9746 8.40208   2
   5   4  13 90.4180 8.91691   3
  -6  -4 -13 3.80507 3.20528   2
   6   4  13 9.08475 3.67525   3
  -6   4 -13 8.31128 3.50663   2
  -7  -4 -13 63.6212 8.09765   2
   7   4  13 62.1890 8.17271   3
  -7   4 -13 60.7537 8.11481   2
  -8  -4 -13 98.5343 10.4002   2
   8   4  13 112.386 11.3279   3
  -8   4 -13 104.290 10.2153   2
  -9  -5  13 7.62252 5.71508   2
  -9   5  13 -1.6860 4.85160   3
  -9   5  13 2.37732 4.68658   2
  -8  -5  13 27.4008 6.37766   2
  -8   5  13 32.6924 5.75541   3
  -8   5  13 26.0643 4.88602   2
  -7  -5  13 138.937 12.1311   2
  -7   5  13 126.470 11.4946   3
  -7   5  13 134.888 10.6342   2
  -6  -5  13 -1.2596 4.03862   2
  -6   5  13 3.16057 2.56248   2
  -6   5  13 4.55603 3.34923   3
  -5  -5  13 509.780 31.7042   2
  -5   5  13 506.727 30.6668   2
  -5   5  13 476.270 31.4128   3
  -4  -5  13 51.4507 6.39994   2
  -4   5  13 55.2596 6.23532   3
  -4   5  13 45.3888 4.90939   2
   3  -5 -13 31.9160 16.5995   1
  -3  -5  13 45.2028 5.51339   2
   3  -5 -13 34.7527 14.7432   1
   3  -5 -13 39.4670 5.24437   2
  -3   5  13 39.5003 5.52340   3
   2  -5 -13 55.0944 14.2963   1
   2  -5 -13 72.6481 14.6784   1
  -2  -5  13 91.1148 7.49036   2
   2  -5 -13 75.4243 6.67000   2
  -2   5  13 82.4798 7.39312   3
   1  -5 -13 305.931 29.3727   1
  -1  -5  13 329.419 20.2393   2
   1  -5 -13 307.451 30.8087   1
   1  -5 -13 309.102 19.6983   2
  -1   5  13 323.337 20.4101   3
   0  -5 -13 9.28790 11.6701   1
   0  -5 -13 5.18172 2.76329   2
   0  -5  13 7.50991 2.49781   2
   0   5 -13 10.1154 2.28499   3
   0   5 -13 4.21879 4.88528   1
   0   5  13 8.90846 2.89219   3
  -1  -5 -13 959.378 66.4555   1
   1   5  13 1035.00 59.2556   3
  -1   5 -13 1021.64 58.3926   3
  -1   5 -13 889.279 58.3413   1
  -2  -5 -13 64.9760 6.00821   2
  -2  -5 -13 47.9231 14.6790   1
   2   5  13 57.9819 6.59031   3
  -2   5 -13 46.8706 6.76741   3
  -3  -5 -13 86.8716 7.30404   2
   3   5  13 71.8393 7.57654   3
  -4  -5 -13 40.9180 6.15883   2
   4   5  13 36.9840 5.26923   3
  -5  -5 -13 127.237 10.2806   2
   5   5  13 123.345 12.3931   3
  -6  -5 -13 3.53374 4.19058   2
  -6   5 -13 2.19663 3.34278   2
   6   5  13 0.84340 3.62654   3
  -7  -5 -13 199.515 15.6434   2
  -7   5 -13 224.536 15.5885   2
   7   5  13 204.041 16.0524   3
  -8  -6  13 74.9456 10.3668   2
  -8   6  13 43.8234 6.92756   3
  -8   6  13 50.7900 7.98788   2
  -7  -6  13 1.11905 4.38800   2
  -7   6  13 2.31361 5.22480   3
  -7   6  13 0.64019 3.21114   2
  -6  -6  13 99.5250 9.74889   2
  -6   6  13 90.3782 9.65599   3
  -6   6  13 97.9808 7.92991   2
  -5  -6  13 6.68656 3.90696   2
  -5   6  13 7.30879 2.47920   2
  -5   6  13 0.14770 3.64095   3
  -4  -6  13 6.89405 3.38664   2
  -4   6  13 8.86337 3.45457   3
   3  -6 -13 -34.533 23.5364   1
  -3  -6  13 1.53093 2.63662   2
  -3   6  13 3.52693 3.18378   3
  -2  -6  13 6.17389 3.06282   2
  -2   6  13 7.09809 3.22616   3
  -1  -6  13 0.59126 2.54365   2
  -1   6  13 -1.1828 2.64209   3
   0  -6 -13 25.9464 15.5039   1
   0   6  13 22.5821 3.78006   3
   0   6 -13 26.4876 3.20351   3
   0   6 -13 26.2217 4.38003   1
  -1  -6 -13 9.04304 2.90197   2
  -1  -6 -13 7.29106 14.1364   1
   1   6  13 8.26434 3.34262   3
  -2  -6 -13 187.992 12.6634   2
  -2  -6 -13 149.565 22.3385   1
   2   6  13 185.821 13.1864   3
  -3  -6 -13 4.66637 2.99294   2
   3   6  13 3.39848 3.20417   3
  -4  -6 -13 93.6151 8.53877   2
   4   6  13 80.8501 11.7087   3
  -5  -6 -13 5.57328 3.79968   2
   5   6  13 2.75000 3.91542   3
   6   6  13 5.69838 3.88359   3
  -6   6 -13 9.00936 3.94660   2
  -7  -6 -13 6.44731 4.89556   2
   7   6  13 -1.2941 4.23740   3
  -7   6 -13 3.66393 4.08332   2
  -7  -7  13 131.552 12.3335   2
  -7   7  13 115.689 12.5190   3
  -6  -7  13 -1.1117 3.73286   2
  -6   7  13 1.25856 4.20246   3
  -5  -7  13 309.318 20.7679   2
  -5   7  13 290.228 22.1174   3
  -4  -7  13 -0.0868 3.51166   2
  -4   7  13 1.97497 3.49230   3
  -3  -7  13 37.5498 5.90418   2
  -3   7  13 37.9880 5.35400   3
  -2  -7  13 28.4290 4.33236   2
  -2   7  13 25.9323 4.51827   3
  -1  -7  13 306.039 19.9009   2
  -1   7  13 309.901 20.5256   3
   0  -7 -13 3.50466 2.67502   2
   0   7  13 4.20622 3.31505   3
   0   7 -13 3.56197 2.08214   3
  -1  -7 -13 611.065 34.5692   2
   1   7  13 544.271 35.1075   3
  -1   7 -13 524.952 33.7813   3
  -2  -7 -13 -4.2805 3.10120   2
   2   7  13 -4.3874 4.71719   3
  -3  -7 -13 72.0342 7.74606   2
   3   7  13 64.7816 7.73616   3
  -4  -7 -13 11.1754 4.37210   2
   4   7  13 18.1074 4.56077   3
  -5  -7 -13 110.939 10.5813   2
   5   7  13 93.5357 9.92270   3
  -6  -7 -13 15.9679 6.45956   2
  -6   7 -13 14.8907 4.43151   2
   6   7  13 7.22846 4.41234   3
  -6  -8  13 42.2291 6.29594   2
  -6   8  13 29.6392 6.30117   3
  -5  -8  13 9.22838 4.63787   2
  -5   8  13 5.37001 4.97313   3
  -4  -8  13 15.0542 3.86098   2
  -4   8  13 11.2897 4.70871   3
  -3   8  13 18.0722 5.33809   3
  -2  -8  13 0.91012 3.04803   2
  -2   8  13 2.64211 4.40046   3
  -1  -8  13 2.35169 2.86929   2
  -1   8  13 1.60509 5.80730   3
   0  -8 -13 5.72753 4.08906   2
   0   8  13 7.38741 3.73477   3
  -1  -8 -13 4.12607 3.52990   2
  -1   8 -13 2.87138 2.07145   3
   1   8  13 -1.1219 3.40496   3
  -2  -8 -13 117.957 10.6441   2
  -2   8 -13 124.051 9.36718   3
   2   8  13 135.856 10.9388   3
  -3  -8 -13 6.41072 4.50105   2
   3   8  13 13.1167 4.08110   3
  -4  -8 -13 46.0000 6.49551   2
   4   8  13 45.8459 6.19812   3
  -5  -8 -13 7.70371 5.43448   2
   5   8  13 11.3320 4.95090   3
  -5  -9  13 123.811 11.3667   2
  -5   9  13 116.398 12.6640   3
  -4  -9  13 36.8999 5.62787   2
  -4   9  13 34.3637 6.13496   3
  -3  -9  13 4.16615 3.52453   2
  -3   9  13 8.34830 4.49320   3
  -2  -9  13 108.869 9.56530   2
  -2   9  13 110.664 10.8379   3
  -1   9  13 77.0602 9.11191   3
   0   9  13 6.12500 4.04747   3
   1   9  13 221.656 16.4369   3
   2   9  13 24.9780 5.22796   3
  -2   9 -13 21.4077 3.49184   3
   3   9  13 13.3992 4.51591   3
  -3   9 -13 12.8947 3.91140   3
   4   9  13 95.4198 10.3523   3
  -3 -10  13 29.1063 4.91395   2
  -3  10  13 34.6119 6.56334   3
  -2 -10  13 0.31896 3.61811   2
  -2  10  13 -0.3365 4.72577   3
  -1  10  13 25.4291 5.46036   3
   0  10  13 5.30328 4.46507   3
   1  10  13 0.81102 4.36423   3
 -10   0  14 57.3438 8.31479   2
  -9   0  14 0.82779 4.49733   2
  -8   0  14 127.506 15.6610   2
  -7   0  14 -0.6088 3.58939   2
  -6   0  14 313.450 20.9993   2
   5   0 -14 10.4752 18.4524   1
   4   0 -14 5.11340 14.9971   1
  -4   0  14 0.83417 11.8827   1
  -4   0  14 6.35178 2.74120   2
   3   0 -14 4.66905 12.5367   1
  -3   0  14 0.19169 1.70424   3
  -3   0  14 1.79826 2.37317   2
  -3   0  14 -5.6693 8.91944   1
  -2   0  14 124.155 18.3982   1
   2   0 -14 150.358 9.87171   3
  -2   0  14 158.226 10.8527   2
  -2   0  14 162.028 10.4134   3
   1   0 -14 -13.778 9.06673   1
  -1   0  14 4.18234 2.07578   3
  -1   0  14 5.41459 2.38492   2
   1   0 -14 3.59814 1.81039   3
   0   0 -14 155.476 17.2123   1
   0   0 -14 121.520 8.75371   3
   0   0 -14 116.611 17.7915   1
   0   0  14 125.779 9.25840   3
  -1   0 -14 -14.875 7.87459   1
   1   0  14 -0.4010 2.35483   3
  -1   0 -14 -5.9025 2.53909   3
  -1   0 -14 3.70536 8.76166   1
   2   0  14 31.8506 5.11092   3
   3   0  14 4.35312 3.15469   3
   4   0  14 42.8117 6.69772   3
   5   0  14 4.83123 3.67684   3
   6   0  14 -1.4945 4.63083   3
  -6   0 -14 -1.6165 3.40135   2
   7   0  14 -6.9585 4.64037   3
  -7   0 -14 1.22088 3.96126   2
   8   0  14 40.7056 7.16728   3
  -8   0 -14 46.3906 6.34363   2
 -10  -1  14 0.18088 5.49786   2
 -10   1  14 7.87258 5.36667   2
  -9  -1  14 -1.5645 4.64429   2
  -9   1  14 0.72938 4.68866   2
  -8  -1  14 10.2450 4.91800   2
  -8   1  14 21.7800 7.39166   2
  -8   1  14 16.5796 3.09087   3
  -7  -1  14 202.746 15.2868   2
  -7   1  14 187.897 13.2093   3
  -7   1  14 215.609 15.0750   2
   6  -1 -14 -7.6308 20.2970   1
  -6  -1  14 2.78006 3.47557   2
  -6   1  14 1.99626 2.06760   3
  -6   1  14 6.34551 3.47390   2
   5  -1 -14 294.505 38.7005   1
  -5  -1  14 406.570 24.7108   2
  -5   1  14 395.482 24.4168   2
  -5   1  14 342.846 38.3847   1
  -5   1  14 390.827 23.5437   3
  -4  -1  14 5.92681 1.20794   3
   4  -1 -14 5.27559 14.2676   1
  -4  -1  14 6.32871 2.91531   2
   4   1 -14 -17.105 15.3500   1
  -4   1  14 3.30538 11.7050   1
  -4   1  14 4.96079 2.47863   2
  -4   1  14 8.33952 2.10640   3
   3  -1 -14 98.4435 15.7902   1
  -3  -1  14 96.2803 8.04015   2
  -3  -1  14 101.327 6.92517   3
  -3   1  14 107.505 7.47615   3
   3   1 -14 63.7229 16.4662   1
  -3   1  14 71.6138 13.2730   1
  -3   1  14 110.817 7.99441   2
   2  -1 -14 77.4322 14.1352   1
  -2  -1  14 97.0443 7.83846   2
   2  -1 -14 108.977 7.05356   3
  -2  -1  14 86.2547 7.35243   3
  -2   1  14 96.4257 7.44128   3
   2   1 -14 97.4650 6.90054   3
  -2   1  14 70.8055 11.9995   1
  -2   1  14 105.682 7.72764   2
   1  -1 -14 445.581 34.6483   1
  -1  -1  14 450.680 27.9516   3
  -1  -1  14 471.824 28.1074   2
   1  -1 -14 452.735 27.5836   3
   1   1 -14 470.763 27.3370   3
   1   1 -14 395.312 35.4500   1
  -1   1  14 443.627 27.9186   2
  -1   1  14 473.711 28.0110   3
   0  -1  14 8.94733 2.63365   3
   0  -1 -14 7.65437 2.55187   3
   0  -1 -14 -0.3301 8.62187   1
   0  -1 -14 6.38344 8.86817   1
   0   1  14 8.63005 2.43688   3
   0   1 -14 14.1173 7.37392   1
   0   1 -14 -0.6737 9.50745   1
   0   1 -14 5.36207 2.01647   3
  -1  -1 -14 1230.92 86.2098   1
   1  -1  14 1363.42 82.1211   3
  -1   1 -14 1462.48 85.4337   1
   1   1  14 1416.60 82.0188   3
  -1   1 -14 1356.56 81.4323   3
   2  -1  14 16.1630 3.45689   3
   2   1  14 15.0636 3.25845   3
   3  -1  14 166.840 12.6373   3
   3   1  14 172.048 12.3076   3
   4  -1  14 59.3003 7.82008   3
   4   1  14 65.7288 7.46627   3
  -5  -1 -14 264.376 16.5454   2
   5  -1  14 216.546 17.1085   3
   5   1  14 237.994 16.9571   3
   6  -1  14 7.10468 4.75813   3
  -6  -1 -14 5.27705 5.27060   2
  -6   1 -14 6.93210 3.58905   2
   7  -1  14 416.993 29.4161   3
  -7  -1 -14 461.264 28.5185   2
  -7   1 -14 473.988 28.6114   2
   7   1  14 403.187 28.9275   3
  -8  -1 -14 5.68253 4.40890   2
   8  -1  14 3.11193 5.04762   3
   8   1  14 4.40164 4.88823   3
  -8   1 -14 9.84384 4.51497   2
  -9  -2  14 17.8778 5.77217   2
  -9   2  14 29.2784 6.31646   2
  -8  -2  14 98.4023 10.9344   2
  -8   2  14 120.636 10.9823   2
  -8   2  14 90.4985 8.71012   3
  -7  -2  14 1.13266 5.86534   2
  -7   2  14 1.45223 3.74320   2
  -7   2  14 7.57748 2.83482   3
  -6  -2  14 216.070 14.7393   2
  -6   2  14 132.058 27.0713   1
  -6   2  14 194.967 13.3918   3
  -6   2  14 205.042 14.2608   2
   5  -2 -14 49.1432 18.4539   1
  -5  -2  14 48.0211 6.76604   2
  -5   2  14 44.4308 6.12447   2
  -5   2  14 51.5156 5.38924   3
  -5   2  14 17.5643 15.5887   1
  -4  -2  14 9.97304 3.03288   2
   4  -2 -14 0.38970 13.4882   1
  -4   2  14 11.7274 2.50887   3
  -4   2  14 8.79142 11.7862   1
  -4   2  14 11.7414 2.98935   2
   3  -2 -14 83.6138 6.76300   3
   3  -2 -14 83.3641 15.5081   1
  -3  -2  14 86.8177 7.33561   2
  -3   2  14 96.2385 7.07362   3
  -3   2  14 81.9326 14.1644   1
  -3   2  14 87.5873 7.15726   2
  -2  -2  14 76.8934 6.75206   2
   2  -2 -14 68.0786 13.4279   1
  -2  -2  14 66.3139 5.31579   3
   2  -2 -14 66.7629 6.20572   3
   2   2 -14 70.7559 23.8003   1
   2   2 -14 74.2347 4.79336   3
  -2   2  14 78.8467 6.43558   3
  -2   2  14 80.3851 15.1573   1
   1  -2 -14 -0.7337 2.55918   3
  -1  -2  14 4.76277 2.33039   2
  -1  -2  14 3.94800 2.16649   3
   1  -2 -14 -1.1276 9.39764   1
   1  -2 -14 2.39182 10.3465   1
   1   2 -14 -3.5753 13.8158   1
  -1   2  14 4.82330 2.24614   3
   0  -2 -14 103.081 18.7969   1
   0  -2  14 81.5089 7.83078   3
   0   2  14 98.1866 7.72464   3
   0   2 -14 128.913 14.7996   1
   0   2 -14 101.020 6.96232   3
  -1  -2 -14 16.5597 9.82606   1
   1  -2  14 6.90583 2.99891   3
  -1   2 -14 4.86357 6.30870   1
   1   2  14 6.39158 2.70107   3
  -1   2 -14 7.60904 2.47043   3
   2  -2  14 22.6209 4.13878   3
   2   2  14 22.6168 3.56994   3
  -2   2 -14 22.7800 7.15873   1
   3  -2  14 5.01605 3.55064   3
   3   2  14 5.62820 3.03025   3
   4  -2  14 15.7257 4.48009   3
   4   2  14 13.9408 3.77533   3
   5  -2  14 22.1742 5.27111   3
  -5  -2 -14 26.9930 4.29274   2
   5   2  14 24.2721 4.63453   3
  -6  -2 -14 -0.6745 4.16694   2
   6  -2  14 2.27053 4.29066   3
   6   2  14 1.12819 4.00682   3
  -6   2 -14 3.95581 3.64976   2
   7  -2  14 12.1289 5.85982   3
  -7  -2 -14 6.77587 4.04156   2
   7   2  14 9.03829 4.80690   3
  -7   2 -14 8.61125 4.25900   2
   8  -2  14 40.4585 7.38856   3
  -8  -2 -14 55.0944 7.73558   2
  -8   2 -14 50.9411 7.81604   2
   8   2  14 33.8648 6.33725   3
  -9  -3  14 5.07324 5.40904   2
  -9   3  14 2.16324 3.94359   3
  -9   3  14 0.73170 4.51115   2
  -8  -3  14 38.2425 6.39742   2
  -8   3  14 35.7266 6.05213   2
  -8   3  14 29.7447 4.77204   3
  -7  -3  14 85.3168 9.38238   2
  -7   3  14 76.0096 8.17720   2
  -7   3  14 53.8831 7.31222   3
  -6  -3  14 7.62207 4.04367   2
  -6   3  14 4.51280 2.81043   3
  -6   3  14 6.33150 3.30517   2
  -5  -3  14 282.786 18.3516   2
  -5   3  14 259.573 17.5483   2
  -5   3  14 228.868 32.9458   1
  -5   3  14 264.645 17.4625   3
   4  -3 -14 168.548 28.5297   1
  -4  -3  14 160.604 11.8808   2
  -4   3  14 135.028 25.4583   1
  -4   3  14 169.866 11.4168   2
  -4   3  14 162.974 11.3698   3
   3  -3 -14 39.1419 14.0705   1
  -3  -3  14 22.0016 3.61336   2
  -3   3  14 20.9684 10.7758   1
  -3   3  14 25.8351 4.14007   2
  -3   3  14 26.8929 4.34921   3
  -2  -3  14 354.299 22.5216   2
   2  -3 -14 336.760 32.0836   1
  -2   3  14 361.731 22.4265   3
  -1  -3  14 229.026 14.8109   2
   1  -3 -14 207.426 24.1727   1
  -1   3  14 228.480 14.8126   3
   1   3 -14 217.501 13.5283   3
   0  -3 -14 89.3993 14.6759   1
   0  -3  14 83.6170 7.65921   3
   0   3  14 110.325 8.08222   3
   0   3 -14 104.720 6.93876   3
   0   3 -14 105.090 13.8707   1
  -1  -3 -14 673.901 48.5309   1
  -1   3 -14 629.306 48.2923   1
   1   3  14 682.601 41.3595   3
  -1   3 -14 698.263 40.6337   3
   2  -3  14 132.780 12.0428   3
  -2   3 -14 163.808 14.2366   1
   2   3  14 167.784 11.5386   3
  -2   3 -14 166.855 11.4540   3
   3  -3  14 57.2667 8.12910   3
  -3   3 -14 72.1960 10.4407   1
   3   3  14 68.8551 6.96069   3
  -4  -3 -14 449.670 25.9468   2
   4  -3  14 366.885 26.8994   3
   4   3  14 392.637 26.1475   3
   5  -3  14 120.698 11.5149   3
  -5  -3 -14 108.513 9.39643   2
   5   3  14 100.746 9.78004   3
  -6  -3 -14 48.9096 7.67950   2
   6   3  14 49.9410 7.26003   3
  -6   3 -14 46.5227 6.91200   2
   7  -3  14 307.525 20.6285   3
  -7  -3 -14 236.950 17.7239   2
   7   3  14 230.664 18.4764   3
  -7   3 -14 246.360 17.9828   2
  -8  -3 -14 41.0803 6.00100   2
  -8   3 -14 38.5707 5.96821   2
   8   3  14 28.0003 5.97806   3
  -9  -4  14 76.4319 11.3335   2
  -9   4  14 74.3158 10.3334   2
  -9   4  14 68.5372 9.68682   3
  -8  -4  14 29.5749 6.27505   2
  -8   4  14 23.7095 5.17279   3
  -8   4  14 30.9383 5.29976   2
  -7  -4  14 11.7355 4.56164   2
  -7   4  14 8.16451 3.60417   2
  -7   4  14 5.55108 3.53571   3
  -6   4  14 50.0157 6.28664   2
  -6   4  14 41.3899 6.61248   3
  -5  -4  14 127.995 10.3510   2
  -5   4  14 119.959 9.39052   2
  -5   4  14 110.573 9.75097   3
  -4  -4  14 2.22566 3.08195   2
  -4   4  14 3.23737 2.24509   2
  -4   4  14 3.13274 2.70394   3
  -4   4  14 19.0809 13.7219   1
  -3  -4  14 162.051 11.2836   2
   3  -4 -14 137.303 20.5737   1
  -3   4  14 154.403 11.0644   3
  -3   4  14 145.664 10.4223   2
  -2  -4  14 25.7028 3.99735   2
   2  -4 -14 12.4201 12.6216   1
  -2   4  14 24.4029 3.90121   3
   1  -4 -14 11.7801 12.0555   1
  -1  -4  14 5.87421 2.63997   2
   1   4 -14 10.2863 1.57153   3
  -1   4  14 14.3655 3.15611   3
   0  -4 -14 -5.2381 11.2085   1
   0   4  14 12.0626 3.21239   3
   0   4 -14 22.1872 6.81846   1
   0   4 -14 16.4270 2.13252   3
  -1  -4 -14 19.3718 12.7933   1
  -1   4 -14 19.4978 5.61962   1
  -1   4 -14 18.3670 2.93450   3
   1   4  14 18.1072 3.62822   3
  -2   4 -14 14.6164 4.28027   1
   2   4  14 16.6407 3.51134   3
  -2   4 -14 10.7724 3.73139   3
  -3  -4 -14 13.6605 3.35207   2
   3   4  14 15.9622 3.63610   3
  -4  -4 -14 9.20856 3.50220   2
   4   4  14 8.35901 3.90661   3
  -5  -4 -14 45.6312 6.57801   2
   5   4  14 36.8909 5.83000   3
  -6  -4 -14 0.35981 3.38113   2
   6   4  14 0.25930 3.54376   3
  -6   4 -14 -2.2079 3.25388   2
  -7  -4 -14 38.7526 5.87368   2
   7   4  14 27.5380 6.01824   3
  -7   4 -14 36.5476 5.73246   2
  -8  -5  14 86.7935 11.0384   2
  -8   5  14 67.6176 9.07250   2
  -8   5  14 53.2784 8.22089   3
  -7  -5  14 21.0349 5.17180   2
  -7   5  14 13.4197 3.93669   2
  -7   5  14 14.1894 4.73528   3
  -6  -5  14 0.72052 4.00395   2
  -6   5  14 1.65040 2.83528   2
  -6   5  14 2.72157 3.69142   3
  -5  -5  14 44.5662 7.72860   2
  -5   5  14 34.6924 5.09246   3
  -5   5  14 32.7156 5.17855   2
  -4  -5  14 192.665 13.4451   2
  -4   5  14 184.943 13.3934   3
  -4   5  14 177.374 12.3564   2
  -3  -5  14 9.69545 3.28890   2
  -3   5  14 8.40865 3.30957   3
   2  -5 -14 609.365 51.0741   1
  -2  -5  14 651.805 39.4492   2
  -2   5  14 649.148 39.5859   3
  -1  -5  14 45.4684 5.58133   2
   1  -5 -14 38.9609 14.3836   1
  -1   5  14 48.3084 5.95669   3
   0  -5 -14 68.8845 15.8873   1
   0   5  14 77.8756 7.24184   3
   0   5 -14 77.8458 11.2139   1
   0   5 -14 79.5090 6.46318   3
  -1  -5 -14 52.4645 16.7931   1
  -1   5 -14 78.1460 7.75276   1
   1   5  14 95.6319 7.88807   3
   2   5  14 199.629 14.0839   3
  -3  -5 -14 5.32074 3.16623   2
   3   5  14 1.19676 3.11132   3
  -4  -5 -14 649.992 40.2098   2
  -5  -5 -14 13.3130 4.21139   2
   5   5  14 13.1899 4.42806   3
  -6  -5 -14 76.5023 8.69867   2
   6   5  14 79.2743 9.11104   3
  -6   5 -14 86.2584 8.77896   2
  -7  -5 -14 16.7604 5.09321   2
  -7   5 -14 32.3414 6.00161   2
   7   5  14 24.7211 5.62180   3
  -8  -6  14 3.59074 5.75136   2
  -8   6  14 2.53911 7.49432   2
  -8   6  14 4.01267 5.43663   3
  -7  -6  14 -1.9014 4.53873   2
  -7   6  14 9.76007 5.54431   3
  -7   6  14 0.56818 3.61275   2
  -6  -6  14 -0.3394 4.36705   2
  -6   6  14 5.39514 4.05741   3
  -6   6  14 3.72394 2.94187   2
  -5  -6  14 129.388 11.4901   2
  -5   6  14 133.311 11.4585   3
  -4  -6  14 1.53856 3.46639   2
  -4   6  14 4.09289 3.60025   3
  -3  -6  14 123.689 9.75006   2
  -3   6  14 111.551 9.99582   3
  -2  -6  14 -1.7686 2.96446   2
  -2   6  14 1.02064 3.25557   3
  -1  -6  14 12.3275 3.13784   2
  -1   6  14 11.9004 3.47622   3
   0   6  14 5.65592 3.11309   3
  -1  -6 -14 17.9834 3.51618   2
   1   6  14 12.1936 3.86712   3
  -2  -6 -14 3.33702 3.08861   2
   2   6  14 4.88628 3.41667   3
  -3  -6 -14 11.5352 3.56857   2
   3   6  14 6.59723 5.66724   3
  -4  -6 -14 2.24991 3.57635   2
   4   6  14 -0.1064 3.86092   3
  -5  -6 -14 61.5010 8.25763   2
   5   6  14 60.3074 8.11903   3
  -6  -6 -14 0.60348 4.65742   2
  -6   6 -14 1.79538 4.16236   2
   6   6  14 -4.8789 3.79910   3
  -7  -7  14 5.40968 4.86564   2
  -7   7  14 -0.3592 5.04179   3
  -6  -7  14 0.99295 4.28063   2
  -6   7  14 -1.6328 4.73958   3
  -5  -7  14 8.68421 4.55180   2
  -5   7  14 4.45488 4.38625   3
  -4  -7  14 139.952 11.3737   2
  -3   7  14 3.09130 3.94677   3
  -2  -7  14 453.735 28.7269   2
  -2   7  14 449.441 29.1534   3
  -1  -7  14 2.94854 2.87345   2
  -1   7  14 1.76611 3.55768   3
   0  -7 -14 45.1122 6.02614   2
   0   7  14 37.8965 5.92877   3
  -1  -7 -14 4.54939 3.52564   2
  -1   7 -14 -0.6404 2.04594   3
  -2  -7 -14 126.432 10.6855   2
   2   7  14 140.277 11.2341   3
  -3  -7 -14 14.2637 4.22295   2
   3   7  14 10.0644 4.18702   3
  -4  -7 -14 476.822 31.4225   2
   4   7  14 504.557 31.7629   3
  -5  -7 -14 -2.9777 5.33838   2
   5   7  14 2.44120 4.34844   3
  -6  -8  14 16.6461 5.11759   2
  -6   8  14 23.5841 6.17526   3
  -5  -8  14 68.5985 8.94819   2
  -5   8  14 71.4278 10.2486   3
  -4  -8  14 2.58703 3.94558   2
  -4   8  14 2.95348 4.66843   3
  -3  -8  14 49.1059 6.69012   2
  -3   8  14 36.1944 6.00352   3
  -2  -8  14 5.28534 3.37653   2
  -2   8  14 0.58489 4.03772   3
  -1   8  14 15.3730 4.40083   3
   0   8  14 35.1831 5.47006   3
  -1   8 -14 10.4352 2.94028   3
   1   8  14 7.18118 4.30650   3
  -2  -8 -14 12.2729 5.65982   2
   2   8  14 3.36831 3.82393   3
  -2   8 -14 2.68434 2.80581   3
  -3  -8 -14 0.02059 5.06083   2
   3   8  14 1.94706 3.93758   3
  -4  -8 -14 1.12888 5.78620   2
   4   8  14 6.29257 4.61219   3
  -4  -9  14 50.5876 7.93650   2
  -4   9  14 39.2415 6.93997   3
  -3  -9  14 2.27611 3.89271   2
  -3   9  14 1.83468 4.73274   3
  -2  -9  14 167.006 12.9102   2
  -2   9  14 179.324 14.5185   3
  -1   9  14 28.3727 5.41216   3
   0   9  14 10.1660 4.62661   3
   1   9  14 98.5815 10.3937   3
   2   9  14 51.0106 8.37900   3
  -9   0  15 97.6244 11.8418   2
  -8   0  15 7.49287 5.16316   2
  -7   0  15 17.2503 7.19607   2
  -6   0  15 -2.7178 2.05282   3
  -6   0  15 5.67270 3.59172   2
  -5   0  15 376.160 24.4537   2
  -4   0  15 3.51568 2.74995   2
  -4   0  15 4.94683 2.00160   3
  -3   0  15 366.632 22.7846   3
  -3   0  15 370.005 23.3930   2
  -2   0  15 -0.4705 2.49418   2
   2   0 -15 3.32407 1.89500   3
  -2   0  15 -0.1557 2.17841   3
  -1   0  15 6.31394 2.51799   2
  -1   0  15 10.8042 2.63999   3
   1   0 -15 10.2651 2.25529   3
   0   0  15 2.91341 2.56774   3
   0   0 -15 2.78149 2.59420   3
   1   0  15 127.953 9.91408   3
   2   0  15 3.95730 3.11220   3
   3   0  15 97.3879 9.06620   3
   4   0  15 1.18799 3.65788   3
   5   0  15 0.23890 3.77381   3
  -6   0 -15 5.19064 3.76969   2
   6   0  15 5.33053 4.43316   3
   7   0  15 -1.6634 4.72944   3
  -7   0 -15 -0.2806 4.01378   2
  -9  -1  15 5.68086 5.19975   2
  -9   1  15 -0.7351 4.90877   2
  -8  -1  15 13.6901 5.10950   2
  -8   1  15 21.3664 5.30340   2
  -7  -1  15 7.41971 5.27344   2
  -7   1  15 4.90542 2.46760   3
  -7   1  15 10.8164 4.45012   2
  -6  -1  15 12.1141 4.11348   2
  -6   1  15 0.32721 3.45557   2
  -6   1  15 -0.3650 2.20863   3
  -5  -1  15 8.44178 3.90398   2
  -5   1  15 6.39600 3.32509   2
  -5   1  15 7.61253 2.43458   3
   4  -1 -15 139.398 34.8945   1
  -4  -1  15 201.888 13.6702   2
  -4   1  15 195.025 13.4963   2
  -4   1  15 193.564 12.8065   3
  -3  -1  15 3.71035 2.77917   2
   3  -1 -15 -5.8965 15.4562   1
  -3  -1  15 9.25843 2.01029   3
  -3   1  15 4.67484 2.27441   3
  -3   1  15 3.31163 2.52487   2
   2  -1 -15 447.718 44.9509   1
   2  -1 -15 555.366 33.7728   3
  -2  -1  15 583.109 34.5678   2
  -2  -1  15 555.928 34.0526   3
  -2   1  15 590.225 34.2953   3
  -2   1  15 567.009 34.4107   2
   2   1 -15 568.807 33.4521   3
  -1  -1  15 15.2900 2.92446   2
   1  -1 -15 15.5568 17.9790   1
   1  -1 -15 13.6145 2.75087   3
  -1  -1  15 18.9030 3.13722   3
   1   1 -15 17.5955 2.31233   3
  -1   1  15 19.7387 3.03300   3
   0  -1  15 117.647 9.55085   3
   0   1 -15 125.894 8.77464   3
   0   1  15 127.991 9.41866   3
   1  -1  15 53.8387 6.57290   3
   1   1  15 55.3127 6.24705   3
  -1   1 -15 46.2710 6.17461   3
   2  -1  15 225.231 16.3891   3
   2   1  15 248.675 16.2249   3
   3  -1  15 7.43698 3.88139   3
   3   1  15 11.0872 3.49099   3
   4  -1  15 685.398 43.8672   3
   4   1  15 715.631 43.6199   3
   5  -1  15 2.53330 4.55647   3
   5   1  15 2.21412 3.70986   3
  -6  -1 -15 193.129 13.6276   2
   6  -1  15 158.030 14.5515   3
  -6   1 -15 188.405 13.5921   2
   6   1  15 164.755 14.1791   3
   7  -1  15 24.4396 6.45694   3
  -7  -1 -15 28.4490 5.71630   2
   7   1  15 17.8793 6.18468   3
  -7   1 -15 40.0422 6.04664   2
  -9  -2  15 69.4725 11.0821   2
  -9   2  15 79.2951 10.8478   2
  -8  -2  15 35.7627 6.36597   2
  -8   2  15 28.7524 5.84493   3
  -8   2  15 32.3252 5.92370   2
  -7  -2  15 20.3744 5.25735   2
  -7   2  15 13.7727 3.40792   3
  -7   2  15 18.8813 4.54363   2
  -6  -2  15 70.6367 10.0980   2
  -6   2  15 51.2417 6.18632   3
  -6   2  15 61.5543 7.40922   2
  -5  -2  15 251.130 17.4700   2
  -5   2  15 242.110 16.3663   3
  -5   2  15 256.138 17.0505   2
  -4  -2  15 2.28880 2.82500   2
   4  -2 -15 -26.275 17.3372   1
  -4   2  15 1.55720 2.32328   3
  -4   2  15 6.26452 2.94304   2
  -3  -2  15 249.922 16.2555   2
   3  -2 -15 191.512 31.7295   1
  -3   2  15 241.644 15.7539   3
  -3   2  15 241.696 15.8586   2
  -2  -2  15 81.5294 6.33046   3
  -2  -2  15 95.4391 7.90333   2
  -2   2  15 100.007 7.73455   3
  -2   2  15 91.2337 7.51366   2
  -1  -2  15 1.16007 2.22664   3
   1  -2 -15 -1.3859 12.3025   1
  -1  -2  15 2.56771 2.48803   2
  -1   2  15 1.65015 2.27927   3
   1   2 -15 2.94605 1.55330   3
   0  -2  15 42.7407 5.73798   3
   0   2 -15 45.1796 4.57141   3
   0   2  15 39.1248 5.46975   3
   1  -2  15 88.4652 9.27616   3
   1   2  15 120.467 9.07274   3
  -1   2 -15 112.900 8.43187   3
   2  -2  15 7.47368 3.49282   3
   2   2  15 5.04814 2.94870   3
   3  -2  15 57.3086 7.79455   3
   3   2  15 50.1283 6.71512   3
   4  -2  15 9.61819 4.41398   3
   4   2  15 10.6201 3.77944   3
   5  -2  15 6.78987 4.57535   3
  -6  -2 -15 2.91896 3.84865   2
   6  -2  15 -0.0653 4.97220   3
   6   2  15 1.85347 4.00821   3
  -6   2 -15 7.56176 4.24374   2
  -7  -2 -15 0.34874 4.22102   2
   7  -2  15 3.05021 5.56130   3
  -7   2 -15 0.57424 4.44671   2
   7   2  15 3.26847 4.74528   3
  -9  -3  15 10.5075 5.83040   2
  -9   3  15 5.37840 5.39697   2
  -8  -3  15 10.3253 5.34468   2
  -8   3  15 4.16504 3.86351   3
  -7  -3  15 58.7751 8.66993   2
  -7   3  15 54.5133 7.70849   2
  -7   3  15 49.1896 7.06634   3
  -6  -3  15 1.91958 4.49590   2
  -6   3  15 1.99280 3.09433   3
  -6   3  15 -1.3276 3.08958   2
  -5  -3  15 62.6837 7.95973   2
  -5   3  15 70.8672 7.32874   2
  -5   3  15 63.1746 6.91273   3
  -4  -3  15 91.2672 8.35928   2
   4  -3 -15 54.1820 20.1080   1
  -4   3  15 59.8768 30.0508   1
  -4   3  15 96.9151 7.81965   2
  -4   3  15 100.633 7.97728   3
  -3  -3  15 6.47585 3.32567   2
   3  -3 -15 11.9038 15.9220   1
  -3   3  15 7.51410 2.62176   2
  -3   3  15 5.59304 2.69274   3
   2  -3 -15 288.915 33.0559   1
  -2  -3  15 325.582 20.6603   2
  -2   3  15 320.252 20.4968   3
   1  -3 -15 36.9157 15.0072   1
  -1  -3  15 70.7776 6.54617   2
  -1   3  15 80.5620 6.93957   3
   1   3 -15 69.3219 5.36441   3
   0   3  15 40.9849 5.62474   3
   0   3 -15 41.8865 4.35587   3
   1  -3  15 327.114 24.7899   3
  -1   3 -15 420.159 24.1595   3
   1   3  15 419.920 25.0565   3
   2  -3  15 63.0793 8.34020   3
   2   3  15 91.7194 7.74496   3
   3  -3  15 39.7239 6.19185   3
   3   3  15 58.6055 6.43134   3
   4  -3  15 428.924 30.2742   3
  -4  -3 -15 498.250 29.1695   2
   4   3  15 438.837 29.3612   3
   5  -3  15 29.1938 6.21088   3
   5   3  15 30.9114 4.98944   3
  -6  -3 -15 51.4850 7.55454   2
   6  -3  15 39.5705 7.56693   3
   6   3  15 53.9620 8.36131   3
  -6   3 -15 63.9645 7.91621   2
  -7  -3 -15 208.849 15.8748   2
   7   3  15 190.622 16.4531   3
  -7   3 -15 233.975 16.4653   2
  -8  -4  15 128.447 13.2629   2
  -8   4  15 118.406 16.3016   2
  -8   4  15 117.512 11.3774   3
  -7  -4  15 8.13592 4.56957   2
  -7   4  15 -0.7794 3.61207   3
  -7   4  15 5.75347 3.94318   2
  -6  -4  15 137.380 11.5296   2
  -6   4  15 108.395 10.4071   3
  -6   4  15 124.124 10.4226   2
  -5   4  15 86.4661 7.64771   2
  -5   4  15 71.2985 8.04065   3
  -4  -4  15 -0.4145 2.99962   2
  -4   4  15 -1.4017 2.20970   2
  -4   4  15 4.50742 3.00729   3
   3  -4 -15 19.4239 18.3809   1
  -3  -4  15 52.2603 6.51943   2
  -3   4  15 57.3918 6.39501   3
   2  -4 -15 181.631 31.1677   1
  -2  -4  15 211.912 14.6352   2
  -2   4  15 218.238 14.7120   3
   1  -4 -15 -10.431 14.2918   1
  -1  -4  15 4.19233 2.72162   2
   1   4 -15 2.46710 0.89623   3
  -1   4  15 2.97535 2.89320   3
   0   4  15 146.665 11.1310   3
   1   4  15 12.3019 3.55877   3
   2   4  15 8.18095 3.28758   3
  -2   4 -15 5.55778 7.14968   1
  -3  -4 -15 34.6701 5.56932   2
   3   4  15 25.5510 4.49513   3
  -4  -4 -15 30.7322 4.85590   2
  -5  -4 -15 2.52239 6.56009   2
   5   4  15 1.77491 3.72563   3
  -6  -4 -15 6.61189 4.16054   2
   6   4  15 4.98819 4.35181   3
  -6   4 -15 -1.2684 3.76948   2
  -7  -4 -15 11.4803 5.06495   2
   7   4  15 7.17441 5.18198   3
  -7   4 -15 8.75649 4.80275   2
  -8  -5  15 7.33695 5.78135   2
  -8   5  15 2.26987 6.17671   3
  -8   5  15 9.92525 4.99302   2
  -7  -5  15 71.4377 9.74996   2
  -7   5  15 63.0052 8.91981   3
  -7   5  15 56.7362 8.28073   2
  -6  -5  15 -2.6319 4.02914   2
  -6   5  15 -0.5539 3.78954   3
  -6   5  15 -5.0538 3.07016   2
  -5  -5  15 127.041 11.1541   2
  -5   5  15 128.978 9.69177   2
  -5   5  15 113.075 10.7150   3
  -4   5  15 12.9534 3.70758   3
  -3  -5  15 5.90811 3.44644   2
  -3   5  15 7.27989 3.42229   3
  -2  -5  15 59.7983 6.99619   2
  -2   5  15 55.7514 7.14073   3
  -1  -5  15 145.643 11.2252   2
  -1   5  15 160.041 11.6071   3
   0   5  15 3.42428 3.23242   3
   1   5  15 511.748 32.3260   3
   2   5  15 17.9443 4.11148   3
  -3  -5 -15 138.896 10.8008   2
  -4  -5 -15 49.4607 7.41651   2
   4   5  15 57.9904 8.14148   3
  -5  -5 -15 104.292 11.1223   2
   5   5  15 108.585 10.5651   3
  -6  -5 -15 8.45839 4.35000   2
  -6   5 -15 11.1247 4.47371   2
   6   5  15 5.81839 4.60521   3
  -7  -6  15 -4.8730 5.04374   2
  -7   6  15 1.78038 4.86962   3
  -7   6  15 4.13868 4.73487   2
  -6  -6  15 115.260 11.6073   2
  -6   6  15 125.100 10.0605   2
  -5  -6  15 2.25907 4.03557   2
  -5   6  15 0.03799 4.36755   3
  -4  -6  15 0.33639 3.58668   2
  -4   6  15 7.34935 3.93362   3
  -3  -6  15 -0.4703 3.58366   2
  -3   6  15 2.30222 3.45271   3
  -2   6  15 164.677 12.8815   3
  -1  -6  15 4.01512 3.24959   2
  -1   6  15 1.10866 3.32922   3
   0   6  15 154.921 12.1975   3
  -1  -6 -15 9.66059 3.49052   2
   1   6  15 -0.8977 4.43619   3
  -2  -6 -15 1.08706 3.29173   2
   2   6  15 2.92601 3.48653   3
  -3  -6 -15 2.77336 3.62028   2
   3   6  15 1.42039 3.78533   3
  -4  -6 -15 18.2042 4.74537   2
   4   6  15 16.7961 5.00653   3
  -5  -6 -15 0.57765 4.63122   2
   5   6  15 8.03934 4.44676   3
  -6  -7  15 1.60598 4.89349   2
  -6   7  15 -5.4168 4.86813   3
  -5  -7  15 142.451 12.3135   2
  -5   7  15 137.138 12.9656   3
  -4  -7  15 7.56421 4.26315   2
  -4   7  15 5.02172 4.42704   3
  -3  -7  15 -3.2653 3.26250   2
  -3   7  15 2.53478 4.17769   3
  -2  -7  15 -2.4726 3.20137   2
  -2   7  15 1.96147 4.31692   3
  -1   7  15 65.2968 8.00408   3
   0  -7 -15 5.32944 3.61594   2
   0   7  15 2.45110 3.81921   3
  -1  -7 -15 570.303 32.9259   2
   1   7  15 517.355 33.4760   3
  -1   7 -15 485.071 31.8325   3
  -2  -7 -15 0.57162 3.77222   2
   2   7  15 0.47640 3.58307   3
  -3  -7 -15 24.6024 5.04239   2
   3   7  15 27.1394 5.23879   3
  -4  -7 -15 14.3570 5.31832   2
   4   7  15 17.8471 5.39355   3
  -5  -8  15 27.1790 6.01077   2
  -5   8  15 17.1480 6.18937   3
  -4  -8  15 5.09929 4.09276   2
  -4   8  15 -3.5896 4.68041   3
  -3  -8  15 20.0160 4.61258   2
  -3   8  15 22.7407 5.30556   3
  -2  -8  15 84.0853 8.66966   2
  -2   8  15 83.6482 10.0131   3
  -1   8  15 10.5920 4.39817   3
   0   8  15 65.8903 8.64484   3
   1   8  15 22.7752 5.25242   3
   2   8  15 2.68133 4.25822   3
   3   8  15 3.92733 4.39879   3
  -2  -9  15 34.3768 5.58055   2
  -2   9  15 33.8396 6.60552   3
  -1   9  15 44.4846 6.69362   3
   0   9  15 7.10880 4.74638   3
  -8   0  16 205.796 17.0327   2
  -7   0  16 1.82363 3.89912   2
  -6   0  16 263.590 20.9782   2
  -5   0  16 1.65793 3.44999   2
  -4   0  16 24.1369 4.26063   2
  -4   0  16 26.0143 4.08228   3
  -3   0  16 2.73807 2.35547   3
  -3   0  16 1.43711 2.79749   2
   2   0 -16 419.625 27.1035   3
  -2   0  16 444.640 27.5352   3
  -2   0  16 466.608 27.9183   2
  -1   0  16 0.14997 2.46382   3
   1   0 -16 3.38377 2.46434   3
   0   0  16 373.232 23.8912   3
   1   0  16 -1.0433 3.02705   3
   2   0  16 2.19673 3.42458   3
   3   0  16 -1.5600 3.52634   3
   4   0  16 167.870 13.6887   3
  -6   0 -16 19.1774 4.81314   2
   6   0  16 23.7899 5.80612   3
   7   0  16 -4.2783 5.67159   3
  -7   0 -16 -1.9762 4.41391   2
  -8  -1  16 -0.2040 4.89868   2
  -8   1  16 3.60693 4.84030   2
  -7  -1  16 73.3147 9.63599   2
  -7   1  16 81.9088 9.34880   2
  -6  -1  16 0.43773 5.84494   2
  -6   1  16 -4.9190 3.51060   2
  -6   1  16 0.16007 2.41758   3
  -5  -1  16 46.2938 7.19617   2
  -5   1  16 38.2722 5.12976   3
  -5   1  16 42.6289 6.81415   2
  -4  -1  16 9.43928 3.34903   2
  -4   1  16 9.04481 2.55290   3
  -4   1  16 8.64313 3.34413   2
  -3  -1  16 2.50734 2.74597   2
  -3  -1  16 0.15356 2.60446   3
  -3   1  16 -0.8455 2.69917   2
  -3   1  16 -1.0749 2.35225   3
  -2  -1  16 11.7943 3.25320   2
   2  -1 -16 11.3296 4.08626   3
  -2  -1  16 8.50342 2.71600   3
  -2   1  16 13.0721 3.06090   2
  -2   1  16 12.1322 2.90186   3
   2   1 -16 16.0191 2.33377   3
  -1  -1  16 154.060 11.5698   3
  -1   1  16 166.724 11.6797   3
   1   1 -16 170.286 10.9685   3
   0  -1  16 4.33284 2.95253   3
   0   1 -16 -2.3152 3.19211   3
   0   1  16 3.53288 2.93497   3
   1  -1  16 354.583 24.5587   3
   1   1  16 404.520 24.5361   3
   2  -1  16 2.33833 3.48585   3
   2   1  16 14.3240 3.66627   3
   3  -1  16 145.129 12.2921   3
   3   1  16 147.784 11.7934   3
   4  -1  16 30.3174 5.92096   3
   4   1  16 31.1644 5.37964   3
  -5  -1 -16 97.7788 9.14396   2
   5   1  16 75.1579 9.64119   3
  -6  -1 -16 9.19297 4.53316   2
   6  -1  16 12.6765 5.56299   3
  -6   1 -16 6.58647 4.32207   2
   6   1  16 5.98917 4.69195   3
  -7  -1 -16 353.589 23.0652   2
   7  -1  16 307.444 24.1628   3
   7   1  16 301.669 23.5659   3
  -7   1 -16 360.439 23.2145   2
  -8  -2  16 136.968 13.3700   2
  -8   2  16 124.881 12.6941   2
  -7  -2  16 -0.7838 4.49407   2
  -7   2  16 4.40178 3.98320   3
  -7   2  16 4.51547 6.50357   2
  -6   2  16 147.886 11.7248   3
  -6   2  16 181.011 13.0672   2
  -5   2  16 86.9547 7.99773   3
  -5   2  16 98.3610 8.96983   2
  -4  -2  16 13.5747 3.77137   2
  -4   2  16 16.4746 3.21320   3
  -4   2  16 8.10230 3.05352   2
  -3  -2  16 78.9950 7.85936   2
  -3   2  16 62.9658 7.19233   3
  -3   2  16 99.5633 7.55383   2
  -2  -2  16 324.318 21.5766   2
  -2   2  16 340.460 21.3780   3
  -1  -2  16 3.57465 2.81159   2
  -1  -2  16 -0.4196 2.34225   3
  -1   2  16 2.10645 2.58032   3
   0  -2  16 200.804 16.0094   3
   0   2  16 279.085 16.3877   3
   1  -2  16 45.0757 7.20165   3
   1   2  16 55.1590 6.68759   3
   2  -2  16 1.04086 3.61958   3
   2   2  16 1.82509 3.15023   3
   3  -2  16 49.7918 8.36234   3
   3   2  16 62.9970 7.52586   3
   4  -2  16 105.193 10.9745   3
   4   2  16 87.0292 10.0452   3
  -5  -2 -16 10.2937 4.04280   2
   5   2  16 8.78824 4.46069   3
   6  -2  16 17.0725 5.98491   3
  -6  -2 -16 23.3523 5.05668   2
  -6   2 -16 11.2042 5.16911   2
   6   2  16 19.1364 5.40966   3
  -8  -3  16 -1.5568 5.01200   2
  -8   3  16 7.44779 5.11906   2
  -7  -3  16 41.1924 6.55955   2
  -7   3  16 25.1519 4.49992   3
  -6  -3  16 12.4452 4.54560   2
  -6   3  16 17.8529 3.79260   3
  -6   3  16 18.9663 4.61330   2
  -5  -3  16 45.8592 7.33892   2
  -5   3  16 24.6366 4.16942   3
  -5   3  16 32.8874 4.68187   2
  -4  -3  16 35.0837 5.54971   2
  -4   3  16 26.2902 4.05700   3
  -4   3  16 21.5711 3.69606   2
  -3  -3  16 -0.3063 2.98944   2
  -3   3  16 4.40982 2.67755   2
  -3   3  16 2.49014 2.86550   3
  -2  -3  16 138.754 11.0374   2
  -2   3  16 151.958 11.1341   3
  -1  -3  16 54.2466 6.26243   2
  -1   3  16 56.4704 6.41882   3
   0   3  16 -0.3350 2.96664   3
   1  -3  16 200.939 15.5118   3
   1   3  16 243.671 15.7047   3
   2  -3  16 16.9795 4.62207   3
   2   3  16 17.2314 4.02383   3
   3  -3  16 53.2947 7.15262   3
   3   3  16 52.9018 7.40030   3
   4  -3  16 236.186 18.3695   3
   4   3  16 228.270 18.5199   3
   5   3  16 37.2375 5.62150   3
  -6  -3 -16 51.7155 6.41784   2
   6  -3  16 30.2288 7.85410   3
  -6   3 -16 38.5811 6.19290   2
   6   3  16 44.8145 6.80016   3
  -7  -4  16 6.22678 4.89702   2
  -7   4  16 1.23371 4.22730   3
  -7   4  16 7.75944 4.56439   2
  -6  -4  16 56.6521 8.74329   2
  -6   4  16 46.9334 7.63028   3
  -6   4  16 47.4759 7.43391   2
  -5  -4  16 210.202 15.3425   2
  -5   4  16 198.663 14.2013   2
  -5   4  16 189.882 14.5384   3
  -4  -4  16 15.2633 4.17149   2
  -4   4  16 13.0816 3.25983   2
  -4   4  16 10.1766 3.46663   3
  -3   4  16 206.087 14.6608   3
  -2  -4  16 60.3024 7.32111   2
  -2   4  16 67.9617 7.43649   3
  -1  -4  16 2.88768 2.93097   2
  -1   4  16 1.39571 3.06869   3
   0   4  16 108.442 9.49976   3
   1   4  16 220.721 15.6347   3
   2   4  16 8.88097 3.89554   3
  -3  -4 -16 95.5752 9.03280   2
   4   4  16 14.0800 4.78533   3
  -5  -4 -16 5.82120 4.19539   2
   5   4  16 3.31253 4.11342   3
  -6  -4 -16 2.77020 4.67988   2
  -6   4 -16 8.37334 4.69037   2
   6   4  16 12.5173 5.15926   3
  -7  -5  16 6.30257 5.44039   2
  -7   5  16 5.73362 4.56297   2
  -6  -5  16 10.3085 4.62084   2
  -6   5  16 15.2365 4.87370   3
  -6   5  16 7.38700 3.81885   2
  -5  -5  16 -0.5698 3.91946   2
  -5   5  16 12.5716 4.36910   3
  -5   5  16 3.74116 3.28972   2
  -4  -5  16 99.9318 9.50411   2
  -4   5  16 94.8355 9.33128   3
  -3  -5  16 0.31766 3.30718   2
  -3   5  16 1.51421 3.37905   3
  -2  -5  16 110.633 10.6541   2
  -2   5  16 118.414 10.1444   3
  -1   5  16 14.1854 3.87485   3
   0   5  16 44.9632 6.95369   3
   1   5  16 18.4645 4.35160   3
   2   5  16 86.6620 10.7924   3
  -3  -5 -16 29.6583 4.96476   2
   3   5  16 24.7713 5.07874   3
   4   5  16 316.306 21.7922   3
  -5  -5 -16 23.6596 5.04486   2
   5   5  16 16.6344 5.28507   3
  -6  -6  16 -0.1341 4.58235   2
  -6   6  16 -0.1715 4.90784   3
  -5  -6  16 160.458 13.4956   2
  -5   6  16 161.670 14.2887   3
  -4  -6  16 1.40609 3.77109   2
  -3  -6  16 225.759 16.0034   2
  -3   6  16 214.730 17.7127   3
  -2  -6  16 -1.2051 3.42629   2
  -2   6  16 7.65049 5.32519   3
   0   6  16 3.24432 4.45697   3
  -1  -6 -16 185.632 13.4207   2
   1   6  16 172.064 13.8287   3
  -2  -6 -16 4.37369 3.84012   2
   2   6  16 5.83990 4.14201   3
  -3  -6 -16 109.917 10.4142   2
   3   6  16 105.088 10.2043   3
  -4  -6 -16 -1.9079 5.41942   2
   4   6  16 7.28051 4.80265   3
  -5  -7  16 5.01133 4.67646   2
  -5   7  16 -6.5158 4.98648   3
  -4  -7  16 20.0246 4.84992   2
  -4   7  16 37.2528 6.08828   3
  -3  -7  16 7.75573 4.19357   2
  -3   7  16 0.51318 4.41781   3
  -2  -7  16 160.693 12.5342   2
  -2   7  16 161.361 13.7105   3
  -1   7  16 -1.9151 3.81420   3
   0  -7 -16 -2.6445 4.01862   2
   0   7  16 4.55123 4.29009   3
  -1  -7 -16 8.53985 4.55109   2
   1   7  16 7.88073 4.33879   3
  -2  -7 -16 43.9562 5.94070   2
   2   7  16 45.4752 6.33550   3
  -3  -7 -16 0.94982 4.91114   2
   3   7  16 2.89699 4.42538   3
  -3  -8  16 112.916 10.8560   2
  -3   8  16 114.988 11.9248   3
  -2  -8  16 38.4719 5.68116   2
  -2   8  16 39.1463 6.55708   3
  -1   8  16 6.50652 4.94030   3
   0   8  16 16.7592 5.11853   3
   1   8  16 45.7515 6.66848   3
  -8   0  17 3.43298 5.45564   2
  -7   0  17 15.9490 4.96781   2
  -6   0  17 -0.5153 3.97862   2
  -4   0  17 -3.5885 2.51773   3
  -4   0  17 -0.8042 3.23001   2
  -3   0  17 281.759 18.5549   2
  -3   0  17 270.876 17.7493   3
  -2   0  17 4.11163 3.07713   2
  -2   0  17 -0.0395 2.69473   3
  -1   0  17 1.56939 2.91250   3
   0   0  17 3.36065 3.32954   3
   1   0  17 542.602 34.2964   3
   2   0  17 -1.1350 3.56473   3
   3   0  17 188.171 14.7085   3
   4   0  17 0.20720 4.94359   3
  -5   0 -17 2.60650 4.08192   2
   5   0  17 2.07325 5.00055   3
   6   0  17 7.41943 5.99848   3
  -6   0 -17 4.84280 4.81531   2
  -8  -1  17 1.75709 5.13457   2
  -8   1  17 10.6347 5.71025   2
  -7  -1  17 3.88747 4.90560   2
  -7   1  17 5.87951 4.49478   2
  -6  -1  17 37.8696 6.14850   2
  -6   1  17 44.7754 6.25611   2
  -5  -1  17 -1.0448 3.86780   2
  -5   1  17 1.81304 2.68933   3
  -5   1  17 2.55493 4.07263   2
  -4   1  17 82.2798 7.60215   3
  -4   1  17 100.682 8.73717   2
  -3  -1  17 1.86094 3.37022   2
  -3   1  17 6.00660 3.23845   2
  -3   1  17 4.46574 2.86169   3
  -2  -1  17 37.0735 6.04011   2
  -2  -1  17 44.3252 5.62437   3
  -2   1  17 45.8005 5.99179   3
  -1  -1  17 5.82776 3.09449   3
  -1   1  17 9.09735 3.23442   3
   0  -1  17 -5.1301 3.07511   3
   0   1  17 3.24181 3.12239   3
   1  -1  17 12.3694 4.10737   3
   1   1  17 8.31872 3.54996   3
   2  -1  17 28.6086 5.26742   3
   2   1  17 50.3133 6.97913   3
   3  -1  17 4.14316 4.61587   3
   3   1  17 0.47853 3.86302   3
   4  -1  17 233.445 18.1425   3
   5  -1  17 1.45170 5.14573   3
  -5  -1 -17 4.61296 4.24793   2
   5   1  17 2.41016 4.56120   3
  -6  -1 -17 73.2440 9.26983   2
   6  -1  17 52.5900 8.20813   3
   6   1  17 38.5147 7.02187   3
  -7  -2  17 15.1074 5.31338   2
  -7   2  17 11.8147 4.72186   2
  -6  -2  17 39.4295 6.06315   2
  -6   2  17 28.3820 6.17017   2
  -6   2  17 43.1938 6.26324   3
  -5  -2  17 222.858 16.1784   2
  -5   2  17 197.943 14.9874   3
  -5   2  17 237.408 15.8802   2
  -4  -2  17 5.64999 4.12981   2
  -4   2  17 7.15170 3.16282   3
  -4   2  17 4.60490 3.04750   2
  -3   2  17 232.573 15.9175   2
  -3   2  17 231.555 15.8568   3
  -2  -2  17 56.5843 7.09204   2
  -2   2  17 65.5261 7.14870   3
  -1  -2  17 0.01483 2.48694   3
  -1   2  17 4.16691 2.97427   3
   0  -2  17 95.9343 9.57991   3
   0   2  17 136.144 9.97374   3
   1  -2  17 227.072 18.6159   3
   1   2  17 314.170 18.7806   3
   2  -2  17 0.86627 4.09701   3
   2   2  17 -0.2884 3.44789   3
   3  -2  17 148.786 13.6846   3
   3   2  17 164.038 12.9033   3
   4  -2  17 32.3621 6.88071   3
   4   2  17 30.3488 5.65470   3
  -5  -2 -17 -3.5045 3.81767   2
   5  -2  17 3.70882 5.91779   3
   5   2  17 0.03968 4.59228   3
   6  -2  17 25.7312 7.63696   3
  -6  -2 -17 32.9222 5.87592   2
   6   2  17 14.9327 6.42832   3
  -6   2 -17 35.7118 6.10721   2
  -7  -3  17 10.6279 5.55671   2
  -7   3  17 15.0955 5.29128   2
  -6  -3  17 15.0841 5.03406   2
  -6   3  17 16.7823 4.20858   3
  -5  -3  17 2.62898 4.00977   2
  -5   3  17 7.14831 3.71383   2
  -5   3  17 9.52343 3.61468   3
  -4  -3  17 44.3436 5.81299   2
  -4   3  17 46.4672 6.38835   2
  -3  -3  17 31.3541 4.94763   2
  -3   3  17 27.4053 4.49067   3
  -2  -3  17 22.7931 6.04597   2
  -2   3  17 21.2222 4.14227   3
  -1   3  17 22.0960 3.94134   3
   0   3  17 5.08798 3.63747   3
   1  -3  17 67.3646 8.45634   3
   1   3  17 83.9171 8.40681   3
   2  -3  17 33.0970 5.89138   3
   2   3  17 45.3159 6.85845   3
   3  -3  17 -6.1282 4.86759   3
   3   3  17 2.33531 6.06216   3
   4  -3  17 119.261 13.3192   3
  -4  -3 -17 127.130 10.9614   2
   4   3  17 103.859 11.0826   3
  -5  -3 -17 2.12100 4.61118   2
   5  -3  17 7.28016 6.34041   3
   5   3  17 5.04822 4.58440   3
  -7  -4  17 5.82309 5.72196   2
  -7   4  17 3.49130 4.78641   3
  -7   4  17 7.54853 4.97124   2
  -6  -4  17 89.4734 10.4891   2
  -6   4  17 85.8050 9.80142   2
  -6   4  17 67.4788 9.43216   3
  -5  -4  17 39.9592 6.26506   2
  -5   4  17 54.5945 7.21253   2
  -5   4  17 52.2857 7.89994   3
  -4  -4  17 3.00730 3.93867   2
  -4   4  17 5.02122 3.77899   3
  -3  -4  17 97.5806 9.09602   2
  -3   4  17 89.4513 9.18005   3
  -2  -4  17 242.719 16.9182   2
  -2   4  17 241.872 17.0533   3
  -1   4  17 4.45706 3.63696   3
   0   4  17 214.721 15.5638   3
   1   4  17 98.4253 9.81668   3
   3   4  17 25.2989 5.16837   3
  -4  -4 -17 133.957 11.6935   2
   4   4  17 120.904 11.8271   3
  -5  -4 -17 5.42463 4.56545   2
   5   4  17 11.8256 4.84774   3
  -6  -5  17 4.66458 4.90554   2
  -6   5  17 -4.8609 4.10084   2
  -5  -5  17 1.33694 4.40066   2
  -5   5  17 0.68203 4.41463   3
  -4  -5  17 4.85736 4.00096   2
  -4   5  17 3.66784 4.25471   3
  -3  -5  17 24.8081 4.72579   2
  -3   5  17 21.4243 4.88824   3
  -2  -5  17 -1.9245 3.31193   2
  -2   5  17 7.24062 4.23765   3
  -1   5  17 57.4388 7.95064   3
   1   5  17 153.480 12.7829   3
  -2  -5 -17 10.2168 4.28822   2
   2   5  17 10.3597 4.44282   3
  -3  -5 -17 5.21978 5.79019   2
   3   5  17 14.2789 4.75616   3
  -4  -5 -17 12.5499 5.19403   2
   4   5  17 10.2720 4.97703   3
  -5  -6  17 6.64603 5.42350   2
  -5   6  17 7.22024 5.09636   3
  -4  -6  17 16.6121 4.91049   2
  -4   6  17 3.64904 4.68314   3
  -3  -6  17 -0.1560 3.71030   2
  -3   6  17 0.45610 4.43526   3
  -2  -6  17 210.451 15.5164   2
  -2   6  17 215.766 16.2345   3
  -1   6  17 -3.5130 3.95067   3
   0   6  17 207.656 15.7113   3
  -1  -6 -17 5.30806 4.40767   2
   1   6  17 8.53141 4.62276   3
  -2  -6 -17 3.32700 4.36129   2
   2   6  17 -4.9246 3.99923   3
  -3  -6 -17 8.23231 5.94155   2
   3   6  17 5.72131 4.86210   3
  -3  -7  17 6.83676 4.56669   2
  -3   7  17 18.1091 5.65674   3
  -2  -7  17 -1.5648 4.02753   2
  -2   7  17 4.95754 4.97156   3
  -1   7  17 49.3227 6.72279   3
   0   7  17 5.50635 4.52679   3
  -1  -7 -17 91.6407 15.0698   2
   1   7  17 76.3361 10.1064   3
  -7   0  18 -3.0623 4.79565   2
  -6   0  18 58.8790 9.38647   2
  -5   0  18 1.49104 4.04245   2
  -4   0  18 0.78126 3.42069   2
  -3   0  18 1.78028 4.39081   2
  -3   0  18 1.42387 3.37659   3
  -2   0  18 387.469 24.7091   3
  -1   0  18 0.26113 3.36586   3
   0   0  18 291.406 19.9571   3
   1   0  18 4.12232 4.14354   3
   2   0  18 5.32769 4.20810   3
   3   0  18 -6.6328 4.72121   3
   4   0  18 252.502 19.3901   3
   5   0  18 -11.334 5.47837   3
  -5   0 -18 -4.9239 4.75093   2
  -7  -1  18 43.7046 7.36898   2
  -7   1  18 33.2142 6.31639   2
  -6  -1  18 4.78574 4.73157   2
  -6   1  18 7.06578 4.93102   2
  -5  -1  18 6.38868 4.18000   2
  -5   1  18 -1.5027 3.74475   2
  -4  -1  18 5.17776 3.83117   2
  -4   1  18 3.87043 3.29535   3
  -4   1  18 5.77441 3.97824   2
  -3  -1  18 101.963 9.52856   2
  -3   1  18 102.989 8.93023   3
  -2  -1  18 1.81173 3.15270   3
  -2  -1  18 2.54571 3.56249   2
  -2   1  18 -2.0450 3.32111   3
  -1  -1  18 30.4139 4.45199   3
  -1   1  18 27.0289 4.69309   3
   0  -1  18 2.30467 3.88702   3
   0   1  18 1.70094 3.49403   3
   1  -1  18 61.4570 8.96653   3
   1   1  18 66.2006 8.27289   3
   2  -1  18 7.88221 4.90188   3
   2   1  18 8.14698 4.39172   3
   3  -1  18 3.16399 5.39744   3
   4  -1  18 5.55865 6.41562   3
   4   1  18 6.99087 4.98740   3
  -5  -1 -18 6.44487 5.13636   2
   5  -1  18 15.6100 6.39247   3
   5   1  18 3.16110 5.36908   3
  -6  -2  18 51.1310 7.14512   2
  -6   2  18 53.3854 8.90177   2
  -5  -2  18 24.1960 5.26586   2
  -5   2  18 18.9514 4.61954   2
  -4  -2  18 3.59251 3.69234   2
  -4   2  18 8.42759 3.58689   3
  -3  -2  18 71.8180 8.33778   2
  -3   2  18 71.6415 7.95524   3
  -2  -2  18 244.089 16.9511   2
  -2   2  18 244.954 16.9742   3
  -1  -2  18 -1.9277 4.61227   3
  -1   2  18 1.80535 3.35092   3
   0  -2  18 207.995 16.3229   3
   0   2  18 266.898 17.0181   3
   1  -2  18 33.3122 5.57619   3
   1   2  18 57.4414 7.87271   3
   2  -2  18 -5.8491 4.39397   3
   2   2  18 -4.5928 3.78822   3
   3  -2  18 77.2340 10.7858   3
   3   2  18 66.3381 9.44190   3
   4  -2  18 135.882 19.3541   3
   4   2  18 149.930 13.5794   3
   5  -2  18 -0.7554 6.59008   3
   5   2  18 -6.7667 5.10570   3
  -6  -3  18 44.5574 6.78736   2
  -6   3  18 45.6168 6.54752   2
  -5  -3  18 0.06451 4.42129   2
  -5   3  18 4.65358 4.10331   3
  -5   3  18 3.36748 4.40951   2
  -4  -3  18 36.4170 5.36147   2
  -4   3  18 27.1877 4.71699   3
  -4   3  18 33.7460 6.84366   2
  -3  -3  18 17.1458 4.44977   2
  -3   3  18 19.2977 4.28363   3
  -2  -3  18 3.28569 3.47107   2
  -2   3  18 4.28499 3.57699   3
  -1   3  18 33.1115 4.98391   3
   0   3  18 11.8780 4.18324   3
   1   3  18 19.0755 4.89840   3
   2   3  18 19.2709 7.01381   3
   3  -3  18 2.56240 5.72452   3
   3   3  18 -1.2815 4.39615   3
  -4  -3 -18 35.0133 5.80754   2
   4  -3  18 43.4126 11.5418   3
   4   3  18 27.7617 5.76336   3
  -5  -4  18 94.0539 10.3494   2
  -5   4  18 85.2238 10.2262   3
  -4  -4  18 0.25368 3.87820   2
  -4   4  18 3.24482 4.26704   3
  -3  -4  18 137.573 11.8490   2
  -3   4  18 139.273 12.0340   3
  -2  -4  18 128.638 10.8844   2
  -2   4  18 127.426 11.3812   3
  -1   4  18 2.23789 3.96808   3
   0   4  18 27.0508 6.01552   3
   1   4  18 151.445 13.0120   3
   2   4  18 -4.2301 4.14430   3
  -3  -4 -18 231.254 16.8760   2
   3   4  18 215.830 17.1211   3
   4   4  18 91.6826 10.9193   3
  -5  -5  18 5.17196 4.89341   2
  -5   5  18 7.83874 5.31665   3
  -4  -5  18 28.6032 5.70838   2
  -4   5  18 25.7058 8.11816   3
  -3  -5  18 0.34073 4.10991   2
  -2  -5  18 14.7411 4.44947   2
  -2   5  18 11.7842 6.98457   3
  -1   5  18 0.06101 4.09119   3
   0   5  18 39.1300 5.80388   3
   1   5  18 5.47937 4.69707   3
  -2  -5 -18 18.4438 4.90356   2
   2   5  18 15.6999 5.10658   3
  -3  -5 -18 6.82276 5.08134   2
   3   5  18 0.96763 4.72368   3
  -3  -6  18 130.314 12.2594   2
  -3   6  18 148.067 13.1401   3
  -2  -6  18 9.28909 4.42958   2
  -2   6  18 11.9165 5.24957   3
  -1   6  18 3.56562 4.90620   3
   0   6  18 2.82109 4.68698   3
  -1  -6 -18 204.613 16.7749   2
   1   6  18 154.507 14.4942   3
  -6   0  19 3.04594 5.27736   2
  -5   0  19 125.829 11.9558   2
  -4   0  19 1.39509 3.60625   2
  -3   0  19 140.491 11.7327   2
  -1   0  19 6.52394 4.18352   3
   0   0  19 -0.0456 4.35146   3
   1   0  19 203.788 15.9423   3
   2   0  19 -0.2162 5.22910   3
   3   0  19 245.356 19.7036   3
   4   0  19 -7.2353 6.02726   3
  -6  -1  19 168.012 14.8367   2
  -6   1  19 163.642 14.5657   2
  -5  -1  19 3.58728 4.33292   2
  -5   1  19 0.82028 4.30286   2
  -4  -1  19 27.9347 4.96096   2
  -4   1  19 23.2216 4.70892   2
  -3  -1  19 3.72179 4.11260   2
  -2   1  19 5.30235 3.85045   3
  -1   1  19 3.14839 4.03390   3
   0  -1  19 83.3114 10.1034   3
   0   1  19 96.0209 10.0277   3
   1  -1  19 -1.8493 4.84141   3
   1   1  19 7.38350 4.72488   3
   2  -1  19 16.8294 6.09998   3
   2   1  19 25.9543 6.88598   3
   3   1  19 -3.8190 5.33206   3
  -5  -2  19 76.9570 10.2327   2
  -5   2  19 88.9012 9.76044   2
  -4  -2  19 7.59266 4.48118   2
  -4   2  19 3.68841 4.00323   2
  -3  -2  19 107.860 10.0635   2
  -3   2  19 102.048 9.98970   3
  -2   2  19 37.2795 5.46098   3
  -1   2  19 14.0383 4.64549   3
   0   2  19 55.3443 8.82807   3
   1  -2  19 125.220 12.7703   3
   1   2  19 156.277 12.9260   3
   2  -2  19 -1.2834 5.40450   3
   2   2  19 -1.4914 4.85436   3
   3  -2  19 148.621 16.4461   3
   3   2  19 190.998 15.3273   3
  -5  -3  19 21.0131 5.64832   2
  -5   3  19 11.0284 4.82979   2
  -4  -3  19 23.8474 5.45929   2
  -4   3  19 11.9337 4.68367   3
  -3  -3  19 51.7036 7.91686   2
  -3   3  19 58.6100 8.45076   3
  -2   3  19 2.01757 4.38748   3
  -1   3  19 32.6197 5.49384   3
   0   3  19 30.4809 6.01642   3
   1   3  19 -0.4511 4.47719   3
   2   3  19 7.34761 4.76422   3
   3   3  19 1.66377 5.08332   3
  -4  -4  19 23.9226 5.69550   2
  -4   4  19 18.0117 5.30758   3
  -3  -4  19 11.6364 4.61890   2
  -3   4  19 15.0155 5.44514   3
  -2   4  19 83.2054 12.1866   3
  -1   4  19 5.46651 7.06787   3
   0   4  19 161.249 13.9666   3
   1   4  19 70.5367 9.74007   3
   2   4  19 -2.5663 4.68922   3
  -2   5  19 2.89547 4.96442   3
  -1   5  19 36.5393 6.19241   3
   0   5  19 7.17797 5.14225   3
  -4   0  20 49.9365 6.95713   2
   0   0  20 127.249 12.8293   3
   1   0  20 3.05483 5.60536   3
   2   0  20 4.78062 9.50623   3
  -4  -1  20 3.77892 4.50797   2
  -4   1  20 3.96944 4.55183   2
  -1   1  20 58.2891 9.45336   3
   0   1  20 7.76194 5.28300   3
   1  -1  20 1.20796 7.07936   3
   1   1  20 1.11410 6.82260   3
   2  -1  20 5.94249 6.42275   3
   2   1  20 9.33271 6.39306   3
  -3  -2  20 11.9025 5.13572   2
  -2   2  20 81.1053 10.2010   3
  -1   2  20 3.41325 5.08614   3
   0   2  20 74.1998 11.3726   3
   1   2  20 34.7931 6.72851   3
  -2   3  20 16.2188 5.47298   3
   0   3  20 32.6254 6.25006   3
   0   0   0    0.00    0.00   0

 _exptl_absorpt_process_details
)
 SADABS 2016/2: Krause, L., Herbst-Irmer, R., Sheldrick G.M. & Stalke D.,
 J. Appl. Cryst. 48 (2015) 3-10
)
 _exptl_absorpt_correction_type   multi-scan
 _exptl_absorpt_correction_T_max  0.7465
 _exptl_absorpt_correction_T_min  0.3156
 _exptl_special_details
)
 The following wavelength and cell were deduced by SADABS from the
 direction cosines etc. They are given here for emergency use only:
 CELL 0.71075    8.253    8.652   13.477   89.991   95.187   89.973
)

;
_shelx_hkl_checksum              71601
loop_
_space_group_symop_operation_xyz
'x, y, z'
'-x+1/2, y+1/2, -z+1/2'
'-x, -y, -z'
'x-1/2, -y-1/2, z-1/2'
loop_
_atom_site_label
_atom_site_type_symbol
_atom_site_fract_x
_atom_site_fract_y
_atom_site_fract_z
_atom_site_U_iso_or_equiv
_atom_site_adp_type
_atom_site_occupancy
_atom_site_site_symmetry_order
_atom_site_calc_flag
_atom_site_refinement_flags_posn
_atom_site_refinement_flags_adp
C1 C 0.2422(6) 0.3267(5) 0.1290(3) 0.0263(8) Uani 1 1 d . .
H1 H 0.254315 0.262443 0.186357 0.032 Uiso 1 1 calc R U
C2 C 0.2178(7) 0.2611(5) 0.0355(4) 0.0326(10) Uani 1 1 d . .
H2 H 0.212679 0.151949 0.028302 0.039 Uiso 1 1 calc R U
C3 C 0.2009(6) 0.3554(6) -0.0477(3) 0.0327(10) Uani 1 1 d . .
H3 H 0.185266 0.311961 -0.112568 0.039 Uiso 1 1 calc R U
C4 C 0.2070(6) 0.5137(6) -0.0348(3) 0.0298(9) Uani 1 1 d . .
H4 H 0.193936 0.579450 -0.091388 0.036 Uiso 1 1 calc R U
C5 C 0.2322(5) 0.5786(5) 0.0600(3) 0.0235(7) Uani 1 1 d . .
C6 C 0.2400(8) 0.7473(5) 0.0807(4) 0.0365(11) Uani 1 1 d . .
H6A H 0.146601 0.777781 0.116059 0.055 Uiso 1 1 calc R U
H6B H 0.237863 0.804167 0.017769 0.055 Uiso 1 1 calc R U
H6C H 0.340861 0.771049 0.121956 0.055 Uiso 1 1 calc R U
N1 N 0.2489(4) 0.4813(4) 0.1392(3) 0.0200(6) Uani 1 1 d . .
O1 O 0.2738(4) 0.5397(3) 0.2315(2) 0.0241(6) Uani 1 1 d . .
I1 I 0.56998(3) 0.54018(3) 0.28267(2) 0.02096(9) Uani 1 1 d . .
I2 I 0.90140(4) 0.53823(4) 0.32863(3) 0.03567(11) Uani 1 1 d . .
loop_
_atom_site_aniso_label
_atom_site_aniso_U_11
_atom_site_aniso_U_22
_atom_site_aniso_U_33
_atom_site_aniso_U_23
_atom_site_aniso_U_13
_atom_site_aniso_U_12
C1 0.032(2) 0.0238(18) 0.0228(19) 0.0022(15) 0.0027(15) -0.0005(16)
C2 0.045(3) 0.0222(19) 0.030(2) -0.0036(16) 0.0035(19) -0.0039(18)
C3 0.042(3) 0.033(2) 0.024(2) -0.0061(17) 0.0064(18) -0.0049(19)
C4 0.037(2) 0.032(2) 0.0207(19) 0.0008(16) 0.0042(16) -0.0034(18)
C5 0.0255(19) 0.0217(16) 0.0237(18) -0.0007(14) 0.0037(14) -0.0003(14)
C6 0.056(3) 0.024(2) 0.029(2) 0.0008(17) 0.002(2) 0.001(2)
N1 0.0165(14) 0.0253(15) 0.0187(15) -0.0017(12) 0.0040(11) -0.0028(12)
O1 0.0215(14) 0.0314(15) 0.0190(13) -0.0049(11) 0.0002(10) 0.0011(11)
I1 0.02080(14) 0.02210(13) 0.01997(14) 0.00027(8) 0.00183(8) -0.00047(9)
I2 0.02219(16) 0.04021(19) 0.0427(2) 0.00558(13) -0.00741(12) -0.00037(11)
loop_
_atom_type_symbol
_atom_type_description
_atom_type_scat_dispersion_real
_atom_type_scat_dispersion_imag
_atom_type_scat_source
C C 0.0033 0.0016 'International Tables Vol C Tables 4.2.6.8 and 6.1.1.4'
H H 0.0000 0.0000 'International Tables Vol C Tables 4.2.6.8 and 6.1.1.4'
N N 0.0061 0.0033 'International Tables Vol C Tables 4.2.6.8 and 6.1.1.4'
O O 0.0106 0.0060 'International Tables Vol C Tables 4.2.6.8 and 6.1.1.4'
I I -0.4742 1.8119 'International Tables Vol C Tables 4.2.6.8 and 6.1.1.4'
loop_
_geom_angle_atom_site_label_1
_geom_angle_atom_site_label_2
_geom_angle_atom_site_label_3
_geom_angle
N1 C1 C2 120.2(4)
N1 C1 H1 119.9
C2 C1 H1 119.9
C1 C2 C3 119.6(4)
C1 C2 H2 120.2
C3 C2 H2 120.2
C4 C3 C2 118.9(4)
C4 C3 H3 120.6
C2 C3 H3 120.6
C3 C4 C5 121.0(4)
C3 C4 H4 119.5
C5 C4 H4 119.5
N1 C5 C4 117.9(4)
N1 C5 C6 117.4(4)
C4 C5 C6 124.6(4)
C5 C6 H6A 109.5
C5 C6 H6B 109.5
H6A C6 H6B 109.5
C5 C6 H6C 109.5
H6A C6 H6C 109.5
H6B C6 H6C 109.5
O1 N1 C1 118.1(3)
O1 N1 C5 119.5(3)
C1 N1 C5 122.4(4)
N1 O1 I1 108.8(2)
O1 I1 I2 176.84(7)
loop_
_geom_bond_atom_site_label_1
_geom_bond_atom_site_label_2
_geom_bond_distance
C1 N1 1.345(5)
C1 C2 1.381(6)
C1 H1 0.9500
C2 C3 1.384(7)
C2 H2 0.9500
C3 C4 1.381(7)
C3 H3 0.9500
C4 C5 1.394(6)
C4 H4 0.9500
C5 N1 1.358(5)
C5 C6 1.486(6)
C6 H6A 0.9800
C6 H6B 0.9800
C6 H6C 0.9800
N1 O1 1.341(4)
O1 I1 2.480(3)
I1 I2 2.7509(5)
loop_
_geom_torsion_atom_site_label_1
_geom_torsion_atom_site_label_2
_geom_torsion_atom_site_label_3
_geom_torsion_atom_site_label_4
_geom_torsion
N1 C1 C2 C3 0.2(8)
C1 C2 C3 C4 -0.7(8)
C2 C3 C4 C5 0.9(8)
C3 C4 C5 N1 -0.6(7)
C3 C4 C5 C6 -179.8(5)
C2 C1 N1 O1 -179.6(4)
C2 C1 N1 C5 0.1(7)
C4 C5 N1 O1 179.8(4)
C6 C5 N1 O1 -0.9(6)
C4 C5 N1 C1 0.1(6)
C6 C5 N1 C1 179.4(4)
C1 N1 O1 I1 83.7(4)
C5 N1 O1 I1 -96.0(4)
