#------------------------------------------------------------------------------
#$Date: 2020-01-04 06:01:41 +0200 (Sat, 04 Jan 2020) $
#$Revision: 246584 $
#$URL: file:///home/coder/svn-repositories/cod/cif/1/55/27/1552746.cif $
#------------------------------------------------------------------------------
#
# This file is available in the Crystallography Open Database (COD),
# http://www.crystallography.net/
#
# All data on this site have been placed in the public domain by the
# contributors.
#
data_1552746
loop_
_publ_author_name
'Freitag, Matthew'
'DeCicco, Racquel C.'
'Black, Allison'
'Ang, Xiuzhu'
'Young, Christopher N.'
'Resch, Daniel'
'Halada, Gary P.'
'Phillips, Brian L.'
'Goroff, Nancy S.'
_publ_section_title
;
 Polymerization Studies of Diiodohexatriyne and Diiodooctatetrayne
 Cocrystals
;
_journal_issue                   22
_journal_name_full               Macromolecules
_journal_page_first              8563
_journal_paper_doi               10.1021/acs.macromol.9b00960
_journal_volume                  52
_journal_year                    2019
_chemical_formula_moiety         '2(C6 I2), C16 H26 N4 O2'
_chemical_formula_sum            'C28 H26 I4 N4 O2'
_chemical_formula_weight         958.16
_space_group_crystal_system      triclinic
_space_group_IT_number           2
_space_group_name_Hall           '-P 1'
_space_group_name_H-M_alt        'P -1'
_symmetry_Int_Tables_number      2
_atom_sites_solution_primary     iterative
_audit_creation_date             2017-02-17
_audit_creation_method
;
Olex2 1.2
(compiled 2017.01.04 svn.r3372 for OlexSys, GUI svn.r5292)
;
_cell_angle_alpha                90.726(6)
_cell_angle_beta                 96.620(5)
_cell_angle_gamma                90.949(5)
_cell_formula_units_Z            1
_cell_length_a                   4.8910(2)
_cell_length_b                   8.2349(6)
_cell_length_c                   20.7211(15)
_cell_measurement_reflns_used    2516
_cell_measurement_theta_max      26.4580
_cell_measurement_theta_min      3.8030
_cell_volume                     828.81(9)
_computing_cell_refinement       'CrysAlisPro 1.171.38.43 (Rigaku OD, 2015)'
_computing_data_collection       'CrysAlisPro 1.171.38.43 (Rigaku OD, 2015)'
_computing_data_reduction        'CrysAlisPro 1.171.38.43 (Rigaku OD, 2015)'
_computing_molecular_graphics    'Olex2 (Dolomanov et al., 2009)'
_computing_publication_material  'Olex2 (Dolomanov et al., 2009)'
_computing_structure_refinement  'olex2.refine (Bourhis et al., 2015)'
_computing_structure_solution    'olex2.solve (Bourhis et al., 2015)'
_diffrn_detector                 'CCD plate'
_diffrn_detector_area_resol_mean 10.4962
_diffrn_detector_type            Atlas
_diffrn_measured_fraction_theta_full 0.9969
_diffrn_measured_fraction_theta_max 0.8553
_diffrn_measurement_details
;
List of Runs (angles in degrees, time in seconds):

  # Type    Start    End  Width  t~exp~   \w     \q     \k     \f   Frames
--------------------------------------------------------------------------
  1  \w    -13.00  84.50   0.75   33.83    --   10.94  37.00-120.00  130
  2  \w    -25.00  29.00   0.75   33.83    --  -11.72 -99.00-120.00   72
  3  \w    -53.00  67.00   0.75   33.83    --  -11.72  19.00  60.00  160
  4  \w    -25.00   2.00   0.75   33.83    --   10.94 -99.00  90.00   36
  5  \w    -86.00  13.00   0.75   33.83    --  -11.72 -37.00  30.00  132
  6  \w    -40.00  60.50   0.75   33.83    --  -11.72  57.00-180.00  134
;
_diffrn_measurement_device       'four-circle diffractometer'
_diffrn_measurement_device_type  'Xcalibur, Atlas, Gemini'
_diffrn_measurement_method       '\w scans'
_diffrn_orient_matrix_type
'CrysAlisPro convention (1999,Acta A55,543-557)'
_diffrn_orient_matrix_UB_11      0.0266758000
_diffrn_orient_matrix_UB_12      -0.0505155000
_diffrn_orient_matrix_UB_13      0.0274028000
_diffrn_orient_matrix_UB_21      0.0005302000
_diffrn_orient_matrix_UB_22      -0.0688852000
_diffrn_orient_matrix_UB_23      -0.0208790000
_diffrn_orient_matrix_UB_31      0.1435722000
_diffrn_orient_matrix_UB_32      0.0112308000
_diffrn_orient_matrix_UB_33      -0.0009586000
_diffrn_radiation_monochromator  graphite
_diffrn_radiation_probe          x-ray
_diffrn_radiation_type           'Mo K\a'
_diffrn_radiation_wavelength     0.71073
_diffrn_reflns_av_R_equivalents  0.0514
_diffrn_reflns_av_unetI/netI     0.0618
_diffrn_reflns_limit_h_max       6
_diffrn_reflns_limit_h_min       -6
_diffrn_reflns_limit_k_max       11
_diffrn_reflns_limit_k_min       -10
_diffrn_reflns_limit_l_max       27
_diffrn_reflns_limit_l_min       -28
_diffrn_reflns_number            11194
_diffrn_reflns_theta_full        25.0000
_diffrn_reflns_theta_max         29.85
_diffrn_reflns_theta_min         3.84
_diffrn_source                   'fine-focus sealed X-ray tube'
_diffrn_source_type              'Enhance (Mo) X-ray Source'
_exptl_absorpt_coefficient_mu    3.789
_exptl_absorpt_correction_T_max  0.996
_exptl_absorpt_correction_T_min  0.924
_exptl_absorpt_correction_type   analytical
_exptl_absorpt_process_details
;
CrysAlisPro 1.171.38.43 (Rigaku Oxford Diffraction, 2015)
Analytical numeric absorption correction using a multifaceted crystal
			model based on expressions derived by R.C. Clark & J.S. Reid.
(Clark, R. C. & Reid, J. S. (1995). Acta Cryst. A51, 887-897)
Empirical absorption correction using spherical harmonics,
 implemented in SCALE3 ABSPACK scaling algorithm.
;
_exptl_crystal_density_diffrn    1.9195
_exptl_crystal_F_000             448.2739
_exptl_crystal_size_max          0.878
_exptl_crystal_size_mid          0.134
_exptl_crystal_size_min          0.022
_refine_diff_density_max         2.8152
_refine_diff_density_min         -1.8057
_refine_diff_density_rms         0.3275
_refine_ls_d_res_high            0.7140
_refine_ls_d_res_low             5.3088
_refine_ls_goodness_of_fit_ref   1.0394
_refine_ls_hydrogen_treatment    constr
_refine_ls_matrix_type           full
_refine_ls_number_constraints    20
_refine_ls_number_parameters     171
_refine_ls_number_reflns         4079
_refine_ls_number_restraints     0
_refine_ls_restrained_S_all      1.0394
_refine_ls_R_factor_all          0.1384
_refine_ls_R_factor_gt           0.0866
_refine_ls_shift/su_max          0.0005
_refine_ls_shift/su_mean         0.0000
_refine_ls_structure_factor_coef Fsqd
_refine_ls_weighting_details
'w=1/[\s^2^(Fo^2^)+(0.0888P)^2^+10.5882P] where P=(Fo^2^+2Fc^2^)/3'
_refine_ls_weighting_scheme      calc
_refine_ls_wR_factor_gt          0.2090
_refine_ls_wR_factor_ref         0.2419
_reflns_Friedel_coverage         0.0
_reflns_limit_h_max              6
_reflns_limit_h_min              -6
_reflns_limit_k_max              11
_reflns_limit_k_min              -11
_reflns_limit_l_max              28
_reflns_limit_l_min              0
_reflns_number_gt                2452
_reflns_number_total             4079
_reflns_threshold_expression     I>=2u(I)
_iucr_refine_instructions_details
;
TITL 
CELL 0.71073 4.891 8.2349 20.7211 90.726 96.62 90.949
ZERR 1 0.0002 0.0006 0.0015 0.006 0.005 0.005
LATT 1
SFAC  C 2.310 20.844 1.02 10.208 1.589 0.569 0.865 51.651 0.216 0.003 0.002 =
 11.5 0.77 12.011
SFAC  H 0.493 10.511 0.323 26.126 0.14 3.142 0.041 57.8 0.003 0 0 0.62 0.32 =
 1.008
SFAC  N 12.213 0.006 3.132 9.893 2.013 28.998 1.166 0.583 -11.529 0.006 =
 0.003 19.6 0.7 14.007
SFAC  O 3.049 13.277 2.287 5.701 1.546 0.324 0.867 32.909 0.251 0.011 0.006 =
 32.5 0.66 15.999
SFAC  I 20.147 4.347 18.995 0.381 7.514 27.766 2.273 66.878 4.071 -0.474 =
 1.812 7730 1.33 126.904
UNIT 28 26 4 2 4


L.S. 4
PLAN  20
FMAP 2
ACTA 50
MERG 2
WGHT 0.0888 10.5882
FVAR 2.117612
REM <olex2.extras>
REM <HklSrc "%.\\exp_3467.hkl">
REM </olex2.extras>

I1    5    -0.00815  0.20457  0.08922  11.00000  0.06184  0.07238  0.05261 =
 0.02506  0.00975  0.00140 
C6    1    -0.06661  0.11815  0.17925  11.00000  0.03288  0.03811  0.04694 =
 0.00198  0.00482 -0.00009 
C9    1    -0.33931  0.10171  0.19731  11.00000  0.04425  0.05504  0.05170 =
 0.00376  0.01062  0.00076 
C11   1     0.42658  0.08985  0.20902  11.00000  0.03806  0.06867  0.05384 =
 0.01049  0.00972 -0.00048 
C13   1     0.15089  0.07517  0.22381  11.00000  0.03563  0.05269  0.05849 =
 0.00752  0.00813 -0.00469 
I2    5    -0.04125 -0.13965  0.41712  11.00000  0.15273  0.10353  0.04623 =
 0.01400  0.02552 -0.03641 
C0AA  1     0.10682  0.01169  0.28652  11.00000  0.04438  0.07217  0.06652 =
 0.00676  0.00761 -0.00164 
C7    1     0.06075 -0.04094  0.33524  11.00000  0.07964  0.06925  0.04222 =
 0.01274  0.02009 -0.01179 

C     1     0.42484  0.58864  0.21679  11.00000  0.05101  0.07657  0.05017 =
 0.00662  0.00434 -0.00497 
AFIX 23
Ha    2     0.32578  0.50056  0.19229  11.00000 -1.20000 
Hb    2     0.29021  0.66388  0.22984  11.00000 -1.20000 
AFIX 0
C3AA  1     0.58357  0.52131  0.27634  11.00000  0.07727  0.07386  0.04903 =
 0.00682  0.00676 -0.01421 
AFIX 23
H3Aa  2     0.69654  0.43364  0.26340  11.00000 -1.20000 
H3Ab  2     0.70606  0.60568  0.29675  11.00000 -1.20000 
AFIX 0
C4AA  1     0.40370  0.45768  0.32602  11.00000  0.08849  0.10079  0.04959 =
 0.00853  0.01672 -0.02816 
AFIX 23
H4Aa  2     0.29554  0.54574  0.34059  11.00000 -1.20000 
H4Ab  2     0.27742  0.37502  0.30571  11.00000 -1.20000 
AFIX 0
C5    1     0.60647  0.67541  0.17341  11.00000  0.04805  0.06246  0.04982 =
 0.00567  0.01090 -0.00427 
AFIX 23
H5a   2     0.70256  0.76474  0.19776  11.00000 -1.20000 
H5b   2     0.74375  0.60071  0.16130  11.00000 -1.20000 
AFIX 0
C2AA  1     0.57778  0.38504  0.38506  11.00000  0.12013  0.13484  0.05916 =
 0.03258  0.00888 -0.03459 
AFIX 23
H2Aa  2     0.67589  0.29133  0.37163  11.00000 -1.20000 
H2Ab  2     0.71148  0.46490  0.40452  11.00000 -1.20000 
AFIX 0
C5AA  1     0.55743  0.56543  0.02450  11.00000  0.03294  0.03697  0.03764 =
 0.00979  0.00291  0.00471 
C1    1     0.38569  0.33586  0.43320  11.00000  0.18501  0.12509  0.06694 =
 0.00808  0.00870 -0.08045 
N2    3     0.25593  0.29653  0.46989  11.00000  0.21909  0.20507  0.08699 =
 0.04015  0.05642 -0.08856 
N1    3     0.37768  0.61533  0.06279  11.00000  0.02661  0.04770  0.04626 =
 0.00376  0.00460 -0.00245 
AFIX 43
H1    2     0.21481  0.57265  0.05860  11.00000 -1.20000 
AFIX 0
C2    1     0.44938  0.74130  0.11205  11.00000  0.05241  0.05192  0.04868 =
 -0.00215  0.00957 -0.00227 
AFIX 23
H2a   2     0.28227  0.79143  0.12295  11.00000 -1.20000 
H2b   2     0.56089  0.82455  0.09441  11.00000 -1.20000 
AFIX 0
O1    4     0.79543  0.61773  0.02763  11.00000  0.03877  0.04961  0.05674 =
 0.00224  0.01001 -0.00407 
HKLF 4

END
Q1 1 0.166667 -0.2 0.44 11 0.05 2.82
Q2 1 0.166667 0.2 0.08 11 0.05 2.61
Q3 1 -0.111111 -0.166667 0.413333 11 0.05 1.69
Q4 1 -0.111111 0.1 0.08 11 0.05 1.63
Q5 1 1 0.5 0.253333 11 0.05 1.6
Q6 1 -0.055556 0.333333 0.093333 11 0.05 1.57
Q7 1 0 0.2 0.133333 11 0.05 1.55
Q8 1 0.166667 0.666667 0.4 11 0.05 1.21
Q9 1 -0.055556 0.066667 0.24 11 0.05 1.2
Q10 1 -0.222222 0.2 0.093333 11 0.05 1.18
Q11 1 -0.055556 -0.066667 0.44 11 0.05 1.14
Q12 1 -0.388889 0 0.306667 11 0.05 1.04
Q13 1 0.388889 -0.033333 0.32 11 0.05 1.03
Q14 1 0.555556 0.7 0.146667 11 0.05 0.98
Q15 1 1.055556 0.533333 0.4 11 0.05 0.97
Q16 1 0.5 0.633333 0.093333 11 0.05 0.97
Q17 1 0.555556 0.566667 -0.106667 11 0.05 0.95
Q18 1 0.555556 0.6 0.013333 11 0.05 0.95
Q19 1 0.111111 0 0.133333 11 0.05 0.94
Q20 1 0.444444 0.633333 0.186667 11 0.05 0.94

  REM The information below was added by Olex2.
  REM
  REM R1 = 0.0866 for 2452 Fo > 4sig(Fo) and 0.1384 for all 4079 data
  REM 171 parameters refined using 0 restraints
  REM Highest difference peak 2.8152, deepest hole -1.8057
  REM Mean Shift 0.0000, Max Shift 0.0005.

  REM +++ Tabular Listing of Refinement Information +++
  REM R1_all = 0.1384
  REM R1_gt = 0.0866
  REM wR_ref = 0.2419
  REM GOOF = 1.0394
  REM Shift_max = 0.0005
  REM Shift_mean = 0.0000
  REM Reflections_all = 4079
  REM Reflections_gt = 2452
  REM Parameters = 171
  REM Hole = -1.8057
  REM Peak = 2.8152
  REM Flack = n/a

  
;
_cod_data_source_file            ma9b00960_si_003.cif
_cod_data_source_block           exp_3467
_cod_depositor_comments
'Adding full bibliography for 1552745--1552747.cif.'
_cod_database_code               1552746
_chemical_oxdiff_formula         'C28 H26 I4 N4 O2'
_chemical_oxdiff_usercomment     PIEDA
_reflns_odcompleteness_completeness 49.70
_reflns_odcompleteness_iscentric 1
_reflns_odcompleteness_theta     26.32
_olex2_refinement_description
;
1. Fixed Uiso
 At 1.2 times of:
  All C(H,H) groups, All N(H) groups
2.a Secondary CH2 refined with riding coordinates:
 C(Ha,Hb), C3AA(H3Aa,H3Ab), C4AA(H4Aa,H4Ab), C5(H5a,H5b), C2AA(H2Aa,H2Ab),
 C2(H2a,H2b)
2.b Aromatic/amide H refined with riding coordinates:
 N1(H1)
;
_iucr_refine_fcf_details
;
data_exp_3467
_computing_structure_refinement   'olex2.refine (Bourhis et al., 2015)'
_shelx_refln_list_code            4
loop_
  _space_group_symop_id
  _space_group_symop_operation_xyz
  1  x,y,z
  2  -x,-y,-z

_space_group_crystal_system       triclinic
_space_group_IT_number            2
_space_group_name_H-M_alt         'P -1'
_space_group_name_Hall            '-P 1'
_symmetry_space_group_name_H-M    'P -1'
_symmetry_space_group_name_Hall   '-P 1'
_symmetry_Int_Tables_number       2
_cell_length_a                    4.8910(2)
_cell_length_b                    8.2349(6)
_cell_length_c                    20.7211(15)
_cell_angle_alpha                 90.726(6)
_cell_angle_beta                  96.620(5)
_cell_angle_gamma                 90.949(5)
_cell_volume                      828.81(9)
loop_
  _refln_index_h
  _refln_index_k
  _refln_index_l
  _refln_F_squared_calc
  _refln_F_squared_meas
  _refln_F_squared_sigma
  _refln_F_squared_weight
  _refln_observed_status
-6 -3 4 1.947 42.482 41.560 82.788 o
-6 -3 5 43.314 37.943 41.410 72.278 o
-6 -3 6 64.258 80.640 47.132 52.270 o
-6 -3 7 9.775 -26.400 37.140 108.167 o
-6 -3 8 3.139 -31.524 36.731 114.267 o
-6 -3 9 0.231 7.459 32.090 148.144 o
-6 -3 10 3.846 -8.002 21.128 330.888 o
-6 -3 11 53.775 123.706 36.747 70.797 o
-6 -3 12 78.538 8.797 25.917 122.306 o
-6 -3 13 36.705 59.849 30.133 112.422 o
-6 -3 14 18.775 36.348 52.277 52.259 o
-6 -2 1 1.958 12.580 31.644 147.862 o
-6 -2 2 0.037 18.041 34.764 123.118 o
-6 -2 3 24.969 119.361 50.742 49.008 o
-6 -2 4 83.452 120.211 52.329 40.980 o
-6 -2 5 65.670 134.180 52.672 41.530 o
-6 -2 6 29.109 115.066 47.912 53.419 o
-6 -2 7 5.529 36.376 37.830 97.908 o
-6 -2 8 17.738 64.453 38.794 83.959 o
-6 -2 9 18.164 56.034 42.993 71.819 o
-6 -2 10 21.521 2.019 33.696 120.887 o
-6 -2 11 19.392 24.191 33.505 116.220 o
-6 -2 12 6.286 26.023 27.045 180.327 o
-6 -2 13 15.794 16.303 25.939 185.697 o
-6 -2 14 2.273 -12.072 26.340 220.750 o
-6 -2 15 7.058 -7.028 29.472 170.589 o
-6 -1 1 41.322 100.144 48.220 52.241 o
-6 -1 2 45.515 52.194 39.904 74.062 o
-6 -1 3 32.627 57.359 38.175 82.332 o
-6 -1 4 16.317 50.930 40.162 81.868 o
-6 -1 5 6.739 -7.885 30.213 163.137 o
-6 -1 6 48.933 70.076 43.025 63.477 o
-6 -1 7 123.226 237.846 62.682 26.814 o
-6 -1 8 77.267 112.504 50.776 43.732 o
-6 -1 9 5.946 75.299 45.423 65.906 o
-6 -1 10 0.140 -13.706 32.996 143.799 o
-6 -1 11 8.211 58.313 41.148 79.877 o
-6 -1 12 34.628 35.968 40.995 76.007 o
-6 -1 13 98.084 124.466 48.812 43.475 o
-6 -1 14 56.535 92.855 44.183 57.694 o
-6 0 1 1.368 -23.031 41.392 90.948 o
-6 0 2 2.067 -55.103 39.608 98.964 o
-6 0 3 1.570 22.928 33.550 128.628 o
-6 0 4 9.069 8.626 29.777 159.608 o
-6 0 5 54.070 157.444 56.750 37.136 o
-6 0 6 63.374 51.472 43.794 60.861 o
-6 0 7 15.948 43.258 36.159 99.323 o
-6 0 8 0.788 34.499 40.589 88.234 o
-6 0 9 41.078 102.509 44.824 58.234 o
-6 0 10 23.148 63.648 40.600 76.551 o
-6 0 11 9.823 10.487 31.811 140.023 o
-6 0 12 5.991 44.991 37.951 95.307 o
-6 0 13 1.792 0.205 29.704 174.948 o
-6 1 1 42.026 87.746 46.092 56.845 o
-6 1 2 60.959 23.892 32.955 96.774 o
-6 1 3 57.039 33.813 36.047 85.139 o
-6 1 4 34.291 -14.327 35.773 102.695 o
-6 1 5 11.480 -18.837 38.108 102.169 o
-6 1 6 0.082 -16.823 37.729 110.036 o
-6 1 7 39.279 53.012 40.792 73.105 o
-6 1 8 81.652 89.562 46.635 50.172 o
-6 1 9 95.231 120.850 50.175 42.338 o
-6 1 10 22.431 1.777 32.603 127.450 o
-6 1 11 0.390 -0.673 29.007 185.633 o
-6 1 12 4.042 7.231 21.321 307.947 o
-6 1 13 18.335 31.429 36.338 100.136 o
-6 1 14 37.200 30.567 38.200 85.193 o
-6 1 15 43.616 55.260 41.845 68.979 o
-6 1 16 7.807 18.556 36.179 109.538 o
-6 2 2 0.127 -8.300 34.718 129.912 o
-6 2 3 1.087 -21.719 36.390 117.651 o
-6 2 4 0.813 -30.853 38.017 107.991 o
-6 2 5 11.107 -99.426 47.828 66.222 o
-6 2 6 24.167 -28.802 38.345 95.376 o
-6 2 7 42.993 -40.670 39.111 85.180 o
-6 2 8 15.007 -61.404 27.553 180.965 o
-6 2 9 0.944 7.206 23.658 264.760 o
-6 2 10 23.101 80.830 30.010 114.962 o
-6 2 11 37.891 79.502 41.064 69.477 o
-6 2 12 7.325 -37.303 33.807 131.148 o
-6 2 13 0.769 -43.671 36.222 118.942 o
-6 2 14 0.019 0.052 30.646 166.795 o
-6 2 15 2.297 -60.938 42.129 87.489 o
-6 3 5 13.228 -15.635 34.120 124.544 o
-6 3 6 2.267 -39.712 31.785 152.688 o
-6 3 7 0.146 -64.019 29.358 181.598 o
-6 3 8 10.306 5.774 24.066 232.878 o
-6 3 9 42.032 55.007 27.980 121.408 o
-6 3 10 48.556 89.609 43.490 60.714 o
-6 3 11 27.131 73.116 45.223 62.458 o
-6 3 12 0.574 2.880 30.432 166.640 o
-6 3 13 2.483 86.827 46.285 63.346 o
-6 3 14 1.368 0.054 30.888 162.567 o
-6 4 4 1.270 82.082 42.204 75.116 o
-6 4 5 0.618 -45.508 39.292 101.214 o
-6 4 6 1.333 -24.807 37.357 111.531 o
-6 4 7 7.937 -18.953 24.578 237.316 o
-6 4 8 10.431 -40.659 38.758 99.416 o
-6 4 9 5.572 0.055 35.529 120.356 o
-6 4 10 1.181 5.679 31.933 149.503 o
-6 4 11 19.846 19.263 36.298 102.508 o
-6 5 3 10.829 -29.539 34.504 123.640 o
-6 5 4 38.433 48.278 42.281 69.859 o
-6 5 5 28.535 105.440 52.326 46.990 o
-6 5 6 6.717 15.573 35.521 114.813 o
-6 5 7 1.350 -37.195 39.753 98.563 o
-6 5 8 0.358 -1.537 34.305 132.870 o
-5 -7 7 0.420 -18.695 37.194 113.028 o
-5 -7 8 56.500 84.101 48.658 50.593 o
-5 -7 9 2.487 2.449 40.227 95.288 o
-5 -6 5 0.886 -17.687 34.127 133.828 o
-5 -6 6 27.992 22.419 35.496 101.617 o
-5 -6 7 11.623 26.568 38.284 95.337 o
-5 -6 8 62.763 116.248 52.034 43.382 o
-5 -6 9 6.617 24.525 36.512 106.770 o
-5 -6 10 7.967 35.492 38.171 95.501 o
-5 -6 11 0.265 67.334 32.942 117.932 o
-5 -6 12 90.147 117.675 40.251 56.991 o
-5 -6 13 28.659 -10.290 50.150 57.607 o
-5 -6 14 91.391 86.292 51.510 42.740 o
-5 -5 1 74.310 46.521 42.074 62.873 o
-5 -5 2 25.205 20.409 35.165 105.102 o
-5 -5 3 0.916 18.467 33.906 128.271 o
-5 -5 4 108.648 102.897 29.949 74.024 o
-5 -5 5 56.758 52.230 26.666 118.701 o
-5 -5 6 155.411 148.279 33.268 53.816 o
-5 -5 7 43.345 28.961 19.860 192.427 o
-5 -5 8 2.069 18.233 18.402 374.862 o
-5 -5 9 16.316 69.117 28.738 131.233 o
-5 -5 10 116.082 85.366 30.156 73.971 o
-5 -5 11 0.403 9.120 32.622 142.544 o
-5 -5 12 96.924 191.139 46.089 43.374 o
-5 -5 13 25.427 2.053 32.854 123.526 o
-5 -5 14 0.134 11.965 33.186 136.904 o
-5 -5 15 11.413 -3.495 51.754 56.785 o
-5 -5 16 131.666 4.422 60.457 33.606 o
-5 -4 1 8.825 10.989 34.005 124.550 o
-5 -4 2 105.967 55.779 40.226 59.678 o
-5 -4 3 21.692 20.114 17.018 302.944 o
-5 -4 4 132.296 162.195 26.045 66.845 o
-5 -4 5 4.826 16.602 18.322 365.298 o
-5 -4 6 8.632 -7.287 16.665 462.370 o
-5 -4 7 36.201 114.878 25.452 116.983 o
-5 -4 8 203.028 225.677 31.929 43.543 o
-5 -4 9 106.602 108.367 27.064 80.031 o
-5 -4 10 152.614 202.539 33.472 49.930 o
-5 -4 11 0.674 85.546 33.758 107.853 o
-5 -4 12 0.343 23.626 34.200 124.765 o
-5 -4 13 46.554 143.648 32.333 81.185 o
-5 -4 14 227.283 189.489 45.930 33.016 o
-5 -4 15 40.495 28.113 38.132 84.725 o
-5 -4 16 88.168 134.707 65.435 28.677 o
-5 -4 17 3.106 -79.198 66.165 35.616 o
-5 -3 1 103.092 225.200 56.726 31.957 o
-5 -3 2 258.231 304.445 49.360 26.451 o
-5 -3 3 46.698 107.951 35.214 78.897 o
-5 -3 4 1.162 72.317 33.884 110.630 o
-5 -3 5 62.367 169.746 26.219 86.923 o
-5 -3 6 188.890 216.328 29.900 47.484 o
-5 -3 7 34.078 49.253 21.150 179.334 o
-5 -3 8 82.861 121.165 20.569 103.932 o
-5 -3 9 5.121 40.680 19.285 282.889 o
-5 -3 10 39.474 44.264 15.837 224.185 o
-5 -3 11 117.916 253.714 28.397 57.103 o
-5 -3 12 127.247 146.617 24.807 72.144 o
-5 -3 13 0.647 -1.768 16.797 546.575 o
-5 -3 14 115.463 101.145 24.024 84.897 o
-5 -3 15 0.567 27.542 24.815 218.334 o
-5 -3 16 29.519 -18.276 24.997 187.376 o
-5 -3 17 79.148 152.116 36.870 61.708 o
-5 -3 18 135.396 54.760 34.372 64.665 o
-5 -3 20 6.883 -39.741 41.471 88.601 o
-5 -2 1 12.762 37.223 37.768 94.894 o
-5 -2 2 65.865 81.513 20.261 130.264 o
-5 -2 3 216.427 388.278 38.642 31.453 o
-5 -2 4 355.098 363.326 40.582 24.312 o
-5 -2 5 137.801 163.042 22.547 70.424 o
-5 -2 6 246.626 250.238 24.267 42.383 o
-5 -2 7 0.853 76.101 17.705 264.079 o
-5 -2 8 46.373 36.450 16.623 209.789 o
-5 -2 9 158.509 279.297 27.758 49.174 o
-5 -2 10 309.086 339.003 31.369 30.339 o
-5 -2 11 99.549 156.282 24.062 80.610 o
-5 -2 12 48.322 80.891 21.703 139.260 o
-5 -2 13 34.967 103.834 22.819 135.035 o
-5 -2 14 20.219 38.685 18.837 245.012 o
-5 -2 15 151.204 250.493 32.031 48.286 o
-5 -2 16 173.908 228.175 38.870 40.866 o
-5 -2 17 7.081 17.538 25.980 198.924 o
-5 -2 18 15.694 18.669 43.043 77.133 o
-5 -2 19 55.747 67.895 38.793 72.337 o
-5 -2 20 54.530 8.579 37.323 86.083 o
-5 -1 1 65.280 182.014 35.010 64.900 o
-5 -1 2 129.079 125.564 14.141 93.092 o
-5 -1 3 36.931 35.925 20.779 188.843 o
-5 -1 4 51.502 58.728 16.193 183.071 o
-5 -1 5 43.628 120.576 20.605 131.029 o
-5 -1 6 111.617 88.349 19.248 100.756 o
-5 -1 7 258.910 469.674 36.296 27.700 o
-5 -1 8 163.425 174.291 22.883 62.371 o
-5 -1 9 4.709 31.601 15.863 393.827 o
-5 -1 10 6.826 24.333 16.713 377.907 o
-5 -1 11 92.291 185.983 26.307 73.907 o
-5 -1 12 112.480 132.217 23.592 81.235 o
-5 -1 13 158.474 289.389 32.039 44.917 o
-5 -1 14 61.483 119.199 25.189 101.715 o
-5 -1 15 2.647 50.790 20.457 253.068 o
-5 -1 16 53.208 130.111 26.180 99.860 o
-5 -1 17 36.763 115.085 34.956 81.668 o
-5 -1 18 56.251 67.557 29.831 100.849 o
-5 -1 19 71.977 39.439 36.413 78.248 o
-5 -1 20 28.726 4.876 40.628 83.617 o
-5 0 1 175.312 177.238 22.845 59.603 o
-5 0 2 56.860 12.540 10.031 279.719 o
-5 0 3 62.015 87.578 16.407 148.492 o
-5 0 4 123.255 143.750 20.513 81.124 o
-5 0 5 281.030 418.446 35.200 28.275 o
-5 0 6 257.770 205.492 26.266 42.464 o
-5 0 7 96.538 99.111 21.699 99.374 o
-5 0 8 72.197 60.124 20.769 131.700 o
-5 0 9 70.095 124.548 24.946 96.843 o
-5 0 10 113.451 94.682 23.750 87.558 o
-5 0 11 171.019 300.375 34.457 41.062 o
-5 0 12 109.832 103.170 22.341 90.585 o
-5 0 13 0.618 20.483 18.744 365.787 o
-5 0 14 15.477 90.977 22.233 167.116 o
-5 0 15 118.313 188.760 27.596 64.714 o
-5 0 16 52.791 51.207 26.108 124.710 o
-5 0 17 138.395 196.819 41.214 43.935 o
-5 0 18 53.369 102.278 52.688 44.117 o
-5 0 19 0.004 -7.815 30.613 167.203 o
-5 0 20 0.201 2.872 33.446 138.653 o
-5 1 1 89.555 121.302 38.188 60.324 o
-5 1 2 45.816 19.836 10.999 298.313 o
-5 1 3 157.527 212.801 32.203 49.839 o
-5 1 4 76.960 53.718 17.998 143.168 o
-5 1 5 0.428 -3.334 17.177 525.686 o
-5 1 6 14.726 43.641 18.919 252.512 o
-5 1 7 249.958 307.143 33.489 34.511 o
-5 1 8 247.260 195.850 28.853 42.504 o
-5 1 9 246.028 325.705 35.647 33.040 o
-5 1 10 60.688 51.209 22.399 137.830 o
-5 1 11 0.269 -17.185 22.059 320.780 o
-5 1 12 0.044 -22.480 18.576 453.717 o
-5 1 13 73.417 54.748 21.943 127.549 o
-5 1 14 55.663 -1.379 32.115 109.186 o
-5 1 15 45.053 89.857 78.006 23.220 o
-5 1 16 1.230 -35.343 54.599 52.413 o
-5 1 17 1.225 61.633 33.853 113.899 o
-5 1 18 0.515 6.954 24.187 255.522 o
-5 1 19 95.458 143.821 49.511 42.000 o
-5 1 20 59.549 58.825 52.349 46.141 o
-5 2 1 354.964 417.608 47.098 21.432 o
-5 2 2 229.088 172.213 33.418 42.468 o
-5 2 3 45.112 36.010 15.731 221.658 o
-5 2 4 0.112 19.361 15.629 499.502 o
-5 2 5 76.677 78.460 21.013 119.912 o
-5 2 6 54.689 41.748 22.911 145.323 o
-5 2 7 77.207 72.725 29.423 91.500 o
-5 2 8 21.470 -1.452 38.179 97.283 o
-5 2 9 0.182 4.712 20.736 349.830 o
-5 2 10 23.524 65.144 26.582 140.719 o
-5 2 11 212.259 224.535 36.618 39.168 o
-5 2 12 133.175 108.330 28.096 70.119 o
-5 2 13 79.457 125.777 32.895 72.618 o
-5 2 14 8.783 16.886 34.219 121.134 o
-5 2 15 11.384 8.388 33.589 126.468 o
-5 2 16 24.176 81.915 44.904 62.908 o
-5 2 17 30.179 -20.510 36.652 100.476 o
-5 2 18 6.735 30.974 40.242 88.131 o
-5 2 19 20.871 1.237 41.299 84.296 o
-5 3 1 53.160 65.723 25.962 119.877 o
-5 3 2 151.945 255.544 38.587 41.925 o
-5 3 3 159.856 286.916 77.604 18.466 o
-5 3 4 128.693 121.858 47.842 41.749 o
-5 3 5 185.480 257.122 38.889 38.457 o
-5 3 6 45.355 19.576 32.726 106.534 o
-5 3 7 0.191 -8.600 32.217 150.780 o
-5 3 8 25.103 48.352 25.387 156.566 o
-5 3 9 109.589 61.859 25.624 91.228 o
-5 3 10 59.262 7.736 20.731 176.197 o
-5 3 11 28.772 13.124 21.879 213.931 o
-5 3 12 0.090 7.696 20.496 349.823 o
-5 3 13 8.281 13.613 33.152 129.894 o
-5 3 14 14.018 58.033 41.623 76.710 o
-5 3 15 58.965 23.703 35.765 87.222 o
-5 3 16 29.849 48.745 39.824 79.182 o
-5 3 17 8.493 46.319 41.992 78.733 o
-5 4 1 51.311 102.808 31.086 90.663 o
-5 4 2 61.326 100.633 38.537 67.636 o
-5 4 3 35.106 62.977 29.328 116.441 o
-5 4 4 0.028 -7.525 22.830 300.535 o
-5 4 5 29.702 55.329 26.151 142.411 o
-5 4 6 66.345 140.755 34.436 70.699 o
-5 4 7 80.918 85.589 44.650 53.655 o
-5 4 8 33.701 -0.046 33.008 117.699 o
-5 4 9 20.319 -13.845 34.020 120.334 o
-5 4 10 0.012 -14.044 23.112 293.305 o
-5 4 11 12.008 28.730 36.528 102.899 o
-5 4 12 43.588 45.673 36.557 86.065 o
-5 4 13 74.978 57.395 42.467 60.903 o
-5 4 14 16.117 9.564 32.226 131.950 o
-5 4 15 1.195 -23.511 38.008 107.842 o
-5 4 16 3.885 6.030 40.567 92.472 o
-5 5 1 44.216 21.323 41.520 73.853 o
-5 5 2 2.163 10.601 22.570 278.691 o
-5 5 3 21.600 52.770 29.015 131.830 o
-5 5 4 37.853 77.833 43.460 63.924 o
-5 5 5 31.234 43.166 26.829 142.143 o
-5 5 6 31.681 50.782 41.334 73.819 o
-5 5 7 27.903 51.269 39.667 79.893 o
-5 5 8 0.045 18.398 35.506 118.155 o
-5 5 9 9.163 6.140 31.203 147.759 o
-5 5 10 20.683 71.325 42.042 72.000 o
-5 5 11 26.338 88.982 47.100 57.275 o
-5 5 12 6.227 3.216 31.035 153.824 o
-5 5 13 0.312 -0.606 32.537 147.708 o
-5 6 1 19.918 57.290 68.452 31.111 o
-5 6 2 32.077 92.452 33.039 94.070 o
-5 6 3 41.242 76.014 31.719 98.709 o
-5 6 4 10.709 28.193 24.883 196.763 o
-5 6 5 0.397 26.721 26.569 194.972 o
-5 6 6 16.429 26.767 25.876 177.437 o
-5 6 7 29.115 44.937 41.889 73.634 o
-5 6 8 27.963 21.691 38.973 87.147 o
-5 6 9 17.178 4.723 34.577 117.392 o
-5 6 10 5.163 80.468 47.318 61.053 o
-5 7 1 22.129 61.072 31.448 114.345 o
-5 7 2 9.328 88.564 33.694 102.839 o
-5 7 3 5.013 16.025 24.280 229.743 o
-5 7 4 0.349 43.191 29.914 149.031 o
-5 7 5 7.200 31.546 36.330 105.603 o
-4 -9 1 0.185 101.295 54.225 47.367 o
-4 -9 2 3.615 -29.166 38.704 102.852 o
-4 -8 1 43.303 -35.822 34.033 106.563 o
-4 -8 2 5.164 -8.658 39.180 99.708 o
-4 -8 3 33.191 -10.707 35.971 102.281 o
-4 -8 4 9.039 -92.567 48.073 65.977 o
-4 -8 5 13.172 3.222 38.224 100.053 o
-4 -8 6 93.476 128.427 56.619 35.566 o
-4 -8 7 71.365 101.548 53.453 41.547 o
-4 -8 8 4.821 16.489 40.586 90.055 o
-4 -8 9 58.617 -1.630 62.972 35.685 o
-4 -8 10 30.430 1.581 46.184 66.489 o
-4 -8 11 10.060 -0.097 61.952 40.082 o
-4 -8 12 76.896 123.246 72.306 24.980 o
-4 -8 13 110.360 22.422 63.545 31.670 o
-4 -7 1 54.268 52.652 27.835 114.677 o
-4 -7 2 45.412 81.793 61.454 35.518 o
-4 -7 3 0.446 35.345 34.405 119.369 o
-4 -7 4 39.003 97.516 34.045 86.790 o
-4 -7 5 55.028 49.626 26.955 119.393 o
-4 -7 6 6.505 11.560 25.286 215.648 o
-4 -7 7 36.011 62.683 31.057 107.635 o
-4 -7 8 63.522 68.661 31.599 90.960 o
-4 -7 9 0.173 47.572 32.304 129.007 o
-4 -7 10 155.466 132.441 99.698 13.420 o
-4 -7 11 51.430 57.426 33.302 92.325 o
-4 -7 12 2.414 -31.528 33.414 138.234 o
-4 -7 13 7.496 69.333 37.782 90.508 o
-4 -7 14 161.967 149.998 74.636 21.062 o
-4 -7 15 40.389 88.620 68.515 29.470 o
-4 -6 1 86.596 70.384 21.908 112.603 o
-4 -6 2 393.730 364.099 30.756 25.388 o
-4 -6 3 94.707 111.599 20.204 101.097 o
-4 -6 4 6.327 29.891 18.526 316.607 o
-4 -6 5 28.029 50.344 20.395 195.526 o
-4 -6 6 186.526 195.183 30.694 48.506 o
-4 -6 7 95.097 114.260 26.727 83.792 o
-4 -6 8 379.526 383.973 53.439 19.503 o
-4 -6 9 108.081 171.143 41.459 48.707 o
-4 -6 10 7.495 23.148 28.182 168.481 o
-4 -6 11 75.232 79.385 36.680 71.134 o
-4 -6 12 200.733 226.982 48.691 31.754 o
-4 -6 13 8.168 44.911 33.736 115.427 o
-4 -6 14 175.830 228.392 53.953 29.831 o
-4 -6 15 46.925 63.032 36.709 81.496 o
-4 -6 16 13.530 36.764 35.269 106.401 o
-4 -6 17 0.014 43.226 56.104 47.456 o
-4 -5 1 99.297 98.626 15.935 113.523 o
-4 -5 2 0.172 0.874 12.339 1000.900 o
-4 -5 3 35.279 62.905 17.116 200.999 o
-4 -5 4 335.771 347.788 26.817 29.978 o
-4 -5 5 6.039 16.310 13.973 529.126 o
-4 -5 6 219.075 228.217 29.854 43.142 o
-4 -5 7 52.790 85.215 23.732 123.531 o
-4 -5 8 5.803 8.131 20.508 319.427 o
-4 -5 9 17.873 98.331 28.041 122.878 o
-4 -5 10 595.215 638.074 65.570 11.453 o
-4 -5 11 90.063 86.545 33.913 72.764 o
-4 -5 12 659.745 581.533 121.201 6.379 o
-4 -5 13 26.040 104.251 39.964 72.203 o
-4 -5 14 8.848 -56.929 35.103 121.008 o
-4 -5 15 1.091 34.964 32.282 133.425 o
-4 -5 16 435.418 532.688 69.789 13.567 o
-4 -5 17 56.699 28.492 32.838 98.136 o
-4 -5 18 209.759 259.360 57.611 25.610 o
-4 -4 1 8.832 36.574 17.847 305.739 o
-4 -4 2 740.631 569.965 44.131 12.172 o
-4 -4 3 525.328 428.559 23.215 20.412 o
-4 -4 4 969.673 825.904 68.126 7.426 o
-4 -4 5 21.773 59.859 16.977 236.507 o
-4 -4 6 2.432 3.906 11.040 1024.900 o
-4 -4 7 2.699 55.033 15.937 333.071 o
-4 -4 8 458.203 478.827 40.801 18.892 o
-4 -4 9 59.976 75.383 23.274 123.922 o
-4 -4 10 342.905 388.626 39.777 24.539 o
-4 -4 11 2.924 101.500 37.202 88.383 o
-4 -4 12 26.500 -19.877 29.890 144.700 o
-4 -4 13 6.174 41.120 31.417 132.998 o
-4 -4 14 637.744 590.782 68.231 10.963 o
-4 -4 15 4.123 22.120 30.227 153.384 o
-4 -4 16 206.055 231.864 49.664 30.709 o
-4 -4 17 15.855 75.427 41.079 75.494 o
-4 -4 18 120.106 149.794 44.145 45.309 o
-4 -4 19 63.733 100.033 41.665 60.637 o
-4 -3 1 50.065 39.237 9.696 259.902 o
-4 -3 2 660.053 563.705 44.629 13.336 o
-4 -3 3 1.574 70.799 12.437 372.681 o
-4 -3 4 106.039 89.302 13.044 119.308 o
-4 -3 5 142.503 324.758 28.473 47.650 o
-4 -3 6 1502.630 1516.310 63.100 4.140 o
-4 -3 7 148.490 151.047 22.802 68.816 o
-4 -3 8 746.365 782.713 60.871 9.630 o
-4 -3 9 14.555 64.541 29.147 131.927 o
-4 -3 10 64.463 123.157 29.509 86.282 o
-4 -3 11 261.161 359.023 37.739 30.046 o
-4 -3 12 989.326 990.687 58.846 7.232 o
-4 -3 13 134.269 209.633 33.113 52.506 o
-4 -3 14 661.240 661.815 70.597 10.151 o
-4 -3 15 28.204 102.161 41.324 68.447 o
-4 -3 16 21.415 -18.716 32.992 126.247 o
-4 -3 17 34.483 81.562 38.678 76.547 o
-4 -3 18 419.092 494.287 69.510 14.130 o
-4 -3 19 2.911 15.743 32.010 142.305 o
-4 -3 20 71.989 129.692 44.250 52.416 o
-4 -2 1 40.760 26.579 9.634 323.372 o
-4 -2 2 39.022 27.118 9.874 327.591 o
-4 -2 3 119.115 324.359 20.918 58.028 o
-4 -2 4 1389.060 1431.380 41.539 4.880 o
-4 -2 5 301.206 365.529 23.296 32.784 o
-4 -2 6 289.517 386.352 25.634 32.105 o
-4 -2 7 292.819 548.546 30.594 25.832 o
-4 -2 8 58.903 51.510 15.265 183.120 o
-4 -2 9 106.288 220.718 30.073 60.313 o
-4 -2 10 632.304 745.694 48.619 12.054 o
-4 -2 11 9.181 32.407 21.095 250.143 o
-4 -2 12 88.570 125.973 27.037 83.293 o
-4 -2 13 304.774 397.976 45.713 23.979 o
-4 -2 14 197.871 192.836 30.980 46.907 o
-4 -2 15 292.339 489.013 65.309 17.287 o
-4 -2 16 775.993 734.763 78.879 8.302 o
-4 -2 17 2.384 -52.349 38.541 104.309 o
-4 -2 18 144.501 155.811 46.696 39.936 o
-4 -2 19 107.071 202.068 71.798 23.127 o
-4 -2 20 84.430 -3.246 35.173 84.335 o
-4 -2 21 67.459 150.850 47.100 47.506 o
-4 -1 1 404.551 497.448 34.037 21.568 o
-4 -1 2 978.347 916.030 32.890 8.493 o
-4 -1 3 279.867 234.304 19.857 41.796 o
-4 -1 4 725.415 735.990 31.005 12.176 o
-4 -1 5 157.677 408.804 25.065 43.008 o
-4 -1 6 308.638 337.575 23.254 33.272 o
-4 -1 7 770.533 1088.720 40.909 9.210 o
-4 -1 8 1788.540 1757.420 56.883 3.334 o
-4 -1 9 166.742 196.557 34.941 46.948 o
-4 -1 10 551.051 547.144 36.091 16.483 o
-4 -1 11 47.947 186.354 33.832 70.888 o
-4 -1 12 123.893 118.617 21.950 82.796 o
-4 -1 13 286.866 353.265 32.260 30.936 o
-4 -1 14 323.571 363.590 32.574 28.370 o
-4 -1 15 0.111 20.388 18.315 383.540 o
-4 -1 16 62.648 86.697 30.313 91.827 o
-4 -1 17 351.991 385.978 49.428 21.375 o
-4 -1 18 77.162 7.443 41.885 66.732 o
-4 -1 19 130.094 73.526 42.049 51.487 o
-4 -1 20 218.808 219.443 42.697 34.666 o
-4 -1 21 8.664 -9.845 26.386 206.833 o
-4 -1 22 2.944 -64.170 37.256 111.227 o
-4 0 1 29.890 3.889 10.455 464.190 o
-4 0 2 268.579 252.951 19.378 42.225 o
-4 0 3 73.387 166.766 20.512 97.120 o
-4 0 4 50.412 -2.810 14.335 274.786 o
-4 0 5 665.620 865.111 38.743 11.625 o
-4 0 6 881.509 773.673 37.610 9.790 o
-4 0 7 2.344 -5.353 22.206 307.469 o
-4 0 8 78.395 130.339 24.030 94.223 o
-4 0 9 1117.440 1413.710 64.627 5.457 o
-4 0 10 230.555 197.869 23.900 47.811 o
-4 0 11 463.829 593.500 37.593 17.788 o
-4 0 12 630.731 615.444 39.161 13.936 o
-4 0 13 14.192 17.872 17.619 329.501 o
-4 0 14 16.898 13.818 25.153 195.214 o
-4 0 15 322.647 401.500 33.477 27.133 o
-4 0 16 114.295 72.739 29.189 78.544 o
-4 0 17 248.575 192.001 55.519 26.422 o
-4 0 18 187.454 220.613 43.010 36.763 o
-4 0 19 12.657 10.873 28.642 165.086 o
-4 0 20 12.463 -28.233 30.570 153.175 o
-4 0 21 144.016 259.336 46.018 36.340 o
-4 0 22 33.566 41.500 58.210 41.432 o
-4 1 1 646.091 801.448 48.994 11.497 o
-4 1 2 464.424 318.862 20.951 25.247 o
-4 1 3 812.769 911.877 35.836 9.867 o
-4 1 4 880.558 616.342 58.937 9.318 o
-4 1 5 320.513 164.910 21.689 40.345 o
-4 1 6 297.723 221.953 34.341 33.702 o
-4 1 7 274.187 416.136 40.969 26.570 o
-4 1 8 190.719 81.389 22.935 66.761 o
-4 1 9 486.633 566.771 62.379 13.740 o
-4 1 10 340.268 240.385 48.680 24.626 o
-4 1 11 24.262 10.805 7.911 569.701 o
-4 1 12 0.120 21.658 8.490 1046.200 o
-4 1 13 386.828 387.411 29.089 25.583 o
-4 1 14 175.471 161.500 29.969 53.358 o
-4 1 15 152.456 188.544 26.796 58.624 o
-4 1 16 24.045 79.581 37.064 85.226 o
-4 1 17 25.067 38.243 33.153 110.517 o
-4 1 18 10.986 100.388 45.224 62.927 o
-4 1 19 303.879 398.507 53.364 21.506 o
-4 1 20 36.998 70.688 46.282 58.667 o
-4 1 21 69.514 68.043 30.675 91.672 o
-4 1 22 24.687 72.087 40.025 76.677 o
-4 2 1 323.863 420.590 21.817 29.868 o
-4 2 2 6.077 42.860 11.799 466.319 o
-4 2 3 49.609 24.985 18.688 195.606 o
-4 2 4 27.181 8.188 68.969 31.460 o
-4 2 5 611.651 817.432 162.836 4.194 o
-4 2 6 462.759 474.344 138.705 6.051 o
-4 2 7 933.743 1110.190 117.425 4.887 o
-4 2 8 306.639 214.969 39.769 30.691 o
-4 2 9 56.263 18.723 11.000 261.466 o
-4 2 10 154.495 179.948 17.983 69.383 o
-4 2 11 443.703 434.147 25.017 22.976 o
-4 2 12 55.361 44.336 13.736 207.003 o
-4 2 13 261.305 271.651 40.623 31.301 o
-4 2 14 167.803 159.335 34.941 49.240 o
-4 2 15 1.146 9.214 16.236 514.908 o
-4 2 16 6.340 11.678 28.408 175.382 o
-4 2 17 151.722 222.132 47.986 35.617 o
-4 2 18 26.359 76.838 37.054 84.933 o
-4 2 19 56.330 69.534 38.234 73.432 o
-4 2 20 1.498 93.516 43.102 71.017 o
-4 2 21 27.859 69.620 40.590 74.490 o
-4 3 1 2.576 29.609 15.545 428.865 o
-4 3 2 53.016 107.500 16.954 144.953 o
-4 3 3 355.488 390.698 29.016 27.047 o
-4 3 4 108.965 93.483 18.265 103.249 o
-4 3 5 168.947 231.425 42.754 38.023 o
-4 3 6 82.939 46.599 54.647 41.502 o
-4 3 7 4.192 -11.824 19.575 379.575 o
-4 3 8 16.867 83.820 26.981 135.675 o
-4 3 9 427.782 519.087 46.433 18.088 o
-4 3 10 139.716 96.876 23.349 78.452 o
-4 3 11 117.639 91.577 19.069 97.278 o
-4 3 12 1.634 25.162 15.823 445.922 o
-4 3 13 167.054 86.246 18.088 79.722 o
-4 3 14 90.811 45.539 23.486 112.047 o
-4 3 15 233.611 140.684 49.038 32.150 o
-4 3 16 53.868 28.024 37.163 83.513 o
-4 3 17 25.193 96.385 47.237 56.606 o
-4 3 18 0.367 54.155 42.315 78.865 o
-4 3 19 13.685 44.367 41.645 78.665 o
-4 3 20 16.547 53.419 45.492 65.801 o
-4 4 1 856.514 921.488 90.295 6.659 o
-4 4 2 476.633 527.441 42.738 17.463 o
-4 4 3 88.345 142.758 26.326 82.046 o
-4 4 4 3.986 66.969 19.180 245.892 o
-4 4 5 30.969 15.136 15.071 310.691 o
-4 4 6 63.903 51.973 18.109 158.164 o
-4 4 7 299.444 299.877 53.307 23.313 o
-4 4 8 208.030 134.811 52.630 31.466 o
-4 4 9 261.827 235.741 37.312 34.232 o
-4 4 10 15.337 -1.622 21.875 266.688 o
-4 4 11 44.961 41.926 19.693 180.447 o
-4 4 12 43.008 63.045 17.726 182.260 o
-4 4 13 48.924 28.490 41.932 70.642 o
-4 4 14 2.247 0.734 57.395 47.304 o
-4 4 15 41.534 31.027 35.816 92.345 o
-4 4 16 1.955 -21.501 37.090 112.775 o
-4 4 17 25.931 -68.104 43.803 74.474 o
-4 4 18 26.718 3.410 35.626 106.407 o
-4 4 19 43.268 24.962 42.712 70.308 o
-4 5 1 281.192 272.580 30.742 34.801 o
-4 5 2 6.564 96.944 23.433 165.256 o
-4 5 3 133.207 145.782 25.809 69.038 o
-4 5 4 144.974 178.974 26.437 61.534 o
-4 5 5 107.328 97.360 31.239 72.466 o
-4 5 6 6.300 -13.502 23.855 255.355 o
-4 5 7 3.897 4.567 21.740 303.462 o
-4 5 8 4.617 16.038 35.981 113.194 o
-4 5 9 41.848 26.567 41.904 72.690 o
-4 5 10 128.574 179.410 36.501 51.545 o
-4 5 11 209.147 226.009 38.283 38.189 o
-4 5 12 34.871 13.662 22.097 198.670 o
-4 5 13 3.053 17.327 21.090 296.796 o
-4 5 14 31.102 16.895 22.239 201.093 o
-4 5 15 52.750 18.404 23.177 158.612 o
-4 5 16 18.213 36.498 41.303 79.627 o
-4 5 17 21.424 29.941 38.510 89.822 o
-4 6 1 3.360 40.276 26.702 177.904 o
-4 6 2 113.900 243.250 44.453 40.882 o
-4 6 3 309.860 351.306 50.655 22.979 o
-4 6 4 77.049 95.957 36.004 70.156 o
-4 6 5 1.665 17.879 26.891 196.269 o
-4 6 6 4.865 16.346 42.525 82.430 o
-4 6 7 3.723 -2.911 22.772 287.580 o
-4 6 8 10.089 -4.617 24.816 227.961 o
-4 6 9 34.333 16.107 23.059 187.167 o
-4 6 10 20.172 38.962 25.369 168.681 o
-4 6 11 12.663 22.801 23.344 218.595 o
-4 6 12 7.378 62.765 28.245 145.544 o
-4 6 13 25.894 20.189 22.708 202.392 o
-4 6 14 12.623 3.408 20.863 291.749 o
-4 6 15 5.775 21.945 23.740 229.499 o
-4 6 16 0.507 17.237 29.413 168.521 o
-4 6 17 3.138 57.448 38.842 90.204 o
-4 7 1 49.042 62.164 30.961 101.314 o
-4 7 2 30.897 -8.390 23.727 199.765 o
-4 7 3 5.713 50.638 30.118 138.732 o
-4 7 4 53.656 105.707 37.093 72.295 o
-4 7 5 125.868 150.323 40.629 48.795 o
-4 7 6 55.944 53.436 30.834 100.569 o
-4 7 7 11.977 31.529 25.546 184.108 o
-4 7 8 0.018 -40.566 29.023 186.006 o
-4 7 9 0.067 -14.151 25.139 247.765 o
-4 7 10 4.641 10.477 25.388 219.280 o
-4 7 11 17.234 -18.864 24.303 219.671 o
-4 7 12 34.370 59.515 44.901 63.105 o
-4 7 13 20.286 26.335 33.920 112.686 o
-4 7 14 0.001 16.108 33.048 136.349 o
-4 7 15 3.940 11.085 29.699 165.072 o
-4 7 16 12.432 4.139 32.596 134.434 o
-4 8 1 1.650 17.990 26.582 200.348 o
-4 8 2 1.440 45.022 42.377 79.669 o
-4 8 3 1.687 29.252 29.703 156.955 o
-4 8 4 34.487 64.811 35.488 89.685 o
-4 8 5 33.537 68.966 36.306 86.362 o
-4 8 6 0.007 12.932 27.255 198.686 o
-4 8 7 6.635 19.154 42.625 81.098 o
-4 8 8 4.571 16.079 41.893 84.951 o
-4 8 9 1.057 -32.513 39.589 99.510 o
-4 8 10 1.695 -20.120 36.376 117.365 o
-4 8 11 3.609 -32.463 38.308 104.957 o
-4 8 12 1.729 -101.121 48.026 67.581 o
-4 8 13 0.010 -9.336 32.973 144.123 o
-4 8 14 4.899 68.950 47.745 61.140 o
-3 -10 1 25.154 44.482 43.494 70.139 o
-3 -10 2 0.715 -71.321 56.455 49.089 o
-3 -10 3 3.819 -7.355 43.450 81.831 o
-3 -9 1 1.971 -0.410 26.547 218.051 o
-3 -9 2 25.875 15.389 29.458 141.339 o
-3 -9 3 135.946 71.945 34.617 62.295 o
-3 -9 4 11.688 50.115 32.220 120.333 o
-3 -9 5 35.072 28.995 26.236 149.693 o
-3 -9 6 1.708 3.107 25.352 235.366 o
-3 -9 7 7.470 0.213 25.363 224.829 o
-3 -9 8 9.637 74.280 65.177 34.170 o
-3 -9 9 133.687 102.646 68.216 25.776 o
-3 -9 10 11.933 74.720 65.934 33.314 o
-3 -9 11 81.449 28.419 69.576 28.244 o
-3 -9 12 28.678 46.371 63.209 35.851 o
-3 -8 1 135.434 101.327 27.804 70.968 o
-3 -8 2 4.248 21.166 22.924 248.347 o
-3 -8 3 102.246 112.659 30.659 72.970 o
-3 -8 4 85.166 107.785 31.623 76.462 o
-3 -8 5 38.382 21.693 25.372 156.740 o
-3 -8 6 68.639 61.986 26.717 107.932 o
-3 -8 7 112.587 71.291 31.226 74.676 o
-3 -8 8 4.263 19.872 25.933 202.596 o
-3 -8 9 268.083 275.833 47.456 27.512 o
-3 -8 10 46.821 103.819 31.248 91.771 o
-3 -8 11 7.012 24.863 25.457 199.208 o
-3 -8 12 99.190 114.790 45.706 47.771 o
-3 -8 13 146.362 173.401 79.126 19.354 o
-3 -8 14 13.368 71.304 67.649 31.779 o
-3 -8 15 24.280 12.756 53.525 50.801 o
-3 -7 1 356.123 349.724 38.994 25.045 o
-3 -7 2 33.685 60.701 32.669 102.173 o
-3 -7 3 1.537 12.669 22.704 274.317 o
-3 -7 4 296.228 260.513 37.231 31.128 o
-3 -7 5 314.772 286.815 43.180 26.858 o
-3 -7 6 6.068 36.513 23.807 211.600 o
-3 -7 7 29.109 45.731 24.916 157.148 o
-3 -7 8 162.758 158.921 34.116 50.889 o
-3 -7 9 5.859 -14.134 29.608 170.673 o
-3 -7 10 368.520 338.616 49.630 21.545 o
-3 -7 11 503.032 463.089 49.244 16.492 o
-3 -7 12 7.041 40.164 31.931 129.119 o
-3 -7 13 136.088 211.570 38.492 46.170 o
-3 -7 14 340.993 334.892 59.091 19.620 o
-3 -7 15 45.255 49.394 36.595 84.699 o
-3 -7 16 122.001 99.102 40.479 53.071 o
-3 -7 17 124.911 104.887 62.875 29.481 o
-3 -6 1 0.237 54.579 15.450 359.685 o
-3 -6 2 333.884 357.343 28.423 29.308 o
-3 -6 3 834.121 702.726 34.572 10.815 o
-3 -6 4 26.352 62.597 18.514 205.820 o
-3 -6 5 281.470 308.006 28.788 34.310 o
-3 -6 6 673.638 625.527 39.120 13.165 o
-3 -6 7 54.716 31.598 16.701 197.331 o
-3 -6 8 274.696 220.111 38.983 32.959 o
-3 -6 9 141.963 117.160 28.097 66.795 o
-3 -6 10 2.811 12.726 22.159 281.804 o
-3 -6 11 236.522 310.616 67.643 19.887 o
-3 -6 12 888.380 931.853 62.633 7.870 o
-3 -6 13 74.217 95.267 33.159 77.896 o
-3 -6 14 585.501 549.050 49.996 14.038 o
-3 -6 15 163.703 279.144 40.667 38.063 o
-3 -6 16 72.437 139.099 42.665 54.161 o
-3 -6 17 14.554 -0.434 29.577 160.184 o
-3 -6 18 389.316 467.501 68.174 15.058 o
-3 -6 19 72.136 49.717 52.782 44.727 o
-3 -5 1 402.008 367.736 22.304 26.851 o
-3 -5 2 22.469 37.803 11.117 371.656 o
-3 -5 3 72.460 102.064 14.253 138.883 o
-3 -5 4 1321.160 1281.690 47.726 5.291 o
-3 -5 5 151.749 96.377 25.637 70.948 o
-3 -5 6 1657.940 1465.690 46.507 4.011 o
-3 -5 7 282.753 369.919 38.994 28.039 o
-3 -5 8 105.304 95.555 18.798 103.360 o
-3 -5 9 10.595 5.212 15.805 456.057 o
-3 -5 10 721.740 761.158 50.143 10.767 o
-3 -5 11 24.405 9.756 21.698 230.277 o
-3 -5 12 1100.770 1061.420 60.361 6.399 o
-3 -5 13 270.690 399.449 42.383 26.594 o
-3 -5 14 77.041 43.893 36.325 76.343 o
-3 -5 15 14.059 -9.969 22.824 252.396 o
-3 -5 16 1202.860 1190.740 77.360 5.221 o
-3 -5 17 0.778 13.051 27.193 198.056 o
-3 -5 18 143.860 135.447 42.118 45.761 o
-3 -5 19 1.839 36.891 33.878 121.253 o
-3 -5 20 194.374 160.985 47.306 35.270 o
-3 -4 1 28.828 38.972 9.667 353.988 o
-3 -4 2 1522.120 1381.590 54.219 4.387 o
-3 -4 3 14.429 33.898 9.963 483.339 o
-3 -4 4 1715.520 1704.250 36.884 3.679 o
-3 -4 5 998.047 937.974 29.083 8.360 o
-3 -4 6 53.125 106.407 14.895 154.836 o
-3 -4 7 5.682 92.406 13.827 276.427 o
-3 -4 8 3183.750 3077.650 94.959 1.300 o
-3 -4 9 75.281 137.148 32.408 73.284 o
-3 -4 10 735.210 666.829 41.301 11.825 o
-3 -4 11 23.498 33.792 20.748 217.231 o
-3 -4 12 49.294 32.081 20.672 173.443 o
-3 -4 13 2.250 45.236 28.238 160.706 o
-3 -4 14 2796.010 2983.860 97.656 1.503 o
-3 -4 15 104.894 62.299 46.302 49.447 o
-3 -4 16 1163.980 1070.380 63.876 5.983 o
-3 -4 17 8.811 130.137 46.217 58.544 o
-3 -4 18 132.463 104.415 26.908 72.983 o
-3 -4 19 1.048 0.892 22.663 298.943 o
-3 -4 20 590.492 589.894 74.810 10.737 o
-3 -4 21 11.825 -7.766 40.710 89.992 o
-3 -3 1 72.738 61.115 8.223 187.856 o
-3 -3 2 1872.450 1803.930 32.225 3.292 o
-3 -3 3 98.349 102.605 12.315 121.802 o
-3 -3 4 92.472 106.198 9.056 132.368 o
-3 -3 5 215.030 295.850 16.651 47.471 o
-3 -3 6 3796.170 3873.030 71.870 0.974 o
-3 -3 7 176.978 216.071 20.941 57.294 o
-3 -3 8 2520.390 2413.840 69.048 1.964 o
-3 -3 9 36.656 241.501 27.519 80.145 o
-3 -3 10 397.175 318.384 51.126 20.548 o
-3 -3 11 21.556 28.440 15.051 324.055 o
-3 -3 12 1204.960 1099.440 60.533 5.838 o
-3 -3 13 1.201 -1.394 17.323 507.842 o
-3 -3 14 966.909 995.412 44.957 7.883 o
-3 -3 15 99.996 117.301 80.889 20.217 o
-3 -3 16 582.978 582.385 38.534 15.164 o
-3 -3 17 153.150 166.551 34.360 51.455 o
-3 -3 18 1752.520 1707.430 85.819 3.161 o
-3 -3 19 26.485 7.095 27.976 157.045 o
-3 -3 20 201.304 101.475 25.616 58.956 o
-3 -3 21 46.217 72.161 46.781 56.102 o
-3 -3 22 149.888 57.365 55.365 35.312 o
-3 -2 1 3.917 77.924 10.188 379.496 o
-3 -2 2 114.185 80.783 8.922 124.915 o
-3 -2 3 94.803 171.291 18.758 90.071 o
-3 -2 4 2587.930 2499.140 59.971 1.904 o
-3 -2 5 4.242 61.298 16.509 299.558 o
-3 -2 6 3209.760 3190.140 71.134 1.307 o
-3 -2 7 39.002 121.317 23.610 120.935 o
-3 -2 8 1045.060 1196.890 41.607 6.873 o
-3 -2 9 804.113 935.889 38.778 9.700 o
-3 -2 10 5235.920 5169.390 86.478 0.566 o
-3 -2 11 8.086 39.137 24.640 194.655 o
-3 -2 12 825.229 701.645 46.024 10.264 o
-3 -2 13 44.098 47.312 24.348 144.135 o
-3 -2 14 38.233 54.108 13.227 240.802 o
-3 -2 15 127.007 122.120 24.864 75.711 o
-3 -2 16 2298.620 2363.670 108.072 1.991 o
-3 -2 17 5.445 -1.899 14.403 637.044 o
-3 -2 18 455.247 347.072 32.301 22.818 o
-3 -2 19 333.973 251.406 43.170 26.791 o
-3 -2 20 230.350 191.711 39.348 37.100 o
-3 -2 21 24.638 27.465 24.170 182.171 o
-3 -2 22 398.278 438.745 68.209 15.141 o
-3 -2 23 14.271 -52.297 38.296 99.936 o
-3 -1 1 1506.050 1677.770 56.522 4.016 o
-3 -1 2 4999.810 5053.160 62.677 0.613 o
-3 -1 3 129.796 183.026 15.157 79.805 o
-3 -1 4 1970.490 1929.430 43.062 2.970 o
-3 -1 5 269.808 388.810 25.277 33.548 o
-3 -1 6 446.154 482.579 28.500 21.404 o
-3 -1 7 967.219 1146.670 51.939 7.159 o
-3 -1 8 2827.490 2822.470 107.558 1.500 o
-3 -1 9 5.361 59.499 18.805 258.673 o
-3 -1 10 860.231 705.777 64.232 8.780 o
-3 -1 11 1522.530 1403.230 105.305 3.551 o
-3 -1 12 825.667 902.370 43.851 9.412 o
-3 -1 13 332.391 353.593 44.523 24.163 o
-3 -1 14 1241.800 1220.300 72.396 5.166 o
-3 -1 15 1.137 24.281 22.339 264.082 o
-3 -1 16 420.883 476.439 47.041 18.682 o
-3 -1 17 695.139 788.663 67.831 9.525 o
-3 -1 18 422.379 435.399 46.033 19.410 o
-3 -1 19 244.008 296.525 57.796 23.569 o
-3 -1 20 754.712 916.592 91.237 7.109 o
-3 -1 21 97.814 64.740 46.035 50.588 o
-3 -1 22 118.404 153.936 88.319 16.826 o
-3 -1 23 115.331 164.843 95.049 14.829 o
-3 -1 24 42.205 76.346 59.203 38.266 o
-3 0 1 232.147 146.229 11.442 59.986 o
-3 0 2 1017.750 751.253 41.203 8.545 o
-3 0 3 1299.060 1279.890 58.973 5.165 o
-3 0 4 577.810 553.663 24.138 17.079 o
-3 0 5 1028.310 1083.970 61.525 6.665 o
-3 0 6 2593.210 2539.440 53.583 1.901 o
-3 0 7 43.828 46.568 13.262 235.497 o
-3 0 8 2381.500 2082.210 57.082 2.289 o
-3 0 9 613.804 779.166 37.023 13.078 o
-3 0 10 1519.830 1339.140 56.193 4.425 o
-3 0 11 1149.540 1218.450 51.976 6.037 o
-3 0 12 1735.890 1817.290 128.248 2.628 o
-3 0 13 269.757 273.904 37.251 32.388 o
-3 0 14 124.832 71.461 23.613 87.971 o
-3 0 15 358.597 394.142 44.727 22.370 o
-3 0 16 56.850 25.550 26.117 131.620 o
-3 0 17 351.965 199.556 39.709 28.591 o
-3 0 18 693.822 822.255 61.463 9.883 o
-3 0 19 160.116 143.444 73.328 21.759 o
-3 0 20 6.779 -22.355 90.611 18.975 o
-3 0 21 682.243 932.186 94.704 7.223 o
-3 0 22 108.206 129.392 45.131 46.609 o
-3 0 23 26.424 -15.857 34.422 114.061 o
-3 0 24 94.187 63.624 44.544 53.496 o
-3 1 1 937.923 1141.880 30.215 8.018 o
-3 1 2 1196.110 983.228 31.419 6.848 o
-3 1 3 2474.920 2508.710 57.674 1.999 o
-3 1 4 2023.700 1903.200 91.563 2.594 o
-3 1 5 58.459 58.865 14.255 184.206 o
-3 1 6 158.498 111.759 13.787 84.049 o
-3 1 7 1679.680 1470.490 60.275 3.811 o
-3 1 8 716.919 554.559 31.539 13.654 o
-3 1 9 1220.400 1141.790 35.243 6.235 o
-3 1 10 948.979 891.475 32.761 8.835 o
-3 1 11 56.559 61.148 13.227 191.892 o
-3 1 12 58.386 56.048 19.947 151.548 o
-3 1 13 1893.610 1794.970 83.632 2.902 o
-3 1 14 393.265 424.216 39.391 22.042 o
-3 1 15 256.386 235.206 31.786 37.846 o
-3 1 16 403.045 385.979 40.596 22.069 o
-3 1 17 2.376 51.959 22.844 216.198 o
-3 1 18 47.722 67.575 25.692 124.493 o
-3 1 19 528.555 550.489 71.641 11.989 o
-3 1 20 63.855 70.173 36.974 74.627 o
-3 1 21 87.472 117.095 42.025 54.570 o
-3 1 22 71.109 124.922 77.274 22.461 o
-3 1 23 96.649 149.343 47.181 44.288 o
-3 1 24 15.179 28.918 55.403 47.749 o
-3 2 1 1093.470 1215.350 30.446 6.790 o
-3 2 2 1635.170 1484.070 40.373 4.100 o
-3 2 3 5.323 -5.182 12.771 780.451 o
-3 2 4 25.898 47.573 15.295 264.116 o
-3 2 5 1768.690 1730.590 57.594 3.390 o
-3 2 6 421.378 353.888 28.134 24.994 o
-3 2 7 914.929 836.631 65.433 7.866 o
-3 2 8 664.645 533.129 30.501 14.864 o
-3 2 9 2.873 36.537 14.418 436.884 o
-3 2 10 173.931 125.384 28.144 58.941 o
-3 2 11 1649.600 1389.130 43.387 4.158 o
-3 2 12 756.328 548.146 36.027 12.748 o
-3 2 13 318.885 242.073 41.995 28.249 o
-3 2 14 30.768 152.643 27.595 100.603 o
-3 2 15 466.664 425.275 40.391 19.481 o
-3 2 16 3.135 23.659 19.435 323.679 o
-3 2 17 334.489 360.771 41.227 25.020 o
-3 2 18 59.114 26.449 30.596 106.955 o
-3 2 19 233.100 273.638 53.775 26.193 o
-3 2 20 45.903 133.333 44.957 54.788 o
-3 2 21 154.946 136.588 45.465 41.047 o
-3 2 22 18.191 50.387 34.485 104.324 o
-3 2 23 250.234 367.021 66.688 19.184 o
-3 2 24 1.548 21.638 53.378 53.353 o
-3 3 1 61.142 64.018 11.881 189.000 o
-3 3 2 10.134 32.611 13.957 408.214 o
-3 3 3 1651.210 1678.530 40.716 3.824 o
-3 3 4 1052.200 853.299 52.445 7.514 o
-3 3 5 983.824 951.666 37.263 8.179 o
-3 3 6 109.822 140.918 20.887 85.971 o
-3 3 7 206.261 106.142 24.188 59.103 o
-3 3 8 15.398 40.104 48.077 61.068 o
-3 3 9 965.926 927.473 83.535 6.466 o
-3 3 10 243.707 72.834 36.899 43.361 o
-3 3 11 473.251 339.241 40.181 20.616 o
-3 3 12 108.611 101.049 22.919 90.196 o
-3 3 13 49.388 43.691 39.553 75.154 o
-3 3 14 14.409 44.992 23.120 195.926 o
-3 3 15 675.521 704.336 112.350 6.646 o
-3 3 16 22.169 60.550 37.946 86.113 o
-3 3 17 26.821 62.686 31.828 109.163 o
-3 3 18 22.968 54.347 31.435 115.996 o
-3 3 19 11.502 44.076 30.386 134.621 o
-3 3 20 2.437 -23.600 30.563 164.723 o
-3 3 21 168.388 242.677 55.161 29.115 o
-3 3 22 3.478 -0.172 33.884 133.619 o
-3 3 23 15.568 49.671 50.847 54.480 o
-3 4 1 1487.500 1486.600 48.680 4.407 o
-3 4 2 331.728 300.872 24.906 32.386 o
-3 4 3 379.139 411.748 28.295 25.565 o
-3 4 4 123.084 123.179 21.527 83.064 o
-3 4 5 107.309 70.364 18.495 110.427 o
-3 4 6 193.279 198.565 25.786 51.716 o
-3 4 7 1018.940 922.333 61.599 7.149 o
-3 4 8 153.243 94.098 27.436 67.919 o
-3 4 9 210.101 155.030 43.941 36.862 o
-3 4 10 4.623 0.211 28.659 183.317 o
-3 4 11 91.590 46.459 32.877 80.875 o
-3 4 12 72.206 44.652 29.922 98.312 o
-3 4 13 850.051 710.345 95.293 6.910 o
-3 4 14 111.587 89.243 40.382 55.590 o
-3 4 15 7.980 9.612 29.753 160.540 o
-3 4 16 49.416 69.874 42.139 65.400 o
-3 4 17 142.937 101.604 46.825 42.447 o
-3 4 18 3.916 -0.721 30.269 166.017 o
-3 4 19 73.970 109.653 48.236 47.571 o
-3 4 20 14.060 72.148 46.089 63.012 o
-3 4 21 34.622 37.580 43.857 67.822 o
-3 5 1 588.512 543.904 43.889 14.790 o
-3 5 2 31.393 72.466 21.166 166.456 o
-3 5 3 114.056 113.987 22.364 86.570 o
-3 5 4 93.951 146.916 28.282 75.344 o
-3 5 5 601.306 551.796 45.209 14.333 o
-3 5 6 163.987 122.225 31.286 57.079 o
-3 5 7 61.940 47.497 24.955 125.028 o
-3 5 8 18.416 77.004 31.582 111.091 o
-3 5 9 69.425 32.571 25.400 122.813 o
-3 5 10 17.070 -16.778 31.288 142.397 o
-3 5 11 178.032 82.182 38.661 48.821 o
-3 5 12 28.732 20.126 31.035 126.138 o
-3 5 13 64.251 27.955 34.555 88.647 o
-3 5 14 0.391 14.001 30.401 160.454 o
-3 5 15 42.560 1.602 29.731 130.953 o
-3 5 16 38.264 34.046 38.911 81.828 o
-3 5 17 103.138 75.600 42.170 55.122 o
-3 5 18 1.953 9.425 35.704 118.534 o
-3 5 19 0.175 -38.545 43.254 83.701 o
-3 5 20 0.071 7.167 37.441 109.757 o
-3 6 1 130.050 101.401 24.382 78.948 o
-3 6 2 280.162 265.988 33.990 33.555 o
-3 6 3 543.063 513.127 55.888 14.234 o
-3 6 4 61.537 13.130 23.151 151.703 o
-3 6 5 34.961 53.575 27.632 129.211 o
-3 6 6 9.404 87.178 30.768 117.767 o
-3 6 7 154.785 101.387 32.442 59.113 o
-3 6 8 175.503 132.523 33.681 51.447 o
-3 6 9 196.273 213.272 39.050 39.326 o
-3 6 10 10.626 5.213 21.445 282.892 o
-3 6 11 6.923 -0.469 22.260 287.765 o
-3 6 12 15.843 -8.103 29.440 159.991 o
-3 6 13 42.635 67.735 38.599 76.424 o
-3 6 14 53.732 80.351 40.587 66.936 o
-3 6 15 107.214 118.663 47.453 44.459 o
-3 6 16 0.083 24.329 37.168 106.713 o
-3 6 17 9.219 9.788 31.926 139.963 o
-3 6 18 29.187 43.481 40.455 78.148 o
-3 7 1 72.512 60.051 24.215 116.331 o
-3 7 2 49.199 63.581 24.290 132.272 o
-3 7 3 43.358 72.763 25.546 126.603 o
-3 7 4 17.971 18.679 22.142 228.535 o
-3 7 5 59.359 83.419 25.004 114.014 o
-3 7 6 36.791 32.589 24.266 160.978 o
-3 7 7 65.353 20.785 28.290 115.639 o
-3 7 8 0.997 -11.840 23.010 292.078 o
-3 7 9 3.141 0.089 23.866 264.658 o
-3 7 10 25.643 53.744 26.850 142.289 o
-3 7 11 13.452 3.231 31.540 142.204 o
-3 7 12 8.686 -20.808 24.911 229.721 o
-3 7 13 28.340 2.952 29.846 141.888 o
-3 7 14 5.990 23.616 33.219 127.374 o
-3 7 15 4.368 -31.023 35.092 124.135 o
-3 8 1 0.502 24.094 23.398 246.148 o
-3 8 2 36.925 56.446 25.308 140.511 o
-3 8 3 74.784 64.939 25.639 107.716 o
-3 8 4 100.728 93.971 29.026 79.882 o
-3 8 5 71.822 47.859 24.137 121.417 o
-3 8 6 2.365 -2.743 20.367 363.118 o
-3 8 7 0.159 -1.973 22.000 322.998 o
-3 8 8 12.280 24.864 21.090 252.187 o
-3 8 9 29.638 69.237 32.794 101.523 o
-3 8 10 14.559 6.496 24.955 209.054 o
-3 8 11 2.761 9.000 25.168 228.812 o
-3 8 12 2.491 8.182 23.462 262.456 o
-3 8 13 1.986 -9.983 36.225 118.150 o
-3 8 14 8.274 -37.566 43.904 78.896 o
-3 8 15 8.399 7.447 42.041 84.543 o
-3 9 1 3.798 13.156 25.288 219.745 o
-3 9 2 0.566 18.890 26.588 201.426 o
-3 9 3 2.350 -12.227 23.742 270.048 o
-3 9 4 0.857 36.712 31.714 137.131 o
-3 9 5 1.347 51.875 32.575 124.728 o
-3 9 6 28.688 81.565 52.828 47.513 o
-3 9 7 23.915 -16.820 41.791 81.728 o
-3 9 8 11.248 5.837 40.999 87.954 o
-3 9 9 5.907 18.831 43.644 77.813 o
-3 9 10 0.179 82.385 54.718 47.599 o
-2 -10 1 71.035 58.379 29.226 98.132 o
-2 -10 2 2.774 25.886 28.115 173.677 o
-2 -10 3 5.034 16.352 26.920 191.435 o
-2 -10 4 3.717 58.360 47.504 62.866 o
-2 -10 5 57.367 29.381 30.008 109.785 o
-2 -10 6 26.031 9.190 31.362 130.252 o
-2 -10 7 123.898 185.947 44.099 43.045 o
-2 -10 8 9.422 31.520 30.926 137.891 o
-2 -10 9 2.587 10.500 27.916 187.706 o
-2 -10 10 0.283 -109.459 47.236 70.167 o
-2 -10 11 85.430 51.140 47.292 51.155 o
-2 -10 12 10.956 103.453 59.163 39.606 o
-2 -9 1 0.061 -3.115 19.635 405.991 o
-2 -9 2 0.868 38.431 22.194 246.473 o
-2 -9 3 132.034 118.210 30.681 64.790 o
-2 -9 4 0.593 45.504 24.172 208.664 o
-2 -9 5 45.647 62.480 26.374 124.460 o
-2 -9 6 29.957 9.722 22.159 211.459 o
-2 -9 7 25.622 27.357 22.915 193.957 o
-2 -9 8 39.991 49.037 26.090 136.188 o
-2 -9 9 268.626 227.073 46.234 29.306 o
-2 -9 10 3.969 52.834 26.061 174.709 o
-2 -9 11 157.610 137.649 62.860 27.350 o
-2 -9 12 5.216 34.489 34.217 117.724 o
-2 -9 13 17.831 13.035 30.834 139.326 o
-2 -9 14 24.607 31.368 46.834 63.095 o
-2 -9 15 190.389 152.603 66.063 24.122 o
-2 -9 16 7.386 57.078 53.332 50.510 o
-2 -8 1 505.725 383.301 41.095 18.844 o
-2 -8 2 82.390 120.053 29.167 81.316 o
-2 -8 3 491.016 468.977 45.449 17.350 o
-2 -8 4 7.333 73.135 26.643 152.655 o
-2 -8 5 6.096 1.733 21.392 309.099 o
-2 -8 6 20.636 21.353 22.245 217.845 o
-2 -8 7 261.861 236.918 36.496 34.642 o
-2 -8 8 27.205 36.212 22.849 184.546 o
-2 -8 9 233.796 220.783 37.003 37.186 o
-2 -8 10 110.412 152.796 32.184 63.269 o
-2 -8 11 24.973 16.175 24.063 191.981 o
-2 -8 12 101.913 79.134 28.389 83.585 o
-2 -8 13 469.822 375.604 47.062 18.716 o
-2 -8 14 0.376 64.848 30.426 134.965 o
-2 -8 15 96.424 147.712 36.635 59.228 o
-2 -8 16 160.172 107.568 42.379 45.202 o
-2 -8 17 102.241 72.655 50.790 43.227 o
-2 -8 18 55.097 22.484 43.390 66.220 o
-2 -8 19 179.106 275.126 78.342 17.962 o
-2 -7 1 359.054 449.298 33.389 24.374 o
-2 -7 2 206.040 233.533 26.656 46.716 o
-2 -7 3 131.314 78.387 20.852 90.045 o
-2 -7 4 363.403 355.004 38.463 24.783 o
-2 -7 5 1048.820 997.573 60.169 6.831 o
-2 -7 6 3.021 92.338 37.911 87.398 o
-2 -7 7 300.511 326.249 38.372 28.499 o
-2 -7 8 372.591 305.130 38.240 25.539 o
-2 -7 9 70.591 38.660 32.259 91.975 o
-2 -7 10 283.503 234.146 36.023 33.429 o
-2 -7 11 789.487 706.244 56.197 9.918 o
-2 -7 12 10.832 26.739 28.873 155.684 o
-2 -7 13 401.088 348.632 45.239 21.559 o
-2 -7 14 329.807 339.300 44.869 24.434 o
-2 -7 15 74.216 38.520 25.112 118.615 o
-2 -7 16 204.476 149.976 35.585 44.610 o
-2 -7 17 395.892 411.029 55.594 18.214 o
-2 -7 18 15.397 26.593 24.643 192.819 o
-2 -7 19 23.321 -10.052 46.747 66.630 o
-2 -7 20 345.805 324.438 83.761 13.618 o
-2 -7 21 39.258 -11.749 45.953 65.450 o
-2 -6 1 12.991 20.669 16.338 361.486 o
-2 -6 2 748.379 733.913 37.815 11.469 o
-2 -6 3 1119.230 1119.950 46.196 6.565 o
-2 -6 4 0.287 61.003 20.093 250.965 o
-2 -6 5 656.098 771.254 40.056 12.280 o
-2 -6 6 1111.500 1091.310 47.898 6.635 o
-2 -6 7 79.902 51.746 20.266 130.959 o
-2 -6 8 460.858 423.256 39.548 19.846 o
-2 -6 9 706.984 709.799 50.397 11.203 o
-2 -6 10 2.778 2.545 20.357 353.671 o
-2 -6 11 95.063 139.938 32.017 68.563 o
-2 -6 12 1493.150 1350.580 72.761 4.226 o
-2 -6 13 101.494 79.898 49.539 44.483 o
-2 -6 14 637.628 490.818 63.160 12.096 o
-2 -6 15 665.178 655.536 56.489 11.475 o
-2 -6 16 113.288 68.740 27.716 83.047 o
-2 -6 17 79.305 20.260 33.154 89.111 o
-2 -6 18 857.720 915.625 72.570 7.600 o
-2 -6 19 67.439 84.056 30.508 89.778 o
-2 -6 20 77.961 14.399 32.312 93.797 o
-2 -6 21 121.054 171.707 70.181 23.975 o
-2 -6 22 112.137 10.232 51.691 44.168 o
-2 -6 23 25.694 -46.021 57.269 45.244 o
-2 -5 1 720.342 812.099 34.844 11.512 o
-2 -5 2 110.780 152.950 28.093 70.146 o
-2 -5 3 1205.250 1350.590 45.217 5.654 o
-2 -5 4 2430.760 2399.340 55.177 2.093 o
-2 -5 5 534.156 458.017 29.741 18.851 o
-2 -5 6 2138.840 1966.190 53.321 2.654 o
-2 -5 7 1898.380 1921.890 59.605 2.991 o
-2 -5 8 200.445 181.215 27.211 50.683 o
-2 -5 9 486.474 543.965 34.960 18.238 o
-2 -5 10 2144.550 2078.180 79.168 2.438 o
-2 -5 11 56.545 48.358 35.740 83.797 o
-2 -5 12 971.034 796.699 45.620 8.554 o
-2 -5 13 715.153 759.721 46.292 11.133 o
-2 -5 14 309.444 280.156 31.120 32.311 o
-2 -5 15 267.625 198.247 33.658 37.371 o
-2 -5 16 2153.130 2144.430 108.436 2.208 o
-2 -5 17 111.863 70.216 25.963 87.678 o
-2 -5 18 659.113 619.670 57.025 11.710 o
-2 -5 19 230.193 255.638 43.363 32.265 o
-2 -5 20 180.228 120.738 34.483 50.708 o
-2 -5 21 1.268 -3.153 26.540 219.680 o
-2 -5 22 725.662 806.522 71.171 8.954 o
-2 -5 23 0.227 -122.864 61.165 41.868 o
-2 -5 24 157.654 28.876 44.299 47.761 o
-2 -5 25 36.397 -44.221 54.154 49.057 o
-2 -4 1 1034.910 1323.840 35.583 6.715 o
-2 -4 2 3315.660 3261.070 67.463 1.252 o
-2 -4 3 208.710 199.427 27.031 48.347 o
-2 -4 4 2654.260 2420.590 50.238 1.908 o
-2 -4 5 363.885 476.873 27.945 24.857 o
-2 -4 6 660.259 694.852 25.141 13.863 o
-2 -4 7 104.090 225.788 17.177 78.676 o
-2 -4 8 6707.700 6388.990 81.544 0.373 o
-2 -4 9 102.772 182.018 19.302 83.706 o
-2 -4 10 1952.880 1762.090 46.945 3.112 o
-2 -4 11 371.459 391.345 28.690 26.320 o
-2 -4 12 285.737 234.033 26.400 38.142 o
-2 -4 13 34.928 32.447 17.986 225.883 o
-2 -4 14 3563.860 3439.410 90.392 1.093 o
-2 -4 15 0.480 4.547 17.892 461.466 o
-2 -4 16 986.400 863.744 51.184 7.962 o
-2 -4 17 69.538 109.750 49.865 45.833 o
-2 -4 18 663.931 619.426 56.002 11.754 o
-2 -4 19 1.523 -27.167 26.468 220.291 o
-2 -4 20 1845.620 1923.240 96.621 2.760 o
-2 -4 21 0.838 27.127 35.656 114.072 o
-2 -4 22 130.714 53.389 39.415 56.952 o
-2 -4 23 12.440 11.387 45.080 72.502 o
-2 -4 24 219.099 178.552 60.322 25.485 o
-2 -4 25 2.605 -111.743 56.434 48.920 o
-2 -4 26 598.305 725.564 111.914 6.950 o
-2 -3 1 135.106 205.797 18.678 70.351 o
-2 -3 2 5478.730 5218.050 57.255 0.541 o
-2 -3 3 453.309 721.302 21.984 18.326 o
-2 -3 4 41.565 56.845 14.184 219.965 o
-2 -3 5 1233.830 1574.460 37.049 5.231 o
-2 -3 6 9188.300 9367.880 147.528 0.197 o
-2 -3 7 565.634 555.942 22.229 17.522 o
-2 -3 8 3539.710 3319.250 51.492 1.169 o
-2 -3 9 299.554 399.185 43.852 24.796 o
-2 -3 10 1504.620 1415.270 69.902 4.162 o
-2 -3 11 66.772 98.476 22.263 115.076 o
-2 -3 12 5303.970 5514.760 88.171 0.536 o
-2 -3 13 1.222 0.438 15.442 630.210 o
-2 -3 14 1688.640 1671.040 54.080 3.638 o
-2 -3 15 41.048 79.229 42.156 66.138 o
-2 -3 16 783.200 714.890 38.909 11.094 o
-2 -3 17 15.624 -15.134 18.730 339.216 o
-2 -3 18 3431.380 3540.020 116.952 1.079 o
-2 -3 19 4.244 -64.876 69.069 32.642 o
-2 -3 20 487.478 427.641 57.659 15.672 o
-2 -3 21 32.092 -0.179 38.241 92.586 o
-2 -3 22 436.245 374.010 59.992 16.742 o
-2 -3 23 12.653 37.899 26.828 165.588 o
-2 -3 24 623.928 736.195 65.906 10.591 o
-2 -3 25 53.667 -28.505 43.744 68.059 o
-2 -3 26 106.553 136.428 52.855 37.902 o
-2 -3 27 20.868 -85.853 49.435 60.441 o
-2 -2 1 1.412 95.787 13.187 295.411 o
-2 -2 2 1372.510 1833.870 37.676 4.359 o
-2 -2 3 63.860 66.674 14.448 168.869 o
-2 -2 4 12395.000 12997.000 217.355 0.109 o
-2 -2 5 321.968 323.934 15.053 35.108 o
-2 -2 6 3364.760 3145.310 46.982 1.279 o
-2 -2 7 497.645 470.263 28.143 19.971 o
-2 -2 8 1525.680 1555.550 31.161 4.374 o
-2 -2 9 193.573 199.915 22.421 54.474 o
-2 -2 10 10613.800 10382.700 97.737 0.157 o
-2 -2 11 32.644 126.750 37.708 73.501 o
-2 -2 12 2200.370 2142.540 48.973 2.487 o
-2 -2 13 152.238 177.910 62.576 26.914 o
-2 -2 14 1048.650 1034.180 40.606 7.359 o
-2 -2 15 499.206 445.569 43.582 17.761 o
-2 -2 16 3123.950 3259.850 113.789 1.247 o
-2 -2 17 144.306 96.817 30.448 64.817 o
-2 -2 18 897.884 780.538 41.082 9.442 o
-2 -2 19 151.287 258.907 46.163 35.703 o
-2 -2 20 644.632 615.631 45.010 13.137 o
-2 -2 21 15.231 10.545 24.027 216.584 o
-2 -2 22 1402.200 1549.140 98.389 3.762 o
-2 -2 23 84.803 106.679 63.875 30.594 o
-2 -2 24 98.835 89.795 27.364 85.358 o
-2 -2 25 32.332 20.285 24.472 173.147 o
-2 -2 26 131.502 212.440 61.485 27.703 o
-2 -2 27 0.318 -14.977 35.584 123.532 o
-2 -1 1 578.853 559.986 14.618 17.684 o
-2 -1 2 12273.000 12882.200 115.350 0.114 o
-2 -1 3 19.936 36.713 17.678 266.513 o
-2 -1 4 7103.500 7180.870 93.685 0.323 o
-2 -1 5 274.721 233.154 21.877 41.485 o
-2 -1 6 112.044 137.580 8.122 107.547 o
-2 -1 7 7.659 43.666 15.295 352.003 o
-2 -1 8 13811.700 14184.300 199.740 0.091 o
-2 -1 9 4.376 51.426 13.488 394.224 o
-2 -1 10 1667.270 1634.710 40.429 3.840 o
-2 -1 11 836.462 750.224 49.038 9.732 o
-2 -1 12 2020.910 1824.520 46.725 2.954 o
-2 -1 13 42.577 42.768 18.159 196.967 o
-2 -1 14 4208.130 4201.600 97.417 0.810 o
-2 -1 15 192.960 202.274 25.544 51.689 o
-2 -1 16 863.882 776.774 41.255 9.771 o
-2 -1 17 550.461 506.638 31.027 17.606 o
-2 -1 18 831.519 754.510 39.411 10.305 o
-2 -1 19 87.399 57.081 18.698 128.959 o
-2 -1 20 1862.220 1995.100 89.635 2.755 o
-2 -1 21 248.445 250.368 38.285 34.122 o
-2 -1 22 107.689 80.155 27.299 84.031 o
-2 -1 23 384.839 444.834 50.057 19.383 o
-2 -1 24 258.818 308.112 42.235 29.591 o
-2 -1 25 14.243 -14.945 25.024 215.411 o
-2 0 1 144.591 143.709 10.349 87.097 o
-2 0 2 1627.030 1123.100 38.930 4.643 o
-2 0 3 3346.660 2969.330 58.765 1.313 o
-2 0 4 3549.320 3996.540 59.183 1.041 o
-2 0 5 2071.900 1653.590 53.551 2.969 o
-2 0 6 11260.000 12063.900 296.291 0.125 o
-2 0 7 10.695 19.395 10.670 604.431 o
-2 0 8 1448.730 1395.340 41.263 4.749 o
-2 0 9 2727.210 2586.060 56.282 1.777 o
-2 0 10 1223.770 1282.880 44.156 5.738 o
-2 0 11 1205.150 1084.370 43.829 6.279 o
-2 0 12 6094.390 5726.990 119.496 0.437 o
-2 0 13 414.987 479.261 29.593 22.391 o
-2 0 14 863.093 843.041 42.128 9.425 o
-2 0 15 1058.640 1002.070 90.938 5.636 o
-2 0 16 687.113 572.599 54.565 11.899 o
-2 0 17 356.260 263.790 28.186 30.875 o
-2 0 18 807.180 804.279 129.731 5.139 o
-2 0 19 274.235 195.478 54.476 25.780 o
-2 0 20 391.662 261.576 113.510 8.939 o
-2 0 21 477.844 612.596 73.818 11.926 o
-2 0 22 210.425 234.314 52.127 28.988 o
-2 0 23 23.685 -40.905 121.679 10.464 o
-2 0 24 357.522 450.945 90.748 11.572 o
-2 0 25 181.982 186.668 84.534 16.750 o
-2 0 26 23.932 45.106 54.584 47.268 o
-2 1 1 860.747 569.235 19.607 11.992 o
-2 1 2 1465.640 1435.850 41.025 4.635 o
-2 1 3 1583.690 1211.050 31.248 4.716 o
-2 1 4 6145.050 6052.160 80.048 0.428 o
-2 1 5 294.373 219.205 25.706 38.367 o
-2 1 6 2385.240 2065.710 52.356 2.311 o
-2 1 7 2739.940 1981.570 45.808 2.030 o
-2 1 8 448.951 434.014 22.543 23.169 o
-2 1 9 1066.930 770.506 29.999 8.451 o
-2 1 10 5145.080 4893.900 144.948 0.567 o
-2 1 11 830.579 809.518 49.388 9.493 o
-2 1 12 64.366 67.977 18.193 147.949 o
-2 1 13 2729.370 2487.840 110.793 1.638 o
-2 1 14 966.419 889.026 64.378 7.433 o
-2 1 15 218.825 167.863 23.840 51.773 o
-2 1 16 1275.660 1199.150 88.025 4.704 o
-2 1 17 359.135 298.648 34.646 27.513 o
-2 1 18 104.598 106.461 32.510 69.389 o
-2 1 19 1023.480 953.779 158.520 3.593 o
-2 1 20 283.288 205.524 68.233 19.828 o
-2 1 21 100.890 164.118 70.945 24.325 o
-2 1 22 289.588 401.958 94.816 11.785 o
-2 1 23 279.125 284.547 81.069 15.410 o
-2 1 24 10.606 23.788 55.189 48.871 o
-2 1 25 254.721 326.870 59.964 21.885 o
-2 1 26 24.449 41.981 56.688 44.246 o
-2 2 1 3613.070 3702.590 54.186 1.072 o
-2 2 2 8007.950 8055.090 89.562 0.261 o
-2 2 3 377.057 310.946 20.544 30.281 o
-2 2 4 4.824 -3.063 11.912 890.225 o
-2 2 5 5247.240 4453.510 86.369 0.612 o
-2 2 6 1742.080 1766.050 108.777 2.875 o
-2 2 7 1914.770 1663.470 111.438 2.691 o
-2 2 8 3148.850 3173.120 175.937 1.096 o
-2 2 9 154.957 164.006 14.331 75.525 o
-2 2 10 366.372 323.567 16.975 31.378 o
-2 2 11 2079.320 1904.540 55.619 2.764 o
-2 2 12 281.723 210.612 19.516 43.076 o
-2 2 13 621.361 464.955 30.704 16.452 o
-2 2 14 741.386 855.169 41.392 10.621 o
-2 2 15 657.881 645.882 37.900 13.357 o
-2 2 16 76.138 85.643 18.439 127.470 o
-2 2 17 789.314 817.178 50.892 9.748 o
-2 2 18 106.280 79.153 21.417 100.267 o
-2 2 19 59.832 54.022 20.713 146.661 o
-2 2 20 36.612 58.119 37.124 84.391 o
-2 2 21 132.324 132.206 43.424 45.761 o
-2 2 22 47.809 62.362 36.538 81.851 o
-2 2 23 358.409 423.470 67.055 16.221 o
-2 2 24 33.193 31.648 32.138 112.958 o
-2 2 25 13.655 -50.631 34.321 122.905 o
-2 2 26 24.272 93.309 64.461 33.530 o
-2 3 1 369.695 251.376 17.707 33.552 o
-2 3 2 484.195 485.068 22.801 20.892 o
-2 3 3 1999.500 1671.740 44.428 3.124 o
-2 3 4 760.965 630.528 36.644 12.055 o
-2 3 5 1149.570 856.866 54.796 6.852 o
-2 3 6 604.379 730.790 52.222 12.177 o
-2 3 7 954.534 799.256 54.644 8.260 o
-2 3 8 5.762 50.850 40.001 85.928 o
-2 3 9 3444.860 2780.080 246.740 0.886 o
-2 3 10 527.109 397.492 51.447 16.294 o
-2 3 11 955.718 770.493 36.481 9.165 o
-2 3 12 536.542 625.748 37.895 15.732 o
-2 3 13 816.821 845.608 40.292 9.943 o
-2 3 14 42.488 92.937 19.063 153.772 o
-2 3 15 1415.830 1369.640 73.349 4.393 o
-2 3 16 133.244 178.306 26.280 64.385 o
-2 3 17 98.490 104.578 34.055 68.020 o
-2 3 18 102.726 125.988 38.329 57.292 o
-2 3 19 170.970 160.600 42.223 41.480 o
-2 3 20 0.392 25.752 29.631 161.174 o
-2 3 21 339.998 328.796 57.372 20.236 o
-2 3 22 8.461 0.124 38.086 103.710 o
-2 3 23 7.876 30.929 35.894 107.698 o
-2 3 24 0.262 20.247 33.568 130.527 o
-2 3 25 104.345 113.890 61.567 31.214 o
-2 3 26 0.137 -11.473 46.990 70.937 o
-2 4 1 4450.760 4190.890 88.527 0.767 o
-2 4 2 951.068 1024.970 38.880 8.098 o
-2 4 3 2231.560 2167.600 54.982 2.413 o
-2 4 4 1169.870 1130.400 40.945 6.403 o
-2 4 5 608.695 523.733 27.145 16.429 o
-2 4 6 36.121 30.505 17.144 235.352 o
-2 4 7 1225.880 991.320 42.410 6.439 o
-2 4 8 65.340 19.322 16.716 189.124 o
-2 4 9 293.682 221.282 34.999 33.686 o
-2 4 10 121.741 179.679 44.325 43.346 o
-2 4 11 183.774 127.453 43.484 40.674 o
-2 4 12 2.152 16.236 26.541 201.602 o
-2 4 13 676.966 591.495 71.611 10.235 o
-2 4 14 9.960 37.605 29.893 142.517 o
-2 4 15 76.967 152.893 43.485 51.270 o
-2 4 16 1.801 71.592 37.657 92.812 o
-2 4 17 330.281 360.560 67.438 17.286 o
-2 4 18 1.279 109.067 46.785 60.414 o
-2 4 19 240.408 342.842 69.689 18.749 o
-2 4 20 8.645 41.318 41.516 81.047 o
-2 4 21 10.817 36.638 37.575 96.697 o
-2 4 22 0.073 42.202 42.696 79.383 o
-2 4 23 14.860 108.148 54.864 44.602 o
-2 5 1 532.523 601.797 29.694 17.035 o
-2 5 2 0.218 117.664 17.387 214.263 o
-2 5 3 681.151 524.044 28.306 14.816 o
-2 5 4 112.545 235.067 24.717 64.738 o
-2 5 5 1708.680 1612.440 52.611 3.671 o
-2 5 6 440.626 410.623 35.133 21.596 o
-2 5 7 316.553 269.965 32.726 31.511 o
-2 5 8 6.169 12.406 18.640 359.980 o
-2 5 9 540.788 428.389 41.100 17.380 o
-2 5 10 184.821 106.002 39.464 45.627 o
-2 5 11 996.243 638.733 169.868 3.545 o
-2 5 12 104.248 51.502 17.191 123.153 o
-2 5 13 202.726 112.047 41.934 41.026 o
-2 5 14 1.772 -0.236 28.041 196.168 o
-2 5 15 205.186 171.416 48.863 33.077 o
-2 5 16 13.189 10.640 30.360 148.733 o
-2 5 17 148.584 98.097 43.736 45.489 o
-2 5 18 3.125 -22.992 33.834 134.294 o
-2 5 19 0.739 -2.757 33.586 138.275 o
-2 5 20 2.912 -32.377 40.418 94.728 o
-2 5 21 49.138 25.252 40.557 74.824 o
-2 5 22 3.346 21.752 41.430 86.216 o
-2 6 1 76.875 76.898 17.837 132.931 o
-2 6 2 133.555 231.108 30.343 54.098 o
-2 6 3 843.741 846.124 50.105 9.176 o
-2 6 4 53.751 111.526 24.598 110.344 o
-2 6 5 208.693 204.170 28.939 46.503 o
-2 6 6 0.035 28.916 19.040 336.583 o
-2 6 7 249.527 244.440 34.228 36.613 o
-2 6 8 10.797 -5.756 23.849 242.793 o
-2 6 9 84.512 61.442 23.229 111.969 o
-2 6 10 14.559 2.634 23.779 230.994 o
-2 6 11 2.884 0.764 11.264 1044.940 o
-2 6 12 24.351 11.666 26.416 171.433 o
-2 6 13 110.061 114.809 41.571 52.085 o
-2 6 14 41.847 24.697 33.394 103.910 o
-2 6 15 172.712 161.771 50.205 34.546 o
-2 6 16 3.375 -17.069 31.627 153.005 o
-2 6 17 8.036 18.442 32.871 130.221 o
-2 6 18 18.444 46.400 39.149 85.503 o
-2 6 19 40.865 30.274 41.624 73.265 o
-2 6 20 0.126 8.372 36.755 113.435 o
-2 7 1 460.741 443.823 40.771 19.312 o
-2 7 2 51.956 56.431 22.465 143.354 o
-2 7 3 20.344 41.778 20.606 217.152 o
-2 7 4 111.193 119.340 27.565 75.766 o
-2 7 5 259.743 251.810 33.568 35.856 o
-2 7 6 162.541 196.528 32.294 50.189 o
-2 7 7 475.282 444.603 42.059 18.658 o
-2 7 8 83.594 85.050 21.488 111.315 o
-2 7 9 24.415 12.922 22.717 212.515 o
-2 7 10 19.968 26.477 24.257 189.559 o
-2 7 11 55.159 30.656 24.380 141.257 o
-2 7 12 10.985 -33.989 23.774 243.632 o
-2 7 13 35.436 22.734 31.252 119.189 o
-2 7 14 0.972 -27.137 31.560 156.248 o
-2 7 15 1.432 -5.891 32.306 148.704 o
-2 7 16 18.404 41.830 39.453 85.188 o
-2 7 17 31.939 92.864 47.952 54.520 o
-2 7 18 1.523 29.797 38.926 96.012 o
-2 8 1 17.539 28.712 24.504 188.986 o
-2 8 2 0.157 -22.633 19.504 410.720 o
-2 8 3 17.627 31.509 20.287 240.673 o
-2 8 4 26.222 57.410 24.383 157.837 o
-2 8 5 29.357 62.629 23.419 158.344 o
-2 8 6 13.711 2.991 19.327 325.325 o
-2 8 7 3.741 8.291 19.931 345.820 o
-2 8 8 68.480 48.050 22.916 129.709 o
-2 8 9 87.680 78.421 25.079 99.110 o
-2 8 10 12.977 11.383 20.056 292.774 o
-2 8 11 12.773 -19.422 22.991 253.013 o
-2 8 12 0.036 7.199 22.857 285.877 o
-2 8 13 1.019 -25.029 23.439 281.541 o
-2 8 14 7.543 -1.245 31.096 153.563 o
-2 8 15 16.713 55.145 41.125 77.932 o
-2 9 1 101.289 121.554 31.563 70.199 o
-2 9 2 99.439 118.626 30.209 73.862 o
-2 9 3 81.090 72.845 26.837 98.055 o
-2 9 4 10.169 -5.049 19.799 337.617 o
-2 9 5 1.472 10.399 21.079 318.783 o
-2 9 6 12.587 35.949 23.215 206.746 o
-2 9 7 11.293 26.845 22.105 235.553 o
-2 9 8 9.263 4.787 22.677 262.472 o
-2 9 9 17.248 25.929 23.056 209.477 o
-2 9 10 0.701 5.807 20.321 357.414 o
-2 9 11 3.638 -3.004 20.109 364.324 o
-2 9 12 8.897 3.459 25.927 209.600 o
-1 -11 1 16.413 35.833 33.753 113.082 o
-1 -11 2 2.192 14.028 28.448 179.171 o
-1 -11 3 9.296 5.009 30.613 153.483 o
-1 -11 4 8.922 -0.207 32.219 142.288 o
-1 -11 5 0.623 -30.265 34.421 131.772 o
-1 -10 1 68.555 96.008 26.992 98.002 o
-1 -10 2 17.586 36.266 22.980 199.695 o
-1 -10 3 0.318 0.490 23.289 286.809 o
-1 -10 4 0.001 -1.132 20.632 368.107 o
-1 -10 5 72.264 66.319 26.265 106.383 o
-1 -10 6 3.482 26.840 27.756 175.924 o
-1 -10 7 28.651 31.559 28.290 139.807 o
-1 -10 8 0.119 -10.763 25.949 232.427 o
-1 -10 9 10.893 -3.828 27.741 185.040 o
-1 -10 10 4.126 14.213 33.200 132.572 o
-1 -10 11 136.174 101.420 60.206 30.930 o
-1 -9 1 4.032 -1.731 15.369 591.938 o
-1 -9 2 10.072 70.686 25.129 163.350 o
-1 -9 3 288.474 258.332 36.257 32.151 o
-1 -9 4 24.879 81.730 26.494 132.670 o
-1 -9 5 185.479 174.020 33.028 47.854 o
-1 -9 6 39.469 90.147 27.471 113.841 o
-1 -9 7 0.601 3.498 21.064 340.417 o
-1 -9 8 33.468 45.894 27.323 135.560 o
-1 -9 9 238.736 181.861 34.554 40.160 o
-1 -9 10 13.272 29.461 24.834 191.771 o
-1 -9 11 189.284 191.835 35.161 44.334 o
-1 -9 12 0.123 88.371 28.629 137.542 o
-1 -9 13 37.382 26.604 32.611 109.564 o
-1 -9 14 34.011 3.302 49.341 58.238 o
-1 -9 15 237.003 191.574 73.792 19.151 o
-1 -9 16 4.250 57.069 54.842 48.323 o
-1 -8 1 513.591 458.522 34.854 18.672 o
-1 -8 2 10.663 92.957 21.555 178.186 o
-1 -8 3 281.206 290.032 35.041 32.156 o
-1 -8 4 31.137 50.549 23.321 164.388 o
-1 -8 5 126.581 79.121 24.807 83.135 o
-1 -8 6 94.529 108.110 28.320 81.268 o
-1 -8 7 682.009 583.281 49.219 12.419 o
-1 -8 8 0.747 89.126 27.636 143.662 o
-1 -8 9 187.462 151.834 30.536 51.636 o
-1 -8 10 49.685 36.311 23.377 150.456 o
-1 -8 11 85.349 26.369 31.043 92.546 o
-1 -8 12 87.952 82.409 28.450 88.057 o
-1 -8 13 719.301 621.773 59.232 10.807 o
-1 -8 14 9.609 26.427 27.354 171.981 o
-1 -8 15 181.729 144.588 33.326 50.066 o
-1 -8 16 47.248 97.836 31.233 92.902 o
-1 -8 17 119.737 97.056 55.268 36.093 o
-1 -8 18 70.790 30.255 47.166 54.849 o
-1 -8 19 230.918 264.600 78.239 17.130 o
-1 -7 1 849.988 884.171 42.729 9.329 o
-1 -7 2 82.335 177.568 23.515 84.091 o
-1 -7 3 79.885 25.980 21.255 137.748 o
-1 -7 4 212.756 211.194 30.072 44.686 o
-1 -7 5 1385.130 1302.380 64.372 4.741 o
-1 -7 6 0.015 143.364 29.699 111.441 o
-1 -7 7 613.321 616.713 48.046 13.289 o
-1 -7 8 89.090 117.716 27.710 82.959 o
-1 -7 9 208.362 156.116 29.210 49.549 o
-1 -7 10 466.756 293.725 37.241 22.265 o
-1 -7 11 707.143 588.447 49.498 12.024 o
-1 -7 12 16.801 -22.215 36.548 107.673 o
-1 -7 13 271.522 221.701 35.759 34.898 o
-1 -7 14 427.592 374.705 44.868 20.406 o
-1 -7 15 274.549 221.444 37.900 33.510 o
-1 -7 16 227.292 155.331 33.763 43.305 o
-1 -7 17 557.991 516.223 54.797 14.120 o
-1 -7 18 36.743 20.465 43.058 71.444 o
-1 -7 19 27.016 -6.955 33.319 120.221 o
-1 -7 20 207.940 256.659 76.486 18.178 o
-1 -7 21 108.208 116.092 57.813 33.971 o
-1 -7 22 78.071 -45.520 55.710 42.628 o
-1 -6 1 96.249 88.522 14.237 124.001 o
-1 -6 2 487.950 516.214 27.727 19.623 o
-1 -6 3 2566.850 2446.950 64.835 1.927 o
-1 -6 4 15.318 116.372 25.296 133.059 o
-1 -6 5 796.265 863.212 41.437 10.001 o
-1 -6 6 1304.060 1227.070 49.477 5.428 o
-1 -6 7 546.446 431.468 38.460 17.616 o
-1 -6 8 670.050 575.374 43.944 13.161 o
-1 -6 9 1914.250 1639.630 110.037 2.720 o
-1 -6 10 112.177 106.129 25.728 81.444 o
-1 -6 11 545.490 549.287 45.260 15.370 o
-1 -6 12 761.249 743.626 53.331 10.214 o
-1 -6 13 266.527 226.663 33.202 36.532 o
-1 -6 14 462.396 329.737 46.637 19.633 o
-1 -6 15 1334.490 1343.450 110.487 3.872 o
-1 -6 16 118.116 172.471 38.000 51.668 o
-1 -6 17 172.933 144.678 32.634 52.110 o
-1 -6 18 761.178 766.435 64.327 9.324 o
-1 -6 19 232.539 174.579 36.812 39.459 o
-1 -6 20 168.344 106.002 33.244 55.190 o
-1 -6 21 254.623 267.129 46.718 28.748 o
-1 -6 22 69.625 30.909 47.121 55.053 o
-1 -6 23 30.463 3.703 47.742 62.405 o
-1 -5 1 3148.600 3418.330 49.988 1.311 o
-1 -5 2 43.343 125.328 31.557 87.862 o
-1 -5 3 1212.980 1290.630 38.523 5.868 o
-1 -5 4 3018.390 2992.720 58.391 1.468 o
-1 -5 5 435.296 420.974 37.757 21.046 o
-1 -5 6 1544.610 1498.870 40.474 4.320 o
-1 -5 7 2595.980 2489.010 52.637 1.921 o
-1 -5 8 532.633 501.133 24.442 18.935 o
-1 -5 9 668.876 687.282 33.725 13.193 o
-1 -5 10 2853.590 2596.530 72.706 1.649 o
-1 -5 11 861.775 781.649 42.589 9.700 o
-1 -5 12 1468.590 1174.910 52.761 4.880 o
-1 -5 13 411.967 459.057 41.662 20.335 o
-1 -5 14 446.905 356.003 37.466 21.814 o
-1 -5 15 162.897 136.176 28.599 59.460 o
-1 -5 16 2404.830 2359.080 97.715 1.962 o
-1 -5 17 248.082 279.039 40.312 32.061 o
-1 -5 18 410.521 327.656 44.036 21.918 o
-1 -5 19 330.167 348.424 47.818 23.255 o
-1 -5 20 443.321 425.491 52.042 17.711 o
-1 -5 21 4.151 -7.971 27.307 202.191 o
-1 -5 22 774.501 836.853 73.420 8.336 o
-1 -5 23 88.599 66.127 32.868 78.707 o
-1 -5 24 111.232 30.485 46.359 50.581 o
-1 -5 25 85.241 167.264 72.829 23.757 o
-1 -4 1 1646.920 2074.930 37.226 3.437 o
-1 -4 2 6291.920 6409.860 65.629 0.404 o
-1 -4 3 56.348 9.959 22.907 161.415 o
-1 -4 4 3687.730 3961.730 60.256 1.003 o
-1 -4 5 4186.480 4367.320 99.798 0.795 o
-1 -4 6 795.532 732.286 26.744 11.484 o
-1 -4 7 647.208 665.409 26.230 14.284 o
-1 -4 8 7645.160 7186.100 120.329 0.292 o
-1 -4 9 524.330 520.074 24.838 18.857 o
-1 -4 10 1833.220 1731.960 44.225 3.367 o
-1 -4 11 1578.120 1595.640 59.072 3.913 o
-1 -4 12 1043.900 926.581 39.141 7.784 o
-1 -4 13 588.687 531.899 32.204 16.273 o
-1 -4 14 3580.900 3633.320 92.539 1.053 o
-1 -4 15 295.534 334.864 37.896 28.725 o
-1 -4 16 961.238 799.412 58.301 8.037 o
-1 -4 17 622.290 650.039 54.713 12.218 o
-1 -4 18 920.700 868.004 64.083 7.796 o
-1 -4 19 68.903 26.193 26.726 119.014 o
-1 -4 20 1914.600 2018.410 101.299 2.575 o
-1 -4 21 25.550 10.798 34.811 109.302 o
-1 -4 22 110.046 92.856 30.324 74.270 o
-1 -4 23 17.328 33.597 44.531 70.334 o
-1 -4 24 312.729 326.071 48.486 24.099 o
-1 -4 25 1.480 13.446 41.384 88.493 o
-1 -4 26 535.447 787.665 123.321 6.320 o
-1 -3 1 712.156 799.015 40.440 11.344 o
-1 -3 2 7148.900 7356.350 68.115 0.319 o
-1 -3 3 2651.500 3173.460 53.857 1.636 o
-1 -3 4 1953.050 2031.990 39.201 2.935 o
-1 -3 5 92.069 134.401 13.592 112.099 o
-1 -3 6 12940.300 13523.300 106.936 0.104 o
-1 -3 7 199.322 264.591 43.544 33.901 o
-1 -3 8 3734.600 4042.040 63.823 0.975 o
-1 -3 9 800.600 776.205 57.393 9.419 o
-1 -3 10 3303.500 2990.360 88.083 1.281 o
-1 -3 11 121.988 107.833 24.716 79.909 o
-1 -3 12 9476.400 9383.850 113.476 0.192 o
-1 -3 13 409.324 435.724 25.732 24.227 o
-1 -3 14 1313.800 1212.800 53.298 5.345 o
-1 -3 15 84.739 54.214 38.180 68.398 o
-1 -3 16 1044.460 936.484 44.059 7.593 o
-1 -3 17 8.019 18.439 18.652 332.959 o
-1 -3 18 4239.830 4270.360 107.020 0.788 o
-1 -3 19 14.437 -34.303 79.163 24.602 o
-1 -3 20 495.146 384.695 45.799 18.206 o
-1 -3 21 14.153 -51.847 39.204 95.691 o
-1 -3 22 679.502 645.185 58.538 11.177 o
-1 -3 23 4.993 1.902 27.923 190.684 o
-1 -3 24 823.783 968.756 74.020 7.566 o
-1 -3 25 0.508 -8.736 31.200 160.385 o
-1 -3 26 60.497 31.192 37.175 80.799 o
-1 -3 27 0.048 59.197 55.939 46.895 o
-1 -2 1 1081.170 1616.350 30.539 5.852 o
-1 -2 2 2503.950 2819.500 33.635 1.901 o
-1 -2 3 827.877 1242.450 27.201 8.550 o
-1 -2 4 20147.700 22615.500 112.518 0.042 o
-1 -2 5 159.977 222.679 38.191 43.148 o
-1 -2 6 10965.600 12698.300 131.168 0.132 o
-1 -2 7 946.988 989.084 50.622 7.827 o
-1 -2 8 3991.410 3949.390 82.610 0.902 o
-1 -2 9 5.889 9.241 15.755 485.447 o
-1 -2 10 13786.900 14024.300 190.333 0.092 o
-1 -2 11 0.732 -7.159 20.851 356.205 o
-1 -2 12 2189.930 2360.510 55.481 2.350 o
-1 -2 13 60.892 89.400 45.229 55.369 o
-1 -2 14 2037.580 1826.110 97.366 2.576 o
-1 -2 15 181.748 199.976 24.445 54.706 o
-1 -2 16 5250.590 5501.550 99.105 0.539 o
-1 -2 17 6.214 47.963 38.076 94.050 o
-1 -2 18 436.485 447.004 35.788 20.988 o
-1 -2 19 78.932 162.024 52.820 39.091 o
-1 -2 20 1588.930 1633.180 65.856 3.767 o
-1 -2 21 0.001 -3.483 22.617 306.345 o
-1 -2 22 1827.130 2091.610 99.551 2.651 o
-1 -2 23 77.093 92.842 33.453 76.648 o
-1 -2 24 47.797 15.563 24.872 153.367 o
-1 -2 25 60.438 103.172 32.439 83.041 o
-1 -2 26 298.961 378.707 49.854 23.153 o
-1 -2 27 1.967 26.331 36.077 111.204 o
-1 -1 1 596.557 724.837 23.838 14.838 o
-1 -1 2 28576.900 34563.900 328.813 0.020 o
-1 -1 3 361.178 463.461 18.660 27.179 o
-1 -1 4 7960.570 9531.280 132.416 0.232 o
-1 -1 5 103.980 66.713 10.271 137.332 o
-1 -1 6 6173.570 6553.990 110.966 0.400 o
-1 -1 7 448.889 444.527 27.958 22.077 o
-1 -1 8 15780.400 17501.600 225.993 0.067 o
-1 -1 9 149.752 256.032 28.108 51.867 o
-1 -1 10 3270.920 3827.560 60.360 1.165 o
-1 -1 11 788.177 840.517 77.257 7.988 o
-1 -1 12 5189.130 4816.020 104.100 0.587 o
-1 -1 13 113.618 163.115 18.130 85.168 o
-1 -1 14 9804.260 10179.500 135.864 0.174 o
-1 -1 15 22.205 58.704 20.231 200.248 o
-1 -1 16 666.624 703.386 35.752 12.950 o
-1 -1 17 609.819 611.401 56.516 12.442 o
-1 -1 18 380.686 414.476 36.222 23.481 o
-1 -1 19 3.564 51.413 24.957 188.231 o
-1 -1 20 2509.660 2618.750 77.305 1.864 o
-1 -1 21 163.071 132.167 30.828 56.941 o
-1 -1 22 225.374 153.644 31.779 45.249 o
-1 -1 23 126.400 152.664 34.677 56.416 o
-1 -1 24 354.198 346.655 45.320 23.205 o
-1 -1 25 11.416 -8.972 33.978 126.829 o
-1 -1 26 314.464 398.437 49.918 22.250 o
-1 -1 27 85.524 128.978 41.071 55.477 o
-1 0 1 96.114 -13.276 18.361 149.531 o
-1 0 2 6557.320 6428.990 115.155 0.376 o
-1 0 3 756.131 423.577 35.000 13.818 o
-1 0 4 4805.980 5302.600 75.628 0.619 o
-1 0 5 467.441 339.630 12.037 25.831 o
-1 0 6 24038.800 25319.700 236.995 0.031 o
-1 0 7 589.879 599.090 21.417 16.479 o
-1 0 8 8959.420 10332.300 196.679 0.187 o
-1 0 9 1154.410 1188.800 42.171 6.308 o
-1 0 10 3610.410 3280.630 106.241 1.081 o
-1 0 11 64.561 89.101 13.053 159.522 o
-1 0 12 7242.060 7375.650 120.883 0.307 o
-1 0 13 1169.380 1190.790 36.225 6.348 o
-1 0 14 602.816 622.750 27.884 15.424 o
-1 0 15 1197.630 1130.610 87.348 5.060 o
-1 0 16 2028.210 1871.590 67.656 2.784 o
-1 0 17 29.783 45.049 19.053 211.230 o
-1 0 18 2993.940 2934.640 232.496 1.009 o
-1 0 19 362.903 293.649 48.579 22.814 o
-1 0 20 65.573 41.114 13.209 193.828 o
-1 0 21 708.262 663.945 42.474 12.111 o
-1 0 22 695.910 735.685 58.555 10.514 o
-1 0 23 10.087 -7.519 26.405 203.835 o
-1 0 24 683.560 841.036 65.503 9.580 o
-1 0 25 170.739 196.630 36.752 44.725 o
-1 0 26 31.488 -6.188 30.207 137.674 o
-1 0 27 85.672 211.383 68.788 25.230 o
-1 1 1 5627.530 4561.130 92.669 0.553 o
-1 1 2 14265.500 16848.700 142.586 0.079 o
-1 1 3 799.086 506.649 28.179 12.946 o
-1 1 4 12502.600 13658.300 213.487 0.105 o
-1 1 5 1246.200 1216.920 67.652 5.272 o
-1 1 6 1448.670 1448.320 82.502 4.050 o
-1 1 7 5211.450 4232.870 109.987 0.622 o
-1 1 8 4796.920 4266.900 146.643 0.656 o
-1 1 9 1550.230 1363.250 42.505 4.475 o
-1 1 10 9166.060 8878.250 199.681 0.200 o
-1 1 11 564.530 532.508 29.971 17.067 o
-1 1 12 1381.970 1501.910 84.258 4.113 o
-1 1 13 2358.610 2189.230 57.156 2.257 o
-1 1 14 1412.060 1231.850 70.739 4.645 o
-1 1 15 59.605 57.683 9.173 212.942 o
-1 1 16 2684.060 2765.570 69.547 1.712 o
-1 1 17 559.871 569.713 47.026 14.679 o
-1 1 18 136.978 81.991 13.165 101.715 o
-1 1 19 529.170 540.923 132.555 6.156 o
-1 1 20 19.124 20.689 15.597 344.919 o
-1 1 21 11.450 43.147 45.299 68.460 o
-1 1 22 480.663 652.604 106.848 8.079 o
-1 1 23 376.450 511.792 97.568 10.186 o
-1 1 24 16.239 19.535 44.664 71.854 o
-1 1 25 276.431 261.382 77.216 16.640 o
-1 1 26 87.387 53.990 85.971 19.007 o
-1 1 27 1.407 45.436 45.391 70.184 o
-1 1 28 67.062 109.963 57.986 36.646 o
-1 2 1 1307.080 1108.410 39.604 5.837 o
-1 2 2 12177.000 12714.000 128.703 0.116 o
-1 2 3 39.520 50.389 15.372 221.400 o
-1 2 4 3169.950 3170.520 59.995 1.346 o
-1 2 5 3781.020 2945.770 102.040 1.086 o
-1 2 6 2516.930 2418.620 46.329 2.032 o
-1 2 7 979.633 748.186 40.942 8.876 o
-1 2 8 5611.900 5665.830 233.843 0.430 o
-1 2 9 1929.560 1796.610 46.303 3.126 o
-1 2 10 742.882 902.488 35.269 10.681 o
-1 2 11 4481.720 4655.920 79.453 0.722 o
-1 2 12 1570.870 1493.510 47.047 4.190 o
-1 2 13 281.660 292.495 27.621 35.411 o
-1 2 14 1577.880 1649.430 49.858 3.950 o
-1 2 15 1347.440 1279.850 74.941 4.680 o
-1 2 16 29.239 54.649 27.086 136.959 o
-1 2 17 1758.310 1535.210 159.273 2.390 o
-1 2 18 667.141 526.003 57.755 12.116 o
-1 2 19 102.347 79.808 30.681 77.713 o
-1 2 20 641.588 581.623 65.306 11.279 o
-1 2 21 280.455 289.122 50.889 25.181 o
-1 2 22 16.734 42.655 31.135 126.051 o
-1 2 23 310.872 400.257 59.433 19.455 o
-1 2 24 30.168 67.978 37.974 82.072 o
-1 2 25 0.072 32.654 29.325 160.450 o
-1 2 26 55.486 82.952 41.320 64.625 o
-1 2 27 115.275 122.205 67.841 26.308 o
-1 2 28 6.580 18.850 40.684 88.580 o
-1 3 1 2108.260 1663.030 42.533 2.965 o
-1 3 2 1955.720 1857.150 136.014 2.304 o
-1 3 3 12271.500 10635.400 192.049 0.126 o
-1 3 4 3871.610 4246.850 248.579 0.681 o
-1 3 5 471.088 342.743 33.399 22.080 o
-1 3 6 2502.820 2745.630 75.425 1.829 o
-1 3 7 1075.240 997.842 40.916 7.298 o
-1 3 8 264.688 312.886 45.532 27.650 o
-1 3 9 3424.400 3037.180 108.033 1.185 o
-1 3 10 678.191 631.934 59.618 11.164 o
-1 3 11 600.154 520.291 35.393 15.798 o
-1 3 12 1272.750 1399.030 51.201 5.193 o
-1 3 13 647.324 667.446 39.449 13.219 o
-1 3 14 205.718 230.202 25.686 47.701 o
-1 3 15 1130.630 1125.730 83.005 5.423 o
-1 3 16 19.700 14.229 23.959 204.617 o
-1 3 17 1.439 -32.799 26.763 215.711 o
-1 3 18 111.274 152.304 37.839 54.449 o
-1 3 19 554.709 411.054 56.026 14.880 o
-1 3 20 0.055 -26.925 28.792 188.940 o
-1 3 21 270.173 291.207 51.409 25.341 o
-1 3 22 3.335 -7.841 29.715 172.847 o
-1 3 23 39.560 66.815 37.159 81.848 o
-1 3 24 40.969 101.820 39.494 70.020 o
-1 3 25 141.446 153.701 45.981 40.998 o
-1 3 26 0.315 38.887 51.748 55.593 o
-1 3 27 94.721 181.072 75.378 22.040 o
-1 4 1 5727.770 4925.560 93.192 0.520 o
-1 4 2 1048.680 1419.630 86.614 5.096 o
-1 4 3 1109.060 1009.410 46.155 6.919 o
-1 4 4 1997.350 2290.120 67.224 2.556 o
-1 4 5 765.028 716.156 40.122 11.226 o
-1 4 6 10.115 22.822 19.440 294.840 o
-1 4 7 3594.770 3379.230 73.696 1.115 o
-1 4 8 582.794 574.882 22.738 16.824 o
-1 4 9 306.445 248.835 15.470 39.860 o
-1 4 10 202.661 229.507 42.481 35.627 o
-1 4 11 1320.120 1216.300 50.725 5.364 o
-1 4 12 25.217 87.420 18.473 185.564 o
-1 4 13 2417.570 2349.680 95.652 1.965 o
-1 4 14 332.599 332.983 58.206 20.131 o
-1 4 15 173.798 163.134 44.232 39.297 o
-1 4 16 143.445 182.430 50.039 35.996 o
-1 4 17 316.219 328.731 64.127 18.848 o
-1 4 18 6.946 50.078 40.897 82.391 o
-1 4 19 384.150 441.092 77.722 13.520 o
-1 4 20 10.129 -2.427 32.073 142.383 o
-1 4 21 1.906 -30.675 39.132 101.437 o
-1 4 22 12.127 9.222 36.724 106.761 o
-1 4 23 97.490 55.222 45.221 52.534 o
-1 4 24 1.908 16.711 40.031 93.535 o
-1 4 25 45.281 4.208 37.111 91.126 o
-1 5 1 926.844 827.215 41.169 8.978 o
-1 5 2 129.780 357.877 36.232 40.957 o
-1 5 3 1164.550 1229.650 62.073 5.696 o
-1 5 4 2.461 170.564 29.989 101.381 o
-1 5 5 4140.150 3953.190 72.366 0.873 o
-1 5 6 248.073 419.142 22.181 35.163 o
-1 5 7 80.094 53.531 17.033 144.497 o
-1 5 8 172.359 228.566 17.241 60.072 o
-1 5 9 239.301 228.870 18.711 47.694 o
-1 5 10 37.310 84.038 13.847 202.518 o
-1 5 11 625.460 575.828 46.681 13.567 o
-1 5 12 0.138 14.391 15.649 527.903 o
-1 5 13 18.582 -10.846 17.669 352.482 o
-1 5 14 2.504 15.025 19.547 345.814 o
-1 5 15 377.568 285.252 58.908 19.369 o
-1 5 16 3.861 19.612 35.763 113.875 o
-1 5 17 334.067 368.197 67.386 17.145 o
-1 5 18 2.016 -29.447 36.850 114.199 o
-1 5 19 0.577 12.182 32.776 139.723 o
-1 5 20 0.042 -23.554 37.344 112.338 o
-1 5 21 110.794 159.718 58.657 31.890 o
-1 5 22 1.513 55.301 44.476 71.653 o
-1 5 23 53.855 79.847 48.327 51.745 o
-1 5 24 1.539 54.628 49.998 57.901 o
-1 6 1 304.724 286.589 25.515 34.692 o
-1 6 2 103.219 213.513 29.903 61.916 o
-1 6 3 1444.950 1527.880 80.627 3.998 o
-1 6 4 46.948 81.537 36.616 78.867 o
-1 6 5 135.419 158.916 20.607 74.504 o
-1 6 6 0.043 119.379 29.301 121.221 o
-1 6 7 703.395 699.232 33.152 12.619 o
-1 6 8 202.558 234.508 33.178 42.161 o
-1 6 9 1155.670 1200.540 51.702 6.056 o
-1 6 10 73.296 93.478 17.116 131.599 o
-1 6 11 55.098 45.248 13.700 206.873 o
-1 6 12 0.164 0.823 11.066 1238.500 o
-1 6 13 158.394 197.439 32.787 50.199 o
-1 6 14 6.052 -1.077 20.359 342.638 o
-1 6 15 263.661 251.750 38.538 32.875 o
-1 6 16 0.267 22.496 33.466 130.395 o
-1 6 17 4.045 7.795 34.158 128.122 o
-1 6 18 0.810 21.300 36.526 110.704 o
-1 6 19 43.416 25.709 37.492 86.385 o
-1 6 20 1.722 -38.869 40.794 93.478 o
-1 6 21 20.519 -26.313 41.331 84.494 o
-1 6 22 11.089 -63.902 49.865 61.087 o
-1 7 1 882.517 869.417 66.174 7.931 o
-1 7 2 143.101 138.835 34.139 55.492 o
-1 7 3 108.809 110.390 22.948 88.106 o
-1 7 4 19.329 46.685 24.822 169.643 o
-1 7 5 170.073 235.155 23.950 54.145 o
-1 7 6 14.130 71.474 34.243 102.197 o
-1 7 7 366.860 423.049 32.347 24.867 o
-1 7 8 35.370 59.805 17.630 199.238 o
-1 7 9 10.391 9.580 23.434 238.462 o
-1 7 10 7.548 28.061 14.935 415.657 o
-1 7 11 73.218 78.325 24.854 107.680 o
-1 7 12 8.295 -21.257 22.104 286.266 o
-1 7 13 113.710 143.478 30.679 66.097 o
-1 7 14 0.836 -21.862 22.210 313.900 o
-1 7 15 0.030 -4.259 23.108 293.340 o
-1 7 16 29.039 8.996 23.977 192.133 o
-1 7 17 65.993 163.790 54.200 38.613 o
-1 7 18 9.474 47.528 40.610 83.014 o
-1 7 19 43.487 113.606 53.873 42.985 o
-1 7 20 0.257 -70.346 48.645 66.171 o
-1 8 1 19.115 46.814 26.653 154.100 o
-1 8 2 32.264 90.598 31.800 99.188 o
-1 8 3 188.613 210.760 41.117 38.514 o
-1 8 4 121.180 129.629 36.656 56.412 o
-1 8 5 244.451 299.722 35.076 34.375 o
-1 8 6 4.817 30.924 26.722 182.499 o
-1 8 7 14.191 22.523 40.907 84.462 o
-1 8 8 23.473 52.211 25.072 158.737 o
-1 8 9 107.977 176.951 34.099 58.368 o
-1 8 10 29.034 25.874 22.452 194.292 o
-1 8 11 61.482 90.132 29.517 94.220 o
-1 8 12 2.324 -1.517 22.489 300.100 o
-1 8 13 0.094 21.660 22.009 278.855 o
-1 8 14 2.094 -0.341 23.134 284.925 o
-1 8 15 4.427 11.105 21.508 293.795 o
-1 8 16 0.074 -21.678 41.442 91.215 o
-1 8 17 4.055 6.052 23.483 260.470 o
-1 8 18 9.802 4.028 38.143 101.834 o
-1 9 1 37.851 64.245 32.184 101.302 o
-1 9 2 7.680 1.851 25.924 213.754 o
-1 9 3 60.240 33.376 26.853 121.963 o
-1 9 4 0.088 49.896 22.842 223.643 o
-1 9 5 1.823 44.448 26.349 180.939 o
-1 9 6 36.457 55.959 22.456 160.939 o
-1 9 7 26.245 72.730 24.175 150.655 o
-1 9 8 8.424 36.185 22.391 226.777 o
-1 9 9 16.216 53.884 24.153 175.172 o
-1 9 10 18.429 27.713 25.341 179.352 o
-1 9 11 3.556 11.975 22.849 265.693 o
-1 9 12 5.777 -10.443 23.721 259.624 o
-1 9 13 15.189 37.683 26.431 166.194 o
-1 9 14 11.176 -14.938 33.797 128.277 o
-1 9 15 17.381 7.771 23.160 227.737 o
-1 9 16 0.189 -50.987 37.668 110.335 o
-1 9 17 0.074 -46.794 38.283 106.884 o
-1 10 1 17.238 48.547 32.492 115.666 o
-1 10 2 0.028 -3.844 32.243 150.704 o
-1 10 3 0.010 21.944 38.224 101.819 o
-1 10 4 12.120 38.373 23.945 196.414 o
-1 10 5 20.907 66.652 25.448 150.571 o
-1 10 6 13.578 15.087 24.598 207.348 o
-1 10 7 10.413 41.429 40.023 85.867 o
-1 10 8 0.336 64.208 44.908 69.663 o
-1 10 9 0.075 34.137 39.770 91.978 o
0 -11 1 18.664 84.384 43.793 66.388 o
0 -11 2 13.353 19.976 38.577 94.691 o
0 -10 1 57.905 65.165 27.591 109.682 o
0 -10 2 16.948 25.354 24.511 192.745 o
0 -10 3 0.251 13.412 20.532 332.801 o
0 -10 4 4.268 22.224 23.035 244.843 o
0 -10 5 44.522 79.382 28.984 107.375 o
0 -10 6 48.266 50.978 27.949 118.638 o
0 -10 7 78.279 126.835 32.453 73.784 o
0 -10 8 18.413 56.569 33.912 105.361 o
0 -10 9 0.267 39.212 31.855 135.504 o
0 -9 1 15.726 10.619 21.303 259.508 o
0 -9 2 19.356 32.879 23.790 190.371 o
0 -9 3 284.870 267.906 38.767 30.883 o
0 -9 4 44.989 132.955 26.864 100.965 o
0 -9 5 97.912 129.426 31.399 70.378 o
0 -9 6 0.965 35.599 24.715 210.475 o
0 -9 7 58.685 80.405 28.371 101.937 o
0 -9 8 24.045 19.351 23.356 198.985 o
0 -9 9 241.896 199.335 36.565 37.696 o
0 -9 10 59.265 43.095 25.571 125.643 o
0 -9 11 141.278 111.336 31.569 62.116 o
0 -9 12 3.548 27.440 25.143 207.514 o
0 -9 13 41.131 44.664 31.630 107.141 o
0 -9 14 29.807 41.827 65.601 33.551 o
0 -8 1 603.021 618.637 49.891 13.228 o
0 -8 2 77.940 196.457 34.246 62.057 o
0 -8 3 305.358 295.667 37.580 29.394 o
0 -8 4 1.450 57.971 23.868 198.924 o
0 -8 5 36.503 34.586 18.378 215.359 o
0 -8 6 2.159 45.478 24.263 204.403 o
0 -8 7 559.675 530.626 49.097 14.756 o
0 -8 8 104.658 146.026 31.783 65.982 o
0 -8 9 143.060 163.837 32.401 55.660 o
0 -8 10 34.438 68.238 25.744 134.722 o
0 -8 11 103.577 87.865 27.381 83.922 o
0 -8 12 118.159 106.563 29.333 72.092 o
0 -8 13 560.251 485.398 50.386 14.972 o
0 -8 14 17.856 49.804 25.889 160.147 o
0 -8 15 70.302 63.758 27.419 103.799 o
0 -8 16 36.002 60.206 31.387 106.809 o
0 -8 17 168.952 161.590 46.665 37.676 o
0 -8 18 96.872 57.839 55.405 39.048 o
0 -7 1 718.448 738.131 48.792 11.034 o
0 -7 2 52.311 114.459 26.227 104.248 o
0 -7 3 472.620 378.066 37.975 20.492 o
0 -7 4 399.796 462.280 41.914 20.603 o
0 -7 5 1766.340 1720.430 74.311 3.248 o
0 -7 6 30.149 223.597 33.687 70.988 o
0 -7 7 438.055 432.941 41.486 19.980 o
0 -7 8 82.979 126.161 28.137 82.585 o
0 -7 9 265.469 186.485 30.533 40.023 o
0 -7 10 101.376 115.947 28.138 78.133 o
0 -7 11 998.839 944.129 61.288 7.214 o
0 -7 12 24.682 11.981 28.059 155.594 o
0 -7 13 233.576 232.375 35.627 37.606 o
0 -7 14 136.579 202.465 35.368 50.100 o
0 -7 15 267.369 234.109 37.220 33.941 o
0 -7 16 123.624 73.302 29.872 74.135 o
0 -7 17 584.854 591.297 56.994 12.865 o
0 -7 18 7.885 56.789 30.819 129.451 o
0 -7 19 14.165 43.486 27.162 157.367 o
0 -7 20 100.610 211.126 51.524 36.793 o
0 -6 1 35.554 17.149 15.808 275.779 o
0 -6 2 282.938 418.864 24.467 31.825 o
0 -6 3 2641.200 2794.300 58.029 1.760 o
0 -6 4 19.556 205.561 27.080 95.009 o
0 -6 5 371.229 351.331 34.268 25.761 o
0 -6 6 900.290 856.521 50.873 8.633 o
0 -6 7 720.676 692.751 46.974 11.414 o
0 -6 8 432.147 430.700 39.440 20.631 o
0 -6 9 2680.560 2650.710 92.716 1.683 o
0 -6 10 1.990 33.982 26.749 184.195 o
0 -6 11 57.683 64.025 22.946 131.919 o
0 -6 12 1035.830 931.442 58.596 7.144 o
0 -6 13 486.693 434.192 43.048 18.313 o
0 -6 14 547.436 467.545 49.729 15.475 o
0 -6 15 1071.890 1163.410 69.655 6.002 o
0 -6 16 48.665 69.822 46.050 57.294 o
0 -6 17 64.953 64.868 25.579 113.968 o
0 -6 18 468.038 585.912 55.851 14.895 o
0 -6 19 335.010 397.196 47.892 22.201 o
0 -6 20 131.525 77.282 30.426 70.321 o
0 -6 21 210.171 244.162 43.984 33.578 o
0 -6 22 68.049 79.750 88.171 18.270 o
0 -5 1 5067.640 5121.030 85.387 0.591 o
0 -5 2 58.516 260.544 38.334 53.535 o
0 -5 3 2486.040 2534.590 68.875 1.944 o
0 -5 4 1946.810 2161.180 58.298 2.754 o
0 -5 5 1209.940 1283.490 46.123 5.758 o
0 -5 6 1164.760 1245.900 38.476 6.194 o
0 -5 7 2948.250 2719.890 56.462 1.589 o
0 -5 8 364.201 373.423 24.169 28.303 o
0 -5 9 678.009 628.566 33.365 13.546 o
0 -5 10 1676.940 1681.440 60.513 3.590 o
0 -5 11 492.899 476.318 39.873 18.172 o
0 -5 12 326.434 253.519 31.468 31.921 o
0 -5 13 1722.260 1870.790 77.298 3.166 o
0 -5 14 210.595 208.746 30.943 44.411 o
0 -5 15 49.823 17.446 20.706 183.482 o
0 -5 16 1563.800 1549.360 78.121 3.751 o
0 -5 17 555.259 615.829 52.960 13.616 o
0 -5 18 274.733 204.974 35.038 35.703 o
0 -5 19 622.939 654.122 60.272 11.606 o
0 -5 20 264.430 288.355 44.234 28.879 o
0 -5 21 13.494 3.711 26.149 197.620 o
0 -5 22 397.139 395.663 54.300 18.680 o
0 -5 23 133.851 133.347 37.191 53.307 o
0 -5 24 47.645 4.776 42.629 71.909 o
0 -4 1 1258.990 1105.120 66.936 5.447 o
0 -4 2 5411.660 6305.900 198.493 0.439 o
0 -4 3 1124.000 1073.360 50.711 6.540 o
0 -4 4 4172.270 4695.460 87.985 0.773 o
0 -4 5 5587.240 5453.780 97.088 0.505 o
0 -4 6 1499.630 1440.880 61.031 4.273 o
0 -4 7 105.057 64.760 18.087 114.927 o
0 -4 8 7145.260 7318.420 95.372 0.317 o
0 -4 9 1777.050 2038.960 53.066 3.136 o
0 -4 10 1818.630 1887.770 72.073 3.046 o
0 -4 11 3773.870 3713.890 74.644 1.002 o
0 -4 12 789.572 774.922 37.203 10.771 o
0 -4 13 3.651 3.308 22.738 282.566 o
0 -4 14 3124.360 3092.640 96.723 1.319 o
0 -4 15 171.948 144.568 34.979 49.643 o
0 -4 16 619.195 644.923 50.982 12.684 o
0 -4 17 378.884 443.461 45.566 20.673 o
0 -4 18 764.428 790.489 61.369 9.403 o
0 -4 19 1.730 30.432 29.070 162.266 o
0 -4 20 1570.060 1650.300 93.517 3.424 o
0 -4 21 223.303 142.772 37.102 41.664 o
0 -4 22 103.455 93.709 33.195 69.890 o
0 -4 23 55.202 101.563 35.014 77.827 o
0 -4 24 246.549 233.020 43.253 32.009 o
0 -4 25 0.079 26.604 39.592 94.252 o
0 -3 1 530.779 609.656 32.788 16.634 o
0 -3 2 2286.680 2973.080 88.442 1.858 o
0 -3 3 7246.630 6773.380 90.741 0.327 o
0 -3 4 530.137 444.862 34.392 18.479 o
0 -3 5 2321.400 2129.360 56.121 2.331 o
0 -3 6 11781.500 11972.700 174.030 0.124 o
0 -3 7 380.127 477.441 30.080 23.688 o
0 -3 8 1369.090 1396.330 49.956 4.887 o
0 -3 9 668.303 600.156 28.197 14.354 o
0 -3 10 3606.810 3384.300 66.757 1.117 o
0 -3 11 212.112 99.912 31.096 51.250 o
0 -3 12 7523.550 7422.530 134.228 0.290 o
0 -3 13 418.006 397.438 36.159 22.406 o
0 -3 14 1009.720 1087.820 50.065 7.145 o
0 -3 15 1149.000 1304.570 65.815 5.514 o
0 -3 16 1356.170 1389.600 81.660 4.366 o
0 -3 17 0.382 4.235 24.471 254.186 o
0 -3 18 2763.570 2953.750 110.975 1.489 o
0 -3 19 77.032 -14.376 41.647 68.159 o
0 -3 20 118.322 75.357 27.415 80.856 o
0 -3 21 67.736 35.391 43.809 61.504 o
0 -3 22 812.216 840.404 67.319 8.446 o
0 -3 23 3.080 -46.258 28.740 184.838 o
0 -3 24 659.607 873.966 69.942 9.302 o
0 -3 25 14.164 31.273 34.091 113.911 o
0 -3 26 7.119 46.424 33.734 115.617 o
0 -2 1 559.134 490.148 24.925 18.296 o
0 -2 2 9905.540 11282.000 94.302 0.162 o
0 -2 3 132.678 34.767 14.313 116.678 o
0 -2 4 27926.300 32172.100 236.806 0.022 o
0 -2 5 2942.540 3323.540 67.410 1.407 o
0 -2 6 14199.900 16542.300 339.865 0.077 o
0 -2 7 3495.470 3447.450 84.994 1.123 o
0 -2 8 5269.570 4878.870 85.283 0.580 o
0 -2 9 10.967 33.046 15.959 347.162 o
0 -2 10 11853.500 11582.700 145.700 0.127 o
0 -2 11 113.421 250.537 27.406 59.455 o
0 -2 12 1073.360 1219.850 42.251 6.641 o
0 -2 13 389.890 394.078 44.958 21.258 o
0 -2 14 4004.420 3774.020 80.530 0.923 o
0 -2 15 115.825 106.327 19.704 93.209 o
0 -2 16 3872.180 3793.330 113.610 0.920 o
0 -2 17 9.103 -22.860 45.288 74.072 o
0 -2 18 605.339 649.387 52.145 12.724 o
0 -2 19 0.811 17.391 46.176 71.239 o
0 -2 20 1056.430 1011.290 66.822 6.517 o
0 -2 21 0.266 7.167 28.360 188.446 o
0 -2 22 1508.120 1715.190 88.894 3.544 o
0 -2 23 0.063 5.747 25.755 229.074 o
0 -2 24 31.088 -2.086 30.736 134.219 o
0 -2 25 1.115 34.351 28.458 166.676 o
0 -2 26 180.294 176.131 37.034 44.540 o
0 -2 27 8.191 -23.321 32.631 139.562 o
0 -1 3 991.456 858.554 23.230 8.882 o
0 -1 4 1464.430 1900.910 46.887 3.949 o
0 -1 5 422.764 149.284 16.022 33.809 o
0 -1 6 8479.420 8569.120 107.350 0.233 o
0 -1 7 67.596 380.042 25.998 57.464 o
0 -1 8 26215.600 27076.100 307.749 0.026 o
0 -1 9 8.747 61.470 22.212 201.542 o
0 -1 10 2243.600 2717.350 63.614 2.091 o
0 -1 11 57.700 60.671 32.374 92.359 o
0 -1 12 4038.380 3613.380 70.739 0.944 o
0 -1 13 26.522 32.387 17.129 260.592 o
0 -1 14 8534.220 8243.950 129.497 0.235 o
0 -1 15 17.749 84.241 25.131 146.896 o
0 -1 16 585.870 719.037 49.819 12.753 o
0 -1 17 0.555 81.489 47.605 61.123 o
0 -1 18 2152.390 2161.650 85.424 2.347 o
0 -1 19 18.139 38.611 16.973 281.166 o
0 -1 20 1784.940 2019.870 87.313 2.863 o
0 -1 21 118.012 146.709 30.851 64.461 o
0 -1 22 16.274 -22.454 40.830 87.892 o
0 -1 23 87.275 91.720 30.166 81.961 o
0 -1 24 706.200 754.156 62.618 9.993 o
0 -1 25 0.149 13.138 28.967 176.731 o
0 -1 26 493.023 585.638 57.993 14.150 o
0 -1 27 8.516 -11.288 30.265 160.493 o
0 -1 28 3.226 -20.061 39.614 98.423 o
0 0 4 6219.540 6830.120 317.487 0.317 o
0 0 5 456.706 237.050 29.290 25.782 o
0 0 6 22615.400 26068.700 331.714 0.033 o
0 0 7 1.309 50.949 16.566 336.261 o
0 0 8 6559.450 9120.850 185.431 0.287 o
0 0 9 865.564 1153.320 51.524 7.786 o
0 0 10 7826.670 8533.900 166.385 0.250 o
0 0 11 54.995 191.076 32.661 70.946 o
0 0 12 7677.900 8183.430 128.500 0.268 o
0 0 13 763.051 717.353 39.919 11.256 o
0 0 14 387.216 414.161 20.828 26.710 o
0 0 15 383.861 432.277 57.428 17.817 o
0 0 16 3003.320 3266.070 73.327 1.381 o
0 0 17 30.762 59.223 28.859 123.211 o
0 0 18 1875.000 2141.970 103.465 2.531 o
0 0 19 176.274 181.531 38.248 43.555 o
0 0 20 361.781 295.835 56.059 20.481 o
0 0 21 174.801 194.929 33.464 47.464 o
0 0 22 370.246 359.171 41.318 23.572 o
0 0 23 7.890 -40.675 29.229 172.150 o
0 0 24 424.835 470.036 55.963 16.821 o
0 0 25 162.531 182.131 34.802 48.565 o
0 0 26 0.032 -26.749 29.739 177.133 o
0 0 27 52.569 61.216 42.331 65.201 o
0 0 28 73.982 93.833 56.807 37.926 o
0 1 3 1998.000 1703.400 34.334 3.149 o
0 1 4 18159.500 18935.700 118.080 0.054 o
0 1 5 888.768 650.449 18.893 11.120 o
0 1 6 2077.360 2348.620 53.215 2.494 o
0 1 7 1155.430 1605.250 42.592 5.390 o
0 1 8 7719.060 7482.020 213.214 0.267 o
0 1 9 1023.500 1340.700 45.621 6.504 o
0 1 10 14950.200 13829.700 150.704 0.085 o
0 1 11 765.420 631.360 37.410 11.937 o
0 1 12 963.212 1001.820 46.952 7.815 o
0 1 13 1218.900 1096.630 43.942 6.181 o
0 1 14 1841.300 1922.530 58.917 3.086 o
0 1 15 3.257 34.969 14.916 423.057 o
0 1 16 3157.330 3228.570 90.617 1.288 o
0 1 17 704.406 681.770 45.077 11.836 o
0 1 18 43.115 61.266 23.131 145.814 o
0 1 19 591.698 626.387 61.040 12.070 o
0 1 20 1150.700 1269.010 85.176 5.051 o
0 1 21 20.837 48.125 28.936 134.938 o
0 1 22 542.896 677.276 68.353 11.507 o
0 1 23 183.775 270.355 47.293 32.346 o
0 1 24 21.161 83.791 49.606 53.668 o
0 1 25 113.114 183.239 65.287 26.766 o
0 1 26 124.364 136.037 53.210 36.282 o
0 1 27 3.845 -4.870 33.371 137.355 o
0 1 28 102.001 68.198 51.763 42.294 o
0 2 0 3024.390 3076.890 56.011 1.447 o
0 2 1 4969.050 6101.220 180.248 0.498 o
0 2 2 60008.400 73495.700 273.873 0.005 o
0 2 3 10323.900 13091.700 163.282 0.137 o
0 2 4 351.761 575.691 16.938 25.131 o
0 2 5 2589.860 2375.730 66.589 1.932 o
0 2 6 1411.300 1094.500 48.106 5.297 o
0 2 7 59.395 21.804 6.382 282.721 o
0 2 8 6524.410 5813.410 70.219 0.409 o
0 2 9 1523.650 1460.770 27.301 4.547 o
0 2 10 529.163 637.875 19.368 17.642 o
0 2 11 4473.510 4697.650 100.389 0.708 o
0 2 12 2803.740 2455.540 94.381 1.661 o
0 2 13 57.324 43.754 10.825 224.423 o
0 2 14 2035.740 1703.650 101.822 2.613 o
0 2 15 995.684 646.652 46.029 8.941 o
0 2 16 236.576 167.518 19.540 52.188 o
0 2 17 562.093 464.175 35.977 17.200 o
0 2 18 441.509 350.316 25.879 24.656 o
0 2 19 12.595 -11.030 13.092 600.703 o
0 2 20 234.046 210.600 28.233 43.576 o
0 2 21 252.317 316.457 70.150 18.634 o
0 2 22 40.964 77.426 32.455 95.665 o
0 2 23 284.216 386.523 55.110 21.744 o
0 2 24 71.628 98.748 34.608 74.508 o
0 2 25 1.247 51.847 30.368 140.340 o
0 2 26 55.430 126.908 40.524 61.915 o
0 2 27 117.996 144.907 44.360 45.562 o
0 3 0 7851.190 8881.160 184.065 0.241 o
0 3 1 479.255 388.614 28.195 21.948 o
0 3 2 867.315 1093.740 32.615 8.679 o
0 3 3 9407.550 10727.300 95.879 0.178 o
0 3 4 7943.930 8052.360 84.236 0.264 o
0 3 5 2213.270 2306.560 47.176 2.385 o
0 3 6 6467.150 7599.880 119.293 0.344 o
0 3 7 967.881 822.104 29.134 9.086 o
0 3 8 740.065 898.912 28.941 11.041 o
0 3 9 1987.470 2208.970 37.450 2.762 o
0 3 10 1668.980 1419.970 36.079 4.131 o
0 3 11 350.270 399.160 21.965 28.894 o
0 3 12 1949.780 1843.250 73.734 2.870 o
0 3 13 1524.590 1506.430 52.416 4.234 o
0 3 14 16.833 27.458 14.142 373.974 o
0 3 15 1496.960 1502.030 63.474 4.167 o
0 3 16 442.098 433.332 56.196 16.797 o
0 3 17 30.512 12.712 16.350 294.362 o
0 3 18 479.597 439.739 41.161 18.775 o
0 3 19 471.511 422.477 53.528 16.817 o
0 3 20 8.435 10.829 24.869 218.578 o
0 3 21 295.650 300.527 48.434 25.314 o
0 3 22 111.240 101.724 32.641 68.079 o
0 3 23 0.690 6.150 25.409 233.109 o
0 3 24 38.459 86.243 33.881 89.691 o
0 3 25 75.336 97.046 38.628 64.748 o
0 3 26 10.677 25.436 43.320 76.677 o
0 4 0 1641.860 1608.020 40.555 3.930 o
0 4 1 2364.830 2370.130 47.693 2.192 o
0 4 2 851.318 939.186 30.702 9.566 o
0 4 3 1371.640 1538.530 49.546 4.659 o
0 4 4 3076.960 3856.460 68.315 1.226 o
0 4 5 8493.780 10404.000 111.690 0.204 o
0 4 6 1.667 144.742 22.638 148.629 o
0 4 7 2477.600 2407.660 60.944 2.030 o
0 4 8 317.373 248.116 17.003 38.332 o
0 4 9 88.608 96.783 17.212 117.900 o
0 4 10 1117.520 1122.360 38.328 6.756 o
0 4 11 793.557 747.363 63.532 9.190 o
0 4 12 26.402 52.585 15.443 252.675 o
0 4 13 1772.780 1897.740 59.653 3.216 o
0 4 14 139.825 146.973 22.316 72.440 o
0 4 15 1.729 2.535 16.737 520.050 o
0 4 16 82.111 126.609 31.070 75.851 o
0 4 17 441.393 430.966 47.376 18.669 o
0 4 18 37.708 39.742 50.983 51.933 o
0 4 19 277.598 319.826 66.019 19.304 o
0 4 20 24.540 83.042 42.719 67.937 o
0 4 21 3.676 -5.796 34.154 131.409 o
0 4 22 10.483 47.198 41.052 81.195 o
0 4 23 80.453 67.583 44.428 55.450 o
0 4 24 0.012 45.804 42.085 80.993 o
0 4 25 114.326 116.434 55.191 35.872 o
0 4 26 5.069 -9.692 36.320 115.647 o
0 5 0 969.774 1315.770 41.077 6.976 o
0 5 1 1103.550 1169.230 38.687 6.696 o
0 5 2 2098.610 2443.730 54.565 2.409 o
0 5 3 249.430 284.996 21.275 41.703 o
0 5 4 25.224 135.257 20.848 139.874 o
0 5 5 4023.110 4809.480 87.031 0.792 o
0 5 6 765.906 795.463 33.273 11.140 o
0 5 7 168.112 170.739 16.040 68.978 o
0 5 8 202.152 285.376 19.830 48.303 o
0 5 9 924.064 1015.450 35.053 8.461 o
0 5 10 14.408 30.999 20.517 246.690 o
0 5 11 968.820 1187.040 48.160 7.155 o
0 5 12 166.143 141.820 20.750 68.107 o
0 5 13 63.526 45.872 15.312 179.915 o
0 5 14 48.669 77.585 19.446 153.280 o
0 5 15 476.302 475.078 36.036 19.290 o
0 5 16 0.975 -0.329 15.767 613.366 o
0 5 17 356.296 374.437 46.248 22.352 o
0 5 18 8.307 -14.211 34.461 125.721 o
0 5 19 0.460 -44.750 36.735 115.842 o
0 5 20 8.929 9.345 36.975 107.050 o
0 5 21 97.582 108.983 48.587 44.578 o
0 5 22 7.522 49.162 44.945 69.638 o
0 5 23 31.173 -15.798 37.437 96.433 o
0 5 24 0.325 55.755 46.689 65.793 o
0 5 25 5.596 25.537 39.402 93.091 o
0 6 0 43.331 186.642 24.052 97.419 o
0 6 1 1221.890 1291.970 38.156 5.832 o
0 6 2 1.362 146.964 24.516 136.384 o
0 6 3 1544.070 1675.150 66.173 3.816 o
0 6 4 195.247 210.794 24.334 51.698 o
0 6 5 316.572 249.580 27.976 34.208 o
0 6 6 0.225 114.787 26.927 137.046 o
0 6 7 1913.710 2501.970 71.532 2.505 o
0 6 8 1.935 81.726 17.075 261.133 o
0 6 9 431.729 463.125 33.558 21.320 o
0 6 10 5.846 6.670 14.058 596.422 o
0 6 11 31.591 -0.147 18.181 281.312 o
0 6 12 33.902 27.625 24.811 163.164 o
0 6 13 220.718 255.952 27.697 42.877 o
0 6 14 5.869 17.793 15.392 458.338 o
0 6 15 306.748 333.248 39.323 27.622 o
0 6 16 2.997 34.378 21.540 257.784 o
0 6 17 4.246 8.848 21.723 293.802 o
0 6 18 0.970 -12.240 30.845 163.524 o
0 6 19 66.914 94.684 44.679 55.013 o
0 6 20 0.576 9.078 33.515 135.150 o
0 6 21 70.997 114.953 53.578 40.857 o
0 6 22 1.371 2.719 41.170 91.411 o
0 6 23 0.140 -23.851 39.586 99.935 o
0 6 24 0.478 -69.296 48.869 65.522 o
0 7 0 45.095 141.207 28.315 94.096 o
0 7 1 844.253 924.275 53.400 8.679 o
0 7 2 34.378 99.600 24.104 130.583 o
0 7 3 163.971 93.603 21.936 73.753 o
0 7 4 70.669 58.507 28.075 102.517 o
0 7 5 195.135 219.917 31.979 44.740 o
0 7 6 64.447 102.442 26.020 101.725 o
0 7 7 764.476 929.939 58.995 8.977 o
0 7 8 4.388 42.812 17.897 310.469 o
0 7 9 0.701 -0.821 14.165 762.113 o
0 7 10 24.135 -4.352 17.659 323.606 o
0 7 11 171.623 257.333 35.039 42.775 o
0 7 12 0.784 34.063 20.459 287.295 o
0 7 13 121.660 155.429 29.860 64.268 o
0 7 14 2.340 32.404 24.413 215.218 o
0 7 15 2.345 -11.345 19.253 404.645 o
0 7 16 4.617 15.319 20.384 311.708 o
0 7 17 57.291 65.857 25.727 118.064 o
0 7 18 0.001 7.401 51.636 58.200 o
0 7 19 16.604 49.236 40.645 80.401 o
0 7 20 9.835 72.825 44.764 67.030 o
0 7 21 2.929 59.814 45.275 68.566 o
0 7 22 1.889 76.652 48.450 59.424 o
0 8 0 0.423 55.245 24.441 196.344 o
0 8 1 4.286 -1.613 21.635 314.407 o
0 8 2 45.639 66.221 29.552 108.000 o
0 8 3 227.151 288.334 44.413 30.866 o
0 8 4 6.664 60.038 29.105 141.073 o
0 8 5 221.530 278.343 55.646 25.695 o
0 8 6 9.982 32.623 30.927 136.918 o
0 8 7 15.997 17.026 29.478 150.089 o
0 8 8 70.420 71.351 40.114 65.362 o
0 8 9 200.620 261.774 58.321 25.578 o
0 8 10 4.072 -4.571 29.629 172.832 o
0 8 11 34.862 58.770 38.714 79.675 o
0 8 12 0.100 39.504 22.603 240.195 o
0 8 13 3.720 16.558 25.616 211.357 o
0 8 14 1.199 24.945 21.951 270.635 o
0 8 15 34.084 78.614 28.078 118.236 o
0 8 16 6.960 4.070 21.287 303.143 o
0 8 17 28.059 77.933 43.215 66.500 o
0 8 18 2.264 5.595 32.210 146.002 o
0 8 19 0.002 66.878 46.516 65.192 o
0 8 20 0.339 33.903 40.958 87.025 o
0 9 0 31.585 78.384 27.233 124.487 o
0 9 1 131.576 161.052 40.074 48.056 o
0 9 2 8.258 37.761 29.912 143.911 o
0 9 3 55.460 65.497 30.914 97.597 o
0 9 4 0.134 3.818 25.288 239.643 o
0 9 5 10.301 -40.956 54.795 50.949 o
0 9 6 2.624 28.641 27.125 182.983 o
0 9 7 53.778 113.780 44.476 55.921 o
0 9 8 29.263 71.002 39.526 77.034 o
0 9 9 41.982 61.737 40.611 71.811 o
0 9 10 17.642 124.649 36.267 82.381 o
0 9 11 10.374 64.667 27.511 147.179 o
0 9 12 11.586 12.398 32.209 134.611 o
0 9 13 5.166 6.535 24.971 229.318 o
0 9 14 1.769 -7.824 22.224 309.440 o
0 9 15 4.118 -37.875 33.716 134.407 o
0 9 16 0.836 -1.507 25.799 233.358 o
0 9 17 0.843 49.693 44.332 72.918 o
0 10 0 24.919 60.295 31.946 110.360 o
0 10 1 39.560 83.447 40.623 69.732 o
0 10 2 10.618 61.591 33.773 108.897 o
0 10 3 8.521 47.176 31.328 129.323 o
0 10 4 15.186 24.210 28.849 152.505 o
0 10 5 13.121 -10.603 25.990 203.853 o
0 10 6 1.218 -11.025 26.083 227.450 o
0 10 7 20.223 2.426 32.789 127.600 o
0 10 8 1.368 8.729 32.234 145.142 o
0 10 9 0.014 42.523 25.159 199.685 o
0 10 10 19.143 43.598 30.400 128.547 o
0 10 11 9.441 117.077 50.267 51.839 o
0 10 12 0.624 65.926 41.451 79.982 o
0 10 13 2.746 29.093 43.428 77.996 o
1 -10 0 15.893 11.943 37.488 100.362 o
1 -10 1 59.658 92.257 37.958 70.372 o
1 -10 2 57.413 75.632 35.760 79.033 o
1 -10 3 0.157 24.960 25.567 210.785 o
1 -10 4 11.962 43.935 26.302 167.540 o
1 -10 5 84.981 113.747 31.573 75.749 o
1 -10 6 19.132 63.563 35.093 97.937 o
1 -10 7 4.395 28.318 29.443 156.844 o
1 -10 8 4.891 5.344 36.280 114.397 o
1 -9 0 26.114 29.609 28.186 143.876 o
1 -9 1 0.061 -18.047 21.075 352.475 o
1 -9 2 0.071 27.647 21.636 276.438 o
1 -9 3 154.165 142.502 32.691 55.216 o
1 -9 4 119.832 115.843 30.218 68.770 o
1 -9 5 162.400 157.879 33.135 52.136 o
1 -9 6 45.100 56.569 26.598 125.934 o
1 -9 7 14.748 20.798 28.275 160.032 o
1 -9 8 7.603 26.032 23.192 228.799 o
1 -9 9 57.491 43.805 24.289 133.653 o
1 -9 10 33.839 13.710 24.035 179.963 o
1 -9 11 83.783 71.825 27.802 93.943 o
1 -9 12 5.327 47.640 26.888 168.189 o
1 -9 13 41.529 65.614 46.090 58.724 o
1 -9 14 50.036 26.983 40.947 73.251 o
1 -8 0 9.768 13.336 19.803 307.787 o
1 -8 1 243.367 233.007 33.855 37.848 o
1 -8 2 57.626 80.100 26.006 111.990 o
1 -8 3 207.621 185.322 31.715 45.533 o
1 -8 4 11.562 48.097 24.722 180.738 o
1 -8 5 182.283 166.959 31.504 50.289 o
1 -8 6 247.661 217.502 35.457 37.149 o
1 -8 7 638.752 654.169 71.767 10.284 o
1 -8 8 51.015 104.113 76.629 23.611 o
1 -8 9 65.677 43.589 22.311 137.210 o
1 -8 10 21.038 -20.515 21.128 262.730 o
1 -8 11 21.105 7.389 23.649 212.762 o
1 -8 12 87.158 57.193 27.706 96.035 o
1 -8 13 459.576 393.503 46.704 18.826 o
1 -8 14 102.410 86.736 42.008 54.634 o
1 -8 15 62.943 61.587 26.869 110.789 o
1 -8 16 8.004 54.501 26.909 160.337 o
1 -8 17 77.723 14.791 35.474 83.148 o
1 -8 18 10.643 -13.708 39.660 95.058 o
1 -7 0 63.250 185.585 34.600 65.731 o
1 -7 1 419.398 371.299 37.104 22.610 o
1 -7 2 36.237 76.722 23.501 142.669 o
1 -7 3 31.137 27.446 18.328 237.562 o
1 -7 4 35.279 71.632 24.203 141.769 o
1 -7 5 1020.950 1071.280 60.222 6.782 o
1 -7 6 133.536 210.909 32.221 53.567 o
1 -7 7 182.007 221.102 32.432 45.860 o
1 -7 8 70.430 135.726 37.500 63.974 o
1 -7 9 525.026 613.200 49.623 14.568 o
1 -7 10 163.088 157.843 31.065 54.437 o
1 -7 11 416.948 423.938 44.164 20.152 o
1 -7 12 38.812 11.594 21.765 196.968 o
1 -7 13 80.888 95.924 27.076 92.133 o
1 -7 14 130.984 164.126 33.936 55.675 o
1 -7 15 443.856 390.645 44.990 19.667 o
1 -7 16 293.488 206.071 37.339 33.030 o
1 -7 17 488.812 467.526 51.930 16.277 o
1 -7 18 18.259 51.943 26.474 153.636 o
1 -7 19 6.748 7.456 39.806 94.463 o
1 -7 20 42.219 120.967 57.603 38.407 o
1 -7 21 100.548 145.069 64.250 28.727 o
1 -6 0 204.700 175.559 21.834 55.155 o
1 -6 1 763.690 835.016 40.603 10.534 o
1 -6 2 440.134 503.420 33.962 20.312 o
1 -6 3 1935.630 1870.680 60.153 2.969 o
1 -6 4 125.049 177.656 23.994 69.776 o
1 -6 5 702.817 567.169 36.422 13.394 o
1 -6 6 152.248 293.196 34.977 42.980 o
1 -6 7 1004.240 991.789 54.874 7.293 o
1 -6 8 703.459 612.569 57.132 11.221 o
1 -6 9 1510.620 1638.180 71.249 3.865 o
1 -6 10 5.312 56.984 26.608 164.845 o
1 -6 11 192.397 87.257 30.030 56.712 o
1 -6 12 7.685 20.036 20.237 292.574 o
1 -6 13 211.716 169.985 29.957 47.480 o
1 -6 14 243.408 223.728 34.865 37.617 o
1 -6 15 645.578 700.277 55.023 11.581 o
1 -6 16 17.860 72.037 26.575 142.882 o
1 -6 17 2.580 -30.468 28.081 194.236 o
1 -6 18 349.549 364.037 46.160 22.799 o
1 -6 19 286.804 319.545 44.108 27.032 o
1 -6 20 38.988 45.268 27.984 127.253 o
1 -6 21 219.094 291.060 55.836 25.449 o
1 -6 22 0.232 -9.608 42.610 86.228 o
1 -6 23 1.362 8.664 44.339 78.106 o
1 -5 0 746.738 864.019 41.861 10.487 o
1 -5 1 2687.810 2657.540 70.957 1.743 o
1 -5 2 87.647 203.172 25.831 73.621 o
1 -5 3 753.350 682.768 39.240 11.636 o
1 -5 4 600.308 743.037 36.893 13.590 o
1 -5 5 888.103 990.791 42.318 8.579 o
1 -5 6 765.342 838.117 35.401 10.785 o
1 -5 7 3158.970 3393.230 64.118 1.295 o
1 -5 8 50.153 124.209 27.857 97.173 o
1 -5 9 0.442 36.241 23.430 230.040 o
1 -5 10 2170.950 2286.800 68.235 2.355 o
1 -5 11 2187.540 2431.700 91.908 2.145 o
1 -5 12 563.078 477.763 44.918 15.777 o
1 -5 13 1117.890 1139.050 62.745 6.067 o
1 -5 14 2.602 32.067 27.641 174.736 o
1 -5 15 78.238 101.670 26.603 93.431 o
1 -5 16 712.155 857.370 59.363 9.710 o
1 -5 17 593.490 645.441 62.984 11.715 o
1 -5 18 241.451 186.090 33.816 40.213 o
1 -5 19 306.651 341.547 45.189 25.230 o
1 -5 20 98.297 151.922 35.115 60.983 o
1 -5 21 10.308 11.200 28.163 172.901 o
1 -5 22 221.315 207.264 47.404 31.909 o
1 -5 23 106.103 51.697 33.189 74.835 o
1 -5 24 34.575 9.195 42.476 75.116 o
1 -5 25 42.498 -30.377 53.684 49.148 o
1 -4 0 10.417 63.458 17.287 260.048 o
1 -4 1 221.377 158.338 19.184 55.843 o
1 -4 2 3337.050 3506.150 72.792 1.187 o
1 -4 3 2784.810 3322.290 69.615 1.485 o
1 -4 4 1335.440 1333.010 42.648 5.224 o
1 -4 5 3573.520 3459.290 68.482 1.114 o
1 -4 6 11.002 15.347 12.023 564.497 o
1 -4 7 1214.170 1102.310 40.814 6.256 o
1 -4 8 1936.290 2165.350 57.718 2.769 o
1 -4 9 1231.280 1301.320 45.561 5.642 o
1 -4 10 478.554 407.475 23.684 22.358 o
1 -4 11 750.515 1055.270 45.667 9.309 o
1 -4 12 1251.750 1421.360 53.750 5.182 o
1 -4 13 30.943 32.575 25.455 158.417 o
1 -4 14 1071.760 1064.990 58.150 6.605 o
1 -4 15 883.383 889.803 55.051 8.429 o
1 -4 16 499.390 466.883 43.819 17.459 o
1 -4 17 449.727 600.163 51.358 15.827 o
1 -4 18 444.851 495.430 48.787 17.509 o
1 -4 19 46.815 48.733 26.223 129.736 o
1 -4 20 834.353 910.070 69.754 7.917 o
1 -4 21 193.401 173.137 47.154 35.021 o
1 -4 22 25.448 73.076 36.397 88.245 o
1 -4 23 170.094 216.507 42.640 38.648 o
1 -4 24 80.897 91.829 42.840 56.230 o
1 -4 25 16.119 4.814 41.698 83.766 o
1 -4 26 166.620 398.552 95.295 12.915 o
1 -3 0 5813.300 6696.440 97.781 0.425 o
1 -3 1 3101.110 2654.640 48.937 1.531 o
1 -3 2 2112.100 2251.700 45.751 2.540 o
1 -3 3 2278.820 2061.160 53.468 2.426 o
1 -3 4 3101.060 3003.880 54.816 1.428 o
1 -3 5 451.102 332.305 29.400 23.899 o
1 -3 6 9945.990 10447.600 171.260 0.166 o
1 -3 7 4239.750 4800.150 75.551 0.757 o
1 -3 8 3591.000 3873.380 63.055 1.044 o
1 -3 9 4219.680 4320.580 68.606 0.814 o
1 -3 10 1239.630 1286.950 51.772 5.518 o
1 -3 11 45.903 50.919 17.749 187.302 o
1 -3 12 4671.570 5035.130 85.124 0.655 o
1 -3 13 1040.670 1147.540 47.333 6.882 o
1 -3 14 140.966 104.295 23.058 77.362 o
1 -3 15 498.690 588.687 44.653 15.997 o
1 -3 16 277.746 166.272 50.210 28.363 o
1 -3 17 0.827 12.256 28.687 179.658 o
1 -3 18 1568.650 1591.090 136.591 2.853 o
1 -3 19 207.417 182.060 30.224 47.024 o
1 -3 20 47.425 24.019 23.821 156.802 o
1 -3 21 11.110 17.878 38.327 97.216 o
1 -3 22 475.170 458.105 52.530 16.550 o
1 -3 23 24.067 -24.733 43.829 74.873 o
1 -3 24 300.418 310.432 46.477 25.672 o
1 -3 25 25.451 120.060 42.047 65.375 o
1 -3 26 14.370 6.386 38.894 95.678 o
1 -2 0 5325.060 7245.900 58.081 0.451 o
1 -2 1 9214.180 6586.740 55.710 0.245 o
1 -2 2 1317.810 1027.720 45.599 5.854 o
1 -2 3 26.376 28.182 9.664 407.246 o
1 -2 4 8291.540 8384.950 77.025 0.245 o
1 -2 5 941.507 1289.790 32.742 7.430 o
1 -2 6 43.455 51.148 10.974 250.967 o
1 -2 7 424.138 409.426 33.485 22.560 o
1 -2 8 1832.870 1748.210 39.015 3.384 o
1 -2 9 163.538 171.069 32.009 52.231 o
1 -2 10 8789.830 8957.800 128.373 0.215 o
1 -2 11 919.263 939.685 37.993 8.700 o
1 -2 12 429.174 496.513 35.184 20.543 o
1 -2 13 29.383 72.775 23.206 153.940 o
1 -2 14 3088.410 3224.950 102.988 1.293 o
1 -2 15 0.966 38.488 11.063 588.027 o
1 -2 16 2781.530 2849.120 95.462 1.555 o
1 -2 17 598.429 488.928 59.266 13.111 o
1 -2 18 286.323 261.877 35.284 32.642 o
1 -2 19 37.879 82.445 34.550 88.333 o
1 -2 20 794.513 777.479 59.386 9.335 o
1 -2 21 20.866 -38.690 26.630 182.644 o
1 -2 22 668.142 879.175 65.814 9.525 o
1 -2 23 1.148 26.277 39.802 92.954 o
1 -2 24 0.289 -10.975 28.039 198.807 o
1 -2 25 11.431 39.807 45.365 68.650 o
1 -2 26 240.037 314.928 52.813 25.485 o
1 -2 27 23.590 26.059 28.727 143.967 o
1 -1 0 25125.700 25676.300 147.259 0.029 o
1 -1 1 417.820 85.231 8.767 38.502 o
1 -1 2 33839.800 37000.500 432.145 0.015 o
1 -1 3 4318.700 4131.160 55.221 0.821 o
1 -1 4 5031.200 5830.630 47.196 0.560 o
1 -1 5 725.117 613.955 20.145 13.716 o
1 -1 6 4988.560 4470.800 130.833 0.624 o
1 -1 7 311.125 213.896 20.899 39.171 o
1 -1 8 18634.700 19254.700 468.225 0.049 o
1 -1 9 1160.690 1461.710 32.876 5.810 o
1 -1 10 1822.950 1913.290 57.478 3.134 o
1 -1 11 362.032 297.823 36.541 26.755 o
1 -1 12 3623.790 3218.630 82.903 1.121 o
1 -1 13 33.738 50.792 22.099 170.689 o
1 -1 14 3509.800 3583.770 101.569 1.071 o
1 -1 15 26.951 23.736 24.207 181.095 o
1 -1 16 10.470 -1.841 19.288 351.088 o
1 -1 17 0.142 51.328 40.323 86.554 o
1 -1 18 775.304 738.364 51.690 10.214 o
1 -1 19 41.874 87.032 26.063 119.840 o
1 -1 20 1443.440 1741.580 81.133 3.759 o
1 -1 21 0.042 30.037 24.153 226.942 o
1 -1 22 2.476 -27.608 40.210 95.880 o
1 -1 23 29.158 70.743 28.041 124.723 o
1 -1 24 304.557 328.628 43.048 26.411 o
1 -1 25 0.588 -32.837 23.877 272.874 o
1 -1 26 113.656 69.268 32.265 72.385 o
1 -1 27 6.590 51.839 31.473 128.049 o
1 0 0 13353.800 14792.500 59.929 0.094 o
1 0 1 28.377 32.343 5.396 447.038 o
1 0 2 5515.220 7583.860 74.767 0.418 o
1 0 3 428.462 56.310 13.144 37.973 o
1 0 4 10253.400 9028.870 174.935 0.174 o
1 0 5 817.861 1301.740 38.414 8.076 o
1 0 6 11150.000 10396.600 116.243 0.147 o
1 0 7 32.206 66.847 28.730 120.192 o
1 0 8 2.667 23.915 15.847 441.275 o
1 0 9 47.575 207.663 42.189 53.500 o
1 0 10 3454.570 3127.100 119.518 1.136 o
1 0 11 250.916 431.484 30.437 31.443 o
1 0 12 10892.400 11148.400 171.853 0.143 o
1 0 13 81.291 266.796 28.402 63.092 o
1 0 14 220.618 272.148 24.259 44.114 o
1 0 15 198.611 265.706 32.999 41.088 o
1 0 16 1899.890 2139.960 73.626 2.735 o
1 0 17 25.905 63.195 20.126 190.505 o
1 0 18 1787.500 1826.430 74.881 3.119 o
1 0 19 4.158 39.280 20.572 264.166 o
1 0 20 8.636 -45.633 28.137 183.719 o
1 0 21 92.516 106.559 27.534 84.168 o
1 0 22 557.836 533.467 48.027 14.910 o
1 0 23 5.698 7.409 26.610 202.249 o
1 0 24 284.438 313.715 40.931 28.633 o
1 0 25 39.247 53.218 23.371 152.690 o
1 0 26 0.299 11.914 27.480 196.005 o
1 0 27 3.220 -4.013 37.374 110.385 o
1 1 0 12402.500 18424.300 143.674 0.087 o
1 1 1 766.973 1426.470 53.179 7.478 o
1 1 2 26046.400 29726.300 113.063 0.025 o
1 1 3 558.861 121.903 45.389 20.137 o
1 1 4 28689.400 28397.600 292.752 0.023 o
1 1 5 1.372 15.415 35.846 116.135 o
1 1 6 1588.690 1861.340 92.822 3.221 o
1 1 7 446.907 543.624 27.415 20.523 o
1 1 8 3561.470 2963.980 137.952 1.090 o
1 1 9 98.408 56.784 16.154 129.252 o
1 1 10 7713.420 7018.360 187.442 0.282 o
1 1 11 631.661 598.406 32.821 14.666 o
1 1 12 87.110 65.101 16.029 136.051 o
1 1 13 691.609 838.896 41.923 11.252 o
1 1 14 2779.230 2767.650 74.467 1.638 o
1 1 15 7.162 26.658 15.767 396.991 o
1 1 16 1324.460 1498.400 59.756 4.709 o
1 1 17 478.700 502.575 37.491 18.597 o
1 1 18 0.708 -15.546 15.128 670.043 o
1 1 19 50.572 61.785 20.149 156.030 o
1 1 20 340.212 346.383 34.700 27.244 o
1 1 21 19.825 3.642 24.154 212.372 o
1 1 22 421.781 511.602 58.057 16.051 o
1 1 23 111.202 155.225 38.623 53.129 o
1 1 24 2.299 7.434 34.878 124.458 o
1 1 25 63.852 95.261 46.295 52.695 o
1 1 26 73.942 28.604 37.727 75.573 o
1 1 27 5.326 -18.595 37.163 110.449 o
1 2 0 5513.810 5343.670 39.853 0.533 o
1 2 1 299.970 452.850 11.908 32.453 o
1 2 2 10852.200 11155.100 62.337 0.147 o
1 2 3 481.264 464.216 17.787 21.961 o
1 2 4 1850.430 1837.840 33.000 3.298 o
1 2 5 2791.820 3966.930 66.834 1.327 o
1 2 6 9609.330 8363.160 153.065 0.199 o
1 2 7 1045.730 1402.490 44.326 6.270 o
1 2 8 6222.380 6350.910 64.377 0.412 o
1 2 9 416.045 303.962 16.133 29.015 o
1 2 10 174.600 96.934 11.220 83.579 o
1 2 11 377.191 363.527 16.638 29.470 o
1 2 12 1706.230 1681.980 52.465 3.605 o
1 2 13 288.460 319.241 24.325 35.148 o
1 2 14 3440.490 3506.340 121.196 1.074 o
1 2 15 336.625 334.200 29.794 29.385 o
1 2 16 0.036 1.761 16.512 561.370 o
1 2 17 513.218 509.124 42.397 16.880 o
1 2 18 450.919 501.389 43.458 18.293 o
1 2 19 26.855 53.486 20.946 189.448 o
1 2 20 483.899 473.728 73.382 12.747 o
1 2 21 75.154 65.231 22.683 119.080 o
1 2 22 2.039 -4.180 20.803 350.430 o
1 2 23 103.808 137.204 35.410 60.853 o
1 2 24 104.852 138.276 49.751 41.135 o
1 2 25 0.755 19.672 33.088 133.936 o
1 2 26 35.564 10.475 30.598 127.389 o
1 2 27 49.860 47.821 32.314 98.926 o
1 3 0 11769.000 12359.700 79.829 0.124 o
1 3 1 508.525 580.710 19.013 19.023 o
1 3 2 1659.900 1904.110 32.664 3.609 o
1 3 3 4744.590 5608.360 51.626 0.613 o
1 3 4 5242.090 5359.870 60.551 0.561 o
1 3 5 447.227 320.451 42.511 21.209 o
1 3 6 6278.710 5357.030 86.469 0.445 o
1 3 7 1942.640 1915.180 61.969 2.913 o
1 3 8 20.316 32.386 10.382 423.321 o
1 3 9 1762.680 1914.670 58.123 3.230 o
1 3 10 1091.490 1050.030 33.779 7.218 o
1 3 11 4.476 -0.185 10.531 1099.070 o
1 3 12 1436.140 1282.630 81.292 4.305 o
1 3 13 1105.680 1015.160 40.263 7.081 o
1 3 14 1.677 17.992 9.282 967.939 o
1 3 15 765.901 743.794 40.286 11.042 o
1 3 16 507.585 493.360 32.322 18.738 o
1 3 17 3.184 4.488 12.174 839.626 o
1 3 18 181.489 186.647 20.503 59.698 o
1 3 19 336.451 317.562 30.901 29.510 o
1 3 20 5.190 -7.844 14.385 643.085 o
1 3 21 58.009 80.382 28.753 100.858 o
1 3 22 73.287 144.657 48.418 45.467 o
1 3 23 7.808 15.089 31.275 144.118 o
1 3 24 45.392 80.606 47.855 53.651 o
1 3 25 83.342 127.290 52.204 40.823 o
1 3 26 0.729 29.112 37.703 102.403 o
1 4 0 459.093 457.596 22.408 22.334 o
1 4 1 3162.460 3551.810 47.287 1.279 o
1 4 2 2443.610 2360.080 38.529 2.144 o
1 4 3 787.513 924.489 25.968 10.468 o
1 4 4 3397.920 3507.840 51.688 1.187 o
1 4 5 695.412 717.079 25.229 13.092 o
1 4 6 170.543 163.238 16.608 68.769 o
1 4 7 3079.230 3456.520 63.403 1.317 o
1 4 8 1986.060 2007.610 47.981 2.863 o
1 4 9 94.515 129.434 13.620 112.061 o
1 4 10 819.219 834.640 30.997 10.413 o
1 4 11 568.073 561.200 36.851 15.872 o
1 4 12 40.842 10.458 10.512 353.617 o
1 4 13 393.717 336.892 33.280 25.343 o
1 4 14 311.750 278.529 35.455 30.406 o
1 4 15 87.561 47.791 12.991 156.849 o
1 4 16 291.963 251.996 23.731 37.982 o
1 4 17 458.204 360.640 32.663 22.376 o
1 4 18 10.239 13.586 29.891 154.428 o
1 4 19 162.034 141.739 55.229 32.082 o
1 4 20 7.128 23.007 27.968 171.272 o
1 4 21 19.035 39.814 34.330 107.423 o
1 4 22 49.026 73.424 38.950 72.949 o
1 4 23 53.044 102.299 44.641 56.645 o
1 4 24 0.813 83.692 44.895 67.456 o
1 4 25 25.303 88.037 43.361 65.667 o
1 5 0 1438.100 1393.830 37.922 4.824 o
1 5 1 81.329 62.982 14.739 148.077 o
1 5 2 1215.270 1184.850 34.830 6.163 o
1 5 3 1300.520 1555.980 39.690 4.992 o
1 5 4 10.440 52.243 14.384 333.642 o
1 5 5 2715.560 3083.350 55.330 1.622 o
1 5 6 318.384 354.134 26.509 30.967 o
1 5 7 65.274 65.836 11.865 180.595 o
1 5 8 604.366 563.188 31.121 15.712 o
1 5 9 1170.160 1156.410 56.390 5.973 o
1 5 10 8.600 29.433 16.148 366.754 o
1 5 11 721.953 761.913 49.384 10.817 o
1 5 12 68.590 65.282 15.991 155.736 o
1 5 13 0.059 -4.017 11.939 1096.090 o
1 5 14 93.345 105.054 14.947 118.026 o
1 5 15 380.839 366.922 48.242 21.100 o
1 5 16 0.068 7.037 13.120 793.398 o
1 5 17 229.890 193.155 21.707 49.759 o
1 5 18 31.201 39.044 34.170 102.110 o
1 5 19 0.541 12.861 28.432 182.681 o
1 5 20 8.992 43.972 35.761 104.404 o
1 5 21 69.569 38.428 37.570 75.854 o
1 5 22 4.615 -32.276 36.412 115.351 o
1 5 23 23.102 -11.327 33.082 124.431 o
1 6 0 691.991 755.449 32.575 12.415 o
1 6 1 768.239 1011.250 39.730 9.639 o
1 6 2 13.061 78.328 27.427 138.621 o
1 6 3 1426.630 1522.410 48.168 4.537 o
1 6 4 363.579 353.594 28.357 27.774 o
1 6 5 179.271 124.122 19.300 68.725 o
1 6 6 179.281 159.517 21.935 61.576 o
1 6 7 463.166 537.310 35.715 18.838 o
1 6 8 2.469 9.941 11.947 801.805 o
1 6 9 871.333 932.518 71.333 7.533 o
1 6 10 70.067 30.853 58.938 38.194 o
1 6 11 1.481 -2.274 14.945 670.195 o
1 6 12 19.259 -11.861 15.653 409.916 o
1 6 13 155.852 176.496 27.555 58.228 o
1 6 14 6.647 16.021 31.514 142.800 o
1 6 15 90.169 103.546 29.182 81.440 o
1 6 16 12.528 28.637 17.469 315.174 o
1 6 17 2.210 14.738 27.056 195.883 o
1 6 18 1.138 -19.331 30.698 164.883 o
1 6 19 140.559 216.546 59.192 28.610 o
1 6 20 0.323 47.944 39.372 90.907 o
1 6 21 7.941 0.277 33.802 130.602 o
1 7 0 43.354 168.967 24.097 101.734 o
1 7 1 975.498 1074.120 47.487 7.480 o
1 7 2 47.672 58.437 19.276 167.586 o
1 7 3 0.077 -15.399 22.143 319.226 o
1 7 4 15.865 12.425 17.268 343.845 o
1 7 5 377.677 477.190 42.666 20.889 o
1 7 6 6.737 28.049 20.208 281.624 o
1 7 7 480.008 526.582 46.048 16.843 o
1 7 8 1.485 33.947 19.149 314.548 o
1 7 9 5.796 17.462 17.278 389.983 o
1 7 10 7.386 9.969 40.669 89.963 o
1 7 11 276.474 312.427 54.243 23.555 o
1 7 12 7.283 6.757 26.139 206.479 o
1 7 13 105.487 101.797 37.723 59.978 o
1 7 14 0.134 14.160 25.374 225.492 o
1 7 15 1.660 0.191 34.416 130.925 o
1 7 16 2.992 -3.190 28.940 182.490 o
1 7 17 40.545 67.482 37.493 80.381 o
1 7 18 0.003 -9.613 28.147 197.786 o
1 7 19 35.250 4.520 27.891 149.581 o
1 8 0 1.975 19.785 15.309 491.792 o
1 8 1 4.103 -15.694 17.875 449.617 o
1 8 2 4.578 45.288 20.535 254.202 o
1 8 3 196.967 272.101 41.518 35.110 o
1 8 4 10.597 28.921 28.490 158.163 o
1 8 5 285.032 229.205 46.448 28.295 o
1 8 6 18.600 20.971 24.871 189.516 o
1 8 7 8.226 -30.055 27.170 196.740 o
1 8 8 2.932 -6.374 24.308 256.212 o
1 8 9 85.252 142.550 40.672 55.080 o
1 8 10 1.109 20.293 26.707 197.558 o
1 8 11 60.887 59.757 33.269 88.213 o
1 8 12 10.162 38.332 31.443 130.725 o
1 8 13 9.165 6.170 25.857 207.387 o
1 8 14 1.943 35.770 45.673 70.351 o
1 8 15 18.724 77.808 25.371 147.536 o
1 8 16 0.513 9.164 27.873 192.751 o
1 9 0 8.242 25.796 17.050 354.918 o
1 9 1 152.059 182.802 25.551 60.758 o
1 9 2 7.040 38.137 19.890 269.109 o
1 9 3 60.897 78.798 29.778 96.137 o
1 9 4 11.534 29.114 32.148 128.441 o
1 9 5 3.303 -3.856 60.968 41.893 o
1 9 6 2.649 -17.346 26.224 221.821 o
1 9 7 48.556 22.283 27.090 134.193 o
1 9 8 8.323 5.983 22.379 269.644 o
1 9 9 49.417 38.367 29.523 114.185 o
1 9 10 2.815 38.340 32.510 129.099 o
1 9 11 0.025 58.208 33.167 119.745 o
1 9 12 0.638 33.526 27.554 177.438 o
1 9 13 24.546 50.112 36.355 93.251 o
1 9 14 0.262 64.103 34.664 109.324 o
1 10 0 14.268 51.806 18.860 242.987 o
1 10 1 51.403 63.865 22.395 140.649 o
1 10 2 2.749 12.383 17.345 430.197 o
1 10 3 0.011 -10.714 17.654 502.649 o
1 10 4 1.951 5.452 17.952 440.968 o
1 10 5 19.392 25.773 25.491 177.809 o
1 10 6 1.951 -12.161 33.146 140.863 o
1 10 7 14.401 17.846 30.721 141.128 o
1 10 8 1.218 -9.744 30.219 169.994 o
1 10 9 1.496 -21.836 28.556 189.702 o
1 10 10 7.453 -77.189 35.725 117.902 o
1 11 0 1.104 0.188 31.765 154.008 o
1 11 1 1.349 29.922 23.510 234.312 o
1 11 2 9.981 31.958 34.784 112.286 o
1 11 3 12.640 15.812 34.868 115.030 o
1 11 4 0.035 -33.143 32.059 152.432 o
1 11 5 0.827 -66.789 36.996 114.004 o
2 -10 6 41.546 81.116 47.551 54.709 o
2 -10 7 27.204 38.977 42.572 72.896 o
2 -10 8 16.261 70.939 45.266 64.657 o
2 -9 0 52.242 82.800 29.119 101.775 o
2 -9 1 4.393 10.349 30.115 160.760 o
2 -9 2 0.166 27.998 31.417 144.063 o
2 -9 3 73.163 94.644 29.689 87.898 o
2 -9 4 77.550 112.298 31.622 78.101 o
2 -9 5 53.776 72.650 22.830 132.162 o
2 -9 6 6.687 32.972 20.120 274.786 o
2 -9 7 14.661 50.758 21.168 212.814 o
2 -9 8 14.517 74.870 27.052 141.431 o
2 -9 9 66.178 96.990 28.975 92.444 o
2 -9 10 64.093 83.663 33.969 80.736 o
2 -9 11 37.827 22.497 26.314 149.628 o
2 -9 12 2.723 32.903 30.364 148.022 o
2 -9 13 11.147 49.988 27.707 152.530 o
2 -9 14 32.118 56.784 27.630 130.217 o
2 -9 15 97.575 46.258 43.400 56.233 o
2 -8 0 7.588 60.834 24.094 183.527 o
2 -8 1 161.067 169.121 31.914 52.872 o
2 -8 2 99.228 104.423 30.403 75.567 o
2 -8 3 118.249 118.202 28.603 71.873 o
2 -8 4 32.627 65.852 20.894 171.382 o
2 -8 5 23.606 34.433 18.383 247.970 o
2 -8 6 66.558 50.366 21.397 138.073 o
2 -8 7 306.148 321.005 33.958 30.075 o
2 -8 8 132.197 131.987 29.715 64.761 o
2 -8 9 53.782 64.950 24.326 127.739 o
2 -8 10 4.558 48.010 22.935 214.513 o
2 -8 11 35.148 43.510 19.118 201.280 o
2 -8 12 57.949 48.848 20.185 154.740 o
2 -8 13 115.720 119.128 24.525 80.507 o
2 -8 14 33.645 54.852 22.571 164.325 o
2 -8 15 20.047 22.397 18.896 269.685 o
2 -8 16 2.861 39.979 35.770 108.622 o
2 -8 17 99.707 115.549 50.453 41.853 o
2 -7 0 226.070 320.488 36.182 34.371 o
2 -7 1 167.737 184.074 29.363 53.438 o
2 -7 2 5.963 73.629 27.061 150.579 o
2 -7 3 56.542 121.641 31.108 84.959 o
2 -7 4 81.774 116.284 22.531 100.198 o
2 -7 5 499.237 476.072 36.560 18.553 o
2 -7 6 125.683 135.117 23.173 77.119 o
2 -7 7 50.803 61.807 19.061 162.641 o
2 -7 8 25.933 61.365 19.032 202.698 o
2 -7 9 213.990 194.534 30.131 45.493 o
2 -7 10 131.531 108.089 25.399 75.490 o
2 -7 11 404.982 333.487 33.178 24.944 o
2 -7 12 141.595 137.398 23.870 70.931 o
2 -7 13 45.499 35.184 17.156 207.930 o
2 -7 14 5.832 38.304 17.939 313.172 o
2 -7 15 64.784 63.462 25.313 115.674 o
2 -7 16 62.787 61.589 18.822 149.878 o
2 -7 17 138.058 180.252 40.717 45.406 o
2 -7 18 3.791 7.113 30.604 158.496 o
2 -7 19 0.014 -58.982 39.722 99.305 o
2 -6 0 54.083 71.887 17.503 161.508 o
2 -6 1 280.654 257.617 25.106 38.143 o
2 -6 2 247.330 282.555 27.414 38.942 o
2 -6 3 1436.510 1541.650 48.932 4.471 o
2 -6 4 284.645 344.504 26.346 33.693 o
2 -6 5 272.148 233.609 22.083 41.638 o
2 -6 6 11.000 49.933 15.449 315.230 o
2 -6 7 407.225 376.255 34.030 23.733 o
2 -6 8 342.851 277.668 36.358 28.310 o
2 -6 9 827.191 765.020 50.856 9.641 o
2 -6 10 24.731 58.980 23.105 169.058 o
2 -6 11 0.097 3.888 17.122 509.441 o
2 -6 12 141.865 150.369 23.265 70.004 o
2 -6 13 469.396 431.475 33.503 20.608 o
2 -6 14 313.700 241.330 26.812 35.244 o
2 -6 15 372.817 342.638 30.996 26.835 o
2 -6 16 31.295 33.360 16.719 250.228 o
2 -6 17 10.990 4.029 20.697 300.900 o
2 -6 18 76.570 42.922 24.619 117.665 o
2 -6 19 255.383 230.790 44.150 31.040 o
2 -6 20 134.749 118.894 35.263 57.056 o
2 -5 0 319.209 294.170 22.464 34.378 o
2 -5 1 1427.280 1373.930 42.602 4.836 o
2 -5 2 33.730 102.421 21.204 145.841 o
2 -5 3 7.781 20.817 11.791 583.422 o
2 -5 4 420.871 436.158 24.237 24.003 o
2 -5 5 743.041 867.677 34.624 10.912 o
2 -5 6 585.340 516.674 28.272 16.942 o
2 -5 7 1557.530 1537.570 52.761 4.105 o
2 -5 8 33.919 51.795 20.580 182.566 o
2 -5 9 25.670 61.597 20.739 186.576 o
2 -5 10 324.893 316.607 27.250 31.519 o
2 -5 11 532.857 547.158 30.556 17.596 o
2 -5 12 174.940 138.521 18.516 68.861 o
2 -5 13 505.377 565.262 32.202 17.856 o
2 -5 14 1.439 37.997 15.706 399.324 o
2 -5 15 16.859 12.908 15.534 384.296 o
2 -5 16 253.425 217.397 25.763 42.588 o
2 -5 17 249.563 249.104 34.859 36.052 o
2 -5 18 119.615 87.992 27.424 78.320 o
2 -5 19 142.334 177.685 33.840 52.863 o
2 -5 20 31.057 58.903 26.092 139.816 o
2 -5 21 18.951 12.514 23.781 210.144 o
2 -5 22 132.445 122.752 57.831 32.348 o
2 -4 0 48.697 175.598 21.379 105.462 o
2 -4 1 160.659 126.547 15.134 78.924 o
2 -4 2 710.328 715.740 24.466 12.910 o
2 -4 3 913.357 951.399 27.885 9.034 o
2 -4 4 943.782 912.169 27.854 8.942 o
2 -4 5 3321.340 3324.780 65.991 1.238 o
2 -4 6 10.190 104.014 15.856 222.586 o
2 -4 7 7.695 22.594 14.332 459.904 o
2 -4 8 1307.900 1367.030 40.894 5.289 o
2 -4 9 1728.130 1739.280 46.622 3.548 o
2 -4 10 798.994 708.262 34.698 11.190 o
2 -4 11 1080.770 1167.570 40.471 6.784 o
2 -4 12 105.303 153.153 23.101 81.047 o
2 -4 13 26.864 37.310 15.916 269.297 o
2 -4 14 592.339 646.341 49.355 13.240 o
2 -4 15 709.734 796.971 41.135 11.339 o
2 -4 16 239.633 225.770 24.116 44.702 o
2 -4 17 229.866 257.231 35.078 37.210 o
2 -4 18 23.361 15.896 43.125 75.186 o
2 -4 19 5.628 13.215 23.580 243.730 o
2 -4 20 250.206 210.972 52.438 27.473 o
2 -4 21 193.593 227.397 39.287 38.754 o
2 -4 22 20.879 29.239 27.350 156.234 o
2 -4 23 1.720 107.505 59.251 40.046 o
2 -4 24 70.784 64.825 59.417 36.475 o
2 -3 0 2340.100 2424.270 46.095 2.194 o
2 -3 1 3045.050 3141.640 48.370 1.430 o
2 -3 2 1063.720 807.169 29.054 8.359 o
2 -3 3 2108.180 2049.540 35.698 2.712 o
2 -3 4 475.000 554.047 21.546 20.207 o
2 -3 5 157.137 158.705 12.030 77.959 o
2 -3 6 1801.290 1715.020 45.437 3.436 o
2 -3 7 982.066 1253.690 33.084 7.280 o
2 -3 8 776.575 671.453 32.106 11.855 o
2 -3 9 1277.730 1442.200 53.166 5.065 o
2 -3 10 401.599 509.845 56.644 16.753 o
2 -3 11 63.868 90.971 16.682 143.484 o
2 -3 12 1592.060 1599.690 51.747 3.956 o
2 -3 13 687.906 730.926 43.474 11.858 o
2 -3 14 120.391 108.527 25.502 78.740 o
2 -3 15 236.977 312.359 33.228 35.444 o
2 -3 16 358.971 361.949 37.465 25.125 o
2 -3 17 141.355 106.320 24.895 73.728 o
2 -3 18 607.565 574.418 48.936 13.606 o
2 -3 19 251.697 281.705 37.700 33.113 o
2 -3 20 100.201 57.386 24.206 100.837 o
2 -3 21 58.906 98.999 43.573 57.930 o
2 -3 22 126.426 108.426 31.468 65.850 o
2 -3 23 19.776 32.322 43.132 73.966 o
2 -3 24 159.103 133.117 57.534 30.837 o
2 -3 25 68.043 171.308 63.955 29.803 o
2 -2 0 1738.600 1603.510 46.849 3.666 o
2 -2 1 5573.360 5264.140 68.887 0.525 o
2 -2 2 1147.240 1249.640 31.162 6.400 o
2 -2 3 5.062 31.224 18.536 319.132 o
2 -2 4 4258.720 4044.760 65.093 0.839 o
2 -2 5 1557.890 1693.680 30.336 4.106 o
2 -2 6 1969.600 1840.300 35.657 3.076 o
2 -2 7 2451.160 2469.290 49.851 2.059 o
2 -2 8 1882.220 2003.180 47.833 3.026 o
2 -2 9 132.738 155.459 17.073 81.092 o
2 -2 10 3427.890 3534.380 60.882 1.161 o
2 -2 11 1140.080 1126.650 43.698 6.501 o
2 -2 12 324.136 300.606 23.133 33.533 o
2 -2 13 256.352 332.552 46.174 27.294 o
2 -2 14 799.972 777.890 38.687 10.557 o
2 -2 15 46.824 22.598 17.265 217.577 o
2 -2 16 804.555 795.739 49.994 9.761 o
2 -2 17 217.851 242.405 36.740 37.795 o
2 -2 18 9.511 -26.526 21.746 290.009 o
2 -2 19 2.647 -17.820 37.960 107.356 o
2 -2 20 252.453 219.131 34.403 37.325 o
2 -2 21 41.993 26.609 23.978 160.556 o
2 -2 22 301.287 302.563 41.034 28.001 o
2 -2 23 40.748 92.495 28.932 106.047 o
2 -2 24 1.149 -5.804 35.742 121.891 o
2 -1 0 4052.110 3852.120 52.952 0.920 o
2 -1 1 18.537 24.272 7.587 564.951 o
2 -1 2 10213.000 9741.030 89.182 0.172 o
2 -1 3 2780.150 2947.370 42.093 1.646 o
2 -1 4 557.706 447.428 18.336 19.607 o
2 -1 5 464.794 404.720 21.602 23.264 o
2 -1 6 2867.490 2681.610 120.690 1.474 o
2 -1 7 390.781 409.442 20.529 26.705 o
2 -1 8 2791.990 2565.740 75.090 1.692 o
2 -1 9 571.975 715.753 25.806 15.273 o
2 -1 10 681.372 573.934 25.175 14.570 o
2 -1 11 195.643 298.157 39.008 35.847 o
2 -1 12 1787.230 1792.180 46.667 3.381 o
2 -1 13 260.803 217.133 23.403 43.131 o
2 -1 14 2216.700 2347.520 74.768 2.245 o
2 -1 15 194.964 238.668 32.149 43.548 o
2 -1 16 34.953 19.586 16.589 262.014 o
2 -1 17 24.245 79.258 25.244 142.141 o
2 -1 18 598.376 610.867 56.428 12.610 o
2 -1 19 68.040 -10.806 20.061 174.318 o
2 -1 20 390.713 427.154 46.778 20.263 o
2 -1 21 34.238 58.716 28.008 125.608 o
2 -1 22 11.843 -42.132 34.700 121.646 o
2 -1 23 1.075 17.579 24.926 226.687 o
2 0 0 14593.600 15656.600 125.652 0.081 o
2 0 1 841.061 960.494 24.743 9.759 o
2 0 2 1079.860 935.071 23.414 7.889 o
2 0 3 1439.730 1399.300 43.256 4.747 o
2 0 4 5738.920 6060.490 90.666 0.461 o
2 0 5 53.334 51.555 12.080 215.755 o
2 0 6 6659.080 6035.360 186.088 0.363 o
2 0 7 287.837 403.548 16.324 34.344 o
2 0 8 696.972 558.957 19.022 14.789 o
2 0 9 21.546 63.817 27.502 137.014 o
2 0 10 4188.390 4088.030 108.237 0.817 o
2 0 11 78.094 127.129 21.356 102.665 o
2 0 12 2414.920 2242.330 86.623 2.054 o
2 0 13 15.935 33.137 16.768 304.682 o
2 0 14 0.765 -36.887 17.912 480.324 o
2 0 15 36.190 85.943 22.410 144.696 o
2 0 16 1050.390 1083.310 54.726 6.779 o
2 0 17 20.722 16.236 27.793 160.072 o
2 0 18 506.190 547.759 42.575 16.579 o
2 0 19 0.225 45.445 21.362 252.668 o
2 0 20 7.815 8.104 26.756 195.843 o
2 0 21 23.151 44.301 22.176 191.394 o
2 0 22 187.226 246.914 34.733 41.925 o
2 0 23 9.556 48.853 31.496 126.788 o
2 1 0 1166.600 1301.900 19.895 6.318 o
2 1 1 162.153 311.242 24.593 48.941 o
2 1 2 5846.740 5740.540 61.804 0.472 o
2 1 3 205.044 360.442 14.389 45.463 o
2 1 4 11623.700 10596.900 274.880 0.131 o
2 1 5 227.210 232.656 29.939 41.956 o
2 1 6 128.058 79.628 6.631 118.023 o
2 1 7 33.389 48.628 9.125 311.996 o
2 1 8 2862.400 2227.440 204.682 1.250 o
2 1 9 184.261 179.872 19.321 60.918 o
2 1 10 2158.070 2040.550 93.789 2.352 o
2 1 11 87.439 174.990 22.276 85.243 o
2 1 12 265.946 230.281 24.515 41.238 o
2 1 13 84.893 142.494 27.034 81.682 o
2 1 14 1558.950 1590.360 71.619 3.806 o
2 1 15 103.296 102.331 25.423 86.088 o
2 1 16 895.872 1003.870 61.498 7.645 o
2 1 17 21.415 50.075 24.644 166.213 o
2 1 18 0.428 -17.644 19.152 423.733 o
2 1 19 23.888 62.674 26.600 141.416 o
2 1 20 356.574 373.028 36.920 25.151 o
2 1 21 8.174 17.282 22.623 248.141 o
2 1 22 124.115 92.004 32.206 66.980 o
2 1 23 1.364 7.289 37.086 111.074 o
2 2 0 3885.290 3262.060 81.278 1.030 o
2 2 1 384.454 430.620 14.709 27.440 o
2 2 2 8104.480 7506.180 314.813 0.232 o
2 2 3 530.969 585.283 43.390 15.556 o
2 2 4 46.624 14.178 11.011 306.952 o
2 2 5 185.227 335.955 26.483 43.147 o
2 2 6 5563.390 5504.220 177.304 0.471 o
2 2 7 33.956 29.937 11.425 323.573 o
2 2 8 3176.080 2930.030 58.931 1.403 o
2 2 9 194.359 140.792 17.766 64.483 o
2 2 10 11.230 1.593 11.363 730.471 o
2 2 11 556.984 553.807 36.429 16.238 o
2 2 12 2094.830 1718.220 144.130 2.170 o
2 2 13 0.630 21.140 15.602 485.257 o
2 2 14 723.349 566.778 59.771 11.011 o
2 2 15 128.033 98.446 26.956 75.049 o
2 2 16 4.597 1.110 19.592 372.840 o
2 2 17 125.290 127.139 28.130 69.662 o
2 2 18 330.434 294.172 47.369 24.432 o
2 2 19 1.134 8.563 22.163 295.924 o
2 2 20 116.982 205.181 47.468 39.450 o
2 2 21 47.493 47.056 22.114 155.455 o
2 2 22 10.108 22.285 21.067 263.174 o
2 2 23 29.949 35.287 28.967 132.464 o
2 3 0 8915.780 8991.320 114.280 0.212 o
2 3 1 1.622 66.084 9.772 455.014 o
2 3 2 303.752 314.476 13.975 37.362 o
2 3 3 943.341 867.862 70.140 7.361 o
2 3 4 2223.530 1887.790 129.076 2.112 o
2 3 5 256.796 250.222 23.936 41.456 o
2 3 6 4052.120 3777.560 104.089 0.888 o
2 3 7 299.062 317.252 17.956 36.550 o
2 3 8 3.804 -3.375 8.466 1589.720 o
2 3 9 321.245 261.908 18.956 36.716 o
2 3 10 966.819 1019.240 35.506 8.110 o
2 3 11 13.436 3.457 11.734 638.187 o
2 3 12 589.310 613.345 33.542 15.268 o
2 3 13 31.972 58.815 15.955 223.526 o
2 3 14 3.263 -1.587 20.130 365.887 o
2 3 15 387.615 231.732 44.797 24.298 o
2 3 16 512.331 583.137 67.404 12.553 o
2 3 17 5.012 11.387 22.726 264.505 o
2 3 18 119.577 115.628 27.805 73.376 o
2 3 19 90.640 67.056 25.032 100.636 o
2 3 20 0.342 -1.863 26.127 228.754 o
2 3 21 21.838 11.223 19.629 269.386 o
2 4 0 9.794 22.616 12.693 502.856 o
2 4 1 1206.230 1426.500 32.784 5.691 o
2 4 2 2377.930 2132.950 50.144 2.291 o
2 4 3 184.259 157.904 21.614 61.022 o
2 4 4 1544.970 1337.840 45.404 4.494 o
2 4 5 1502.940 1410.220 68.599 4.192 o
2 4 6 4.853 -1.200 10.105 1148.440 o
2 4 7 843.796 779.090 55.950 9.128 o
2 4 8 1654.340 1661.650 63.748 3.623 o
2 4 9 1.606 22.625 25.229 215.172 o
2 4 10 593.814 592.792 31.468 15.590 o
2 4 11 360.112 350.487 26.105 28.674 o
2 4 12 0.046 11.390 11.682 884.794 o
2 4 13 326.281 292.339 26.357 32.565 o
2 4 14 222.095 237.998 25.033 45.525 o
2 4 15 32.777 45.534 20.541 189.982 o
2 4 16 86.443 72.153 22.253 110.929 o
2 4 17 123.338 95.830 24.820 81.290 o
2 4 18 3.451 28.578 20.005 297.618 o
2 4 19 83.055 106.426 26.441 90.784 o
2 5 0 1257.860 1162.150 35.974 5.998 o
2 5 1 118.543 149.860 28.295 68.206 o
2 5 2 2031.950 1847.630 42.432 2.941 o
2 5 3 247.980 310.033 20.476 40.881 o
2 5 4 16.853 14.525 8.090 659.218 o
2 5 5 662.932 596.342 21.723 14.933 o
2 5 6 277.334 217.024 18.049 43.880 o
2 5 7 20.464 -7.527 5.850 869.853 o
2 5 8 302.598 193.330 47.222 27.948 o
2 5 9 582.536 613.832 33.971 15.355 o
2 5 10 11.704 4.021 12.664 607.705 o
2 5 11 269.465 218.683 30.015 38.429 o
2 5 12 169.482 183.564 26.445 56.311 o
2 5 13 1.323 -28.843 20.488 365.183 o
2 5 14 72.377 53.845 19.469 140.598 o
2 5 15 49.355 58.478 34.531 88.590 o
2 5 16 4.591 -6.507 16.863 494.565 o
2 5 17 140.556 117.613 28.587 66.292 o
2 5 18 25.022 -3.180 28.749 155.872 o
2 6 0 141.392 137.665 27.185 65.901 o
2 6 1 1170.380 1349.550 75.942 5.100 o
2 6 2 49.579 146.517 47.432 49.436 o
2 6 3 895.406 902.693 45.740 8.727 o
2 6 4 514.061 424.862 23.514 20.808 o
2 6 5 38.954 14.863 15.077 278.686 o
2 6 6 125.363 103.862 16.113 96.653 o
2 6 7 421.828 382.589 43.993 20.671 o
2 6 8 2.846 10.419 8.696 1180.740 o
2 6 9 269.168 126.680 27.086 45.182 o
2 6 10 94.633 45.058 27.574 95.814 o
2 6 11 18.711 36.315 16.857 285.347 o
2 6 12 15.427 11.905 27.220 175.391 o
2 6 13 135.749 125.182 25.549 71.531 o
2 6 14 0.010 -6.753 29.626 178.525 o
2 6 15 70.285 53.200 21.232 134.208 o
2 6 16 6.650 24.302 29.802 153.310 o
2 6 17 3.968 3.687 24.502 244.280 o
2 7 0 87.290 94.778 20.891 108.018 o
2 7 1 210.582 195.464 24.036 50.758 o
2 7 2 63.519 45.608 22.812 135.574 o
2 7 3 3.220 -0.666 11.780 970.018 o
2 7 4 53.967 45.272 18.279 175.001 o
2 7 5 303.621 327.706 27.613 32.456 o
2 7 6 25.684 20.999 13.334 357.927 o
2 7 7 242.891 292.142 37.108 33.678 o
2 7 8 12.286 102.500 24.196 149.512 o
2 7 9 1.046 22.575 59.727 42.874 o
2 7 10 1.670 11.148 36.339 114.229 o
2 7 11 148.934 183.509 47.983 37.271 o
2 7 12 1.436 7.208 38.490 103.285 o
2 7 13 49.920 111.749 41.917 61.619 o
2 7 14 4.741 53.965 34.567 110.169 o
2 7 15 0.708 62.269 34.963 108.015 o
2 8 0 87.633 74.607 24.974 100.431 o
2 8 1 0.080 -7.468 18.983 434.189 o
2 8 2 0.022 9.204 20.100 358.803 o
2 8 3 165.440 206.214 26.169 55.309 o
2 8 4 0.112 23.288 17.792 391.722 o
2 8 5 108.331 102.522 23.508 88.612 o
2 8 6 17.568 27.384 16.608 313.451 o
2 8 7 0.040 -28.718 20.304 379.863 o
2 8 8 0.059 16.678 19.515 355.860 o
2 8 9 56.081 29.189 20.610 166.495 o
2 9 0 7.687 17.792 21.493 270.190 o
2 9 1 100.007 104.247 26.874 83.477 o
2 9 2 2.191 25.584 21.803 269.271 o
2 9 3 57.294 83.241 30.897 92.882 o
2 9 4 1.344 10.535 43.054 82.455 o
2 9 5 0.457 27.847 24.022 230.687 o
2 9 6 5.768 4.896 22.845 270.113 o
2 10 0 11.063 53.675 48.936 58.748 o
2 10 1 38.927 31.683 46.895 60.357 o
2 10 2 0.047 1.111 44.850 77.737 o
2 10 3 0.839 32.625 46.944 67.375 o
2 10 4 0.099 -62.631 49.335 64.364 o
2 10 5 3.027 0.077 42.182 87.008 o
3 -9 0 9.082 13.381 22.788 248.137 o
3 -9 1 1.013 14.059 24.964 230.379 o
3 -9 2 1.041 17.009 24.284 238.354 o
3 -9 3 28.116 29.595 27.874 144.247 o
3 -9 4 39.516 61.272 28.948 116.038 o
3 -9 5 24.032 1.840 34.606 113.891 o
3 -9 6 2.621 -4.634 42.651 85.273 o
3 -9 7 7.057 -49.806 49.882 61.737 o
3 -9 8 16.201 -0.720 46.617 68.474 o
3 -9 9 46.901 73.185 55.047 43.003 o
3 -9 10 52.899 -0.118 41.343 74.889 o
3 -9 11 26.134 0.056 35.660 107.426 o
3 -8 0 22.930 18.355 23.247 203.324 o
3 -8 1 81.542 55.105 26.342 104.071 o
3 -8 2 84.094 79.474 28.632 89.666 o
3 -8 3 96.440 98.829 29.113 80.290 o
3 -8 4 36.605 27.751 23.805 168.141 o
3 -8 5 3.546 28.633 24.153 220.529 o
3 -8 6 27.102 56.315 45.023 64.544 o
3 -8 7 67.749 40.771 25.898 118.708 o
3 -8 8 33.819 8.089 30.683 129.107 o
3 -8 9 14.839 26.762 21.645 233.716 o
3 -8 10 0.837 25.866 21.057 289.504 o
3 -8 11 23.469 32.988 35.571 100.905 o
3 -8 12 48.694 -19.384 32.369 111.945 o
3 -8 13 65.115 34.613 33.537 90.560 o
3 -7 0 28.950 53.597 26.586 141.017 o
3 -7 1 54.962 46.814 22.717 143.657 o
3 -7 2 11.354 33.588 21.737 232.500 o
3 -7 3 46.081 44.362 22.801 153.921 o
3 -7 4 124.798 110.643 27.879 72.467 o
3 -7 5 342.047 300.047 45.732 24.433 o
3 -7 6 191.490 163.365 38.910 42.308 o
3 -7 7 61.744 57.596 24.731 122.474 o
3 -7 8 0.453 8.442 16.646 505.250 o
3 -7 9 67.707 50.686 28.457 104.678 o
3 -7 10 73.232 55.836 22.348 125.434 o
3 -7 11 163.688 160.305 29.230 56.286 o
3 -7 12 75.455 100.581 21.342 112.049 o
3 -7 13 8.004 33.446 20.558 261.455 o
3 -7 14 5.300 36.000 38.105 96.825 o
3 -7 15 49.449 85.149 48.093 52.369 o
3 -6 0 7.551 28.015 19.295 297.844 o
3 -6 1 126.089 137.498 21.968 78.706 o
3 -6 2 146.643 143.301 22.685 70.507 o
3 -6 3 223.150 215.462 25.671 46.385 o
3 -6 4 73.054 81.895 19.839 125.982 o
3 -6 5 59.225 44.209 17.580 172.897 o
3 -6 6 9.086 57.522 18.983 247.734 o
3 -6 7 216.613 205.467 22.418 50.319 o
3 -6 8 203.179 139.827 25.565 55.125 o
3 -6 9 248.625 235.321 30.654 39.220 o
3 -6 10 33.736 31.364 18.325 226.053 o
3 -6 11 2.525 -8.258 16.620 532.851 o
3 -6 12 25.892 47.203 17.545 235.367 o
3 -6 13 144.051 172.447 29.163 58.870 o
3 -6 14 103.314 78.415 22.763 98.221 o
3 -6 15 87.643 99.963 36.508 66.099 o
3 -6 16 10.291 54.170 31.228 125.974 o
3 -6 17 0.458 -7.747 35.830 121.755 o
3 -6 18 43.758 17.802 38.263 84.912 o
3 -5 0 342.766 288.613 26.850 31.400 o
3 -5 1 560.199 557.470 33.877 16.432 o
3 -5 2 156.782 206.781 23.553 59.617 o
3 -5 3 183.958 175.437 25.438 55.499 o
3 -5 4 24.665 56.411 17.248 230.280 o
3 -5 5 522.983 476.184 34.137 18.290 o
3 -5 6 513.651 405.668 34.591 19.458 o
3 -5 7 804.226 784.084 35.461 10.648 o
3 -5 8 93.102 149.487 19.207 94.830 o
3 -5 9 0.581 12.062 15.219 562.781 o
3 -5 10 146.797 126.318 22.813 72.648 o
3 -5 11 325.364 290.609 36.682 28.782 o
3 -5 12 194.001 158.111 26.084 54.616 o
3 -5 13 315.646 359.916 35.711 27.811 o
3 -5 14 22.872 83.887 22.774 158.140 o
3 -5 15 6.178 29.694 17.667 339.121 o
3 -5 16 66.568 100.156 36.657 70.753 o
3 -5 17 133.414 148.140 40.064 48.656 o
3 -5 18 99.388 77.499 33.597 72.188 o
3 -5 19 75.132 80.808 46.115 52.426 o
3 -5 20 0.066 35.226 41.164 86.080 o
3 -5 21 15.113 33.688 36.883 98.583 o
3 -4 0 48.703 137.765 19.905 122.934 o
3 -4 1 0.109 17.811 11.979 755.545 o
3 -4 2 293.327 241.516 21.141 39.463 o
3 -4 3 878.747 964.451 38.125 8.928 o
3 -4 4 312.131 234.514 20.687 38.172 o
3 -4 5 319.489 359.400 27.483 30.414 o
3 -4 6 3.392 19.807 14.141 532.187 o
3 -4 7 1.474 5.155 11.186 1018.960 o
3 -4 8 349.329 323.986 27.147 29.776 o
3 -4 9 728.814 732.218 38.728 11.668 o
3 -4 10 311.870 203.545 37.376 31.873 o
3 -4 11 223.730 250.310 32.122 39.964 o
3 -4 12 22.044 34.788 15.964 290.892 o
3 -4 13 50.591 53.873 17.350 180.253 o
3 -4 14 242.863 252.043 29.971 39.382 o
3 -4 15 321.814 393.197 36.811 26.309 o
3 -4 16 111.102 57.700 29.834 80.499 o
3 -4 17 67.607 27.927 26.011 122.835 o
3 -4 18 4.260 -20.422 27.492 199.380 o
3 -4 19 27.652 25.678 28.865 139.321 o
3 -4 20 129.039 183.794 54.434 33.386 o
3 -4 21 98.589 120.194 50.997 41.138 o
3 -3 0 855.198 880.757 30.409 9.823 o
3 -3 1 1874.320 2015.330 41.107 3.064 o
3 -3 2 673.008 486.234 34.367 14.798 o
3 -3 3 1153.260 1307.810 37.227 6.124 o
3 -3 4 22.780 42.464 12.221 335.690 o
3 -3 5 19.759 26.477 11.611 421.751 o
3 -3 6 852.136 844.649 34.477 9.870 o
3 -3 7 1427.630 1453.000 46.165 4.664 o
3 -3 8 614.833 456.105 36.103 16.083 o
3 -3 9 637.632 693.553 33.653 13.653 o
3 -3 10 38.057 49.726 22.381 163.416 o
3 -3 11 60.561 64.388 15.964 166.746 o
3 -3 12 429.732 382.723 29.836 23.648 o
3 -3 13 323.364 394.543 31.416 27.922 o
3 -3 14 92.952 85.105 19.349 112.311 o
3 -3 15 126.548 169.681 25.267 68.512 o
3 -3 16 65.863 87.016 22.388 119.148 o
3 -3 17 83.625 56.884 28.186 96.165 o
3 -3 18 137.815 104.968 34.787 58.463 o
3 -3 19 96.118 111.283 35.090 65.749 o
3 -3 20 19.360 3.117 37.000 103.216 o
3 -3 21 1.794 20.820 34.530 122.520 o
3 -2 0 651.827 494.736 27.949 15.730 o
3 -2 1 1485.590 1594.700 32.632 4.421 o
3 -2 2 508.788 497.511 41.817 17.206 o
3 -2 3 224.864 152.930 18.730 56.044 o
3 -2 4 1373.020 1174.940 34.578 5.497 o
3 -2 5 1110.060 1260.060 35.556 6.486 o
3 -2 6 139.001 83.966 12.609 101.013 o
3 -2 7 132.405 233.857 41.735 42.127 o
3 -2 8 160.839 147.796 41.597 43.767 o
3 -2 9 138.786 136.114 20.166 77.703 o
3 -2 10 1376.930 1202.300 40.975 5.338 o
3 -2 11 952.851 1009.220 33.740 8.304 o
3 -2 12 199.443 158.426 16.143 62.688 o
3 -2 13 61.443 132.061 23.730 103.100 o
3 -2 14 210.601 176.300 20.484 55.153 o
3 -2 15 102.876 98.094 32.786 70.326 o
3 -2 16 351.139 343.814 31.334 27.820 o
3 -2 17 213.740 339.403 46.453 29.127 o
3 -2 18 42.086 31.940 25.240 148.018 o
3 -2 19 21.736 15.062 65.347 34.979 o
3 -2 20 33.388 78.053 34.123 92.507 o
3 -2 21 30.169 -17.226 49.556 58.646 o
3 -1 0 372.752 368.160 19.489 29.035 o
3 -1 1 39.205 27.677 5.280 380.186 o
3 -1 2 3522.230 3404.830 48.125 1.162 o
3 -1 3 2194.870 2412.720 52.809 2.327 o
3 -1 4 467.062 340.249 17.965 25.099 o
3 -1 5 670.205 890.384 32.398 11.797 o
3 -1 6 275.298 295.905 26.251 36.403 o
3 -1 7 44.456 33.215 15.133 232.799 o
3 -1 8 1659.710 1683.810 69.977 3.522 o
3 -1 9 606.781 674.807 40.403 13.720 o
3 -1 10 35.736 17.489 18.418 237.383 o
3 -1 11 25.664 72.383 34.942 93.778 o
3 -1 12 591.664 564.480 50.747 13.721 o
3 -1 13 148.837 120.139 22.158 73.965 o
3 -1 14 466.651 437.344 30.049 21.214 o
3 -1 15 70.131 142.076 20.489 105.443 o
3 -1 16 0.214 4.457 14.439 694.146 o
3 -1 17 0.696 59.322 29.924 140.798 o
3 -1 18 317.353 307.673 49.357 23.959 o
3 -1 19 104.101 114.504 56.151 35.751 o
3 -1 20 116.416 76.445 55.877 36.462 o
3 -1 21 28.259 27.005 43.444 71.609 o
3 0 0 3611.210 3085.770 120.665 1.088 o
3 0 1 497.508 574.106 22.477 19.109 o
3 0 2 228.494 116.731 9.457 65.218 o
3 0 3 115.636 234.486 24.591 64.258 o
3 0 4 2798.760 2883.190 55.141 1.633 o
3 0 5 539.018 475.383 25.852 18.959 o
3 0 6 2281.860 2137.090 148.091 1.845 o
3 0 7 682.623 835.576 34.534 11.868 o
3 0 8 58.513 23.694 14.068 220.115 o
3 0 9 30.252 115.839 14.012 185.233 o
3 0 10 328.849 344.213 21.726 32.060 o
3 0 11 263.822 181.550 29.172 41.295 o
3 0 12 1415.570 1176.270 82.805 4.468 o
3 0 13 290.088 339.683 22.692 34.800 o
3 0 14 19.398 27.245 16.280 312.194 o
3 0 15 0.106 62.105 19.355 262.063 o
3 0 16 205.507 212.875 24.691 49.705 o
3 0 17 18.306 -2.062 17.062 371.760 o
3 0 18 130.101 220.598 66.830 24.616 o
3 0 19 12.222 89.585 50.750 52.419 o
3 0 20 0.697 33.194 43.972 76.191 o
3 0 21 3.338 5.851 41.163 90.121 o
3 1 0 494.505 531.865 26.177 19.395 o
3 1 1 103.952 181.777 20.481 81.283 o
3 1 2 1004.650 919.791 91.855 5.960 o
3 1 3 105.994 70.395 14.410 122.985 o
3 1 4 3110.010 3124.960 146.278 1.197 o
3 1 5 199.731 317.566 35.610 36.878 o
3 1 6 5.796 0.118 9.443 1199.670 o
3 1 7 4.410 32.129 7.809 757.079 o
3 1 8 1094.000 700.295 73.545 6.839 o
3 1 9 106.339 44.532 6.124 156.191 o
3 1 10 1093.750 805.096 66.604 6.859 o
3 1 11 0.176 18.449 8.621 1111.410 o
3 1 12 103.658 84.954 12.449 124.231 o
3 1 13 101.420 72.798 10.058 137.389 o
3 1 14 730.260 670.696 74.363 9.201 o
3 1 15 104.963 85.260 15.927 114.227 o
3 1 16 288.122 334.297 40.524 28.071 o
3 1 17 1.708 35.356 23.936 220.365 o
3 1 18 1.471 -50.931 41.052 92.414 o
3 1 19 14.418 12.887 36.670 104.924 o
3 1 20 155.852 185.368 64.365 25.631 o
3 1 21 6.986 73.740 53.056 50.044 o
3 2 0 3133.940 3085.420 47.034 1.401 o
3 2 1 631.676 620.223 24.145 15.156 o
3 2 2 3169.420 3025.000 103.161 1.300 o
3 2 3 39.479 66.638 10.118 246.843 o
3 2 4 83.413 45.549 12.443 166.017 o
3 2 5 98.934 123.235 28.439 77.100 o
3 2 6 2169.910 2557.200 103.464 2.042 o
3 2 7 169.966 115.020 17.130 75.319 o
3 2 8 1293.730 1134.550 49.347 5.655 o
3 2 9 85.684 95.802 32.035 77.128 o
3 2 10 17.585 2.301 3.515 1074.520 o
3 2 11 3.405 38.178 8.895 653.826 o
3 2 12 158.886 163.734 16.160 72.423 o
3 2 13 85.744 48.822 18.723 133.860 o
3 2 14 345.518 261.978 35.100 29.065 o
3 2 15 16.190 41.330 22.962 197.815 o
3 2 16 38.060 11.274 17.110 257.771 o
3 2 17 51.147 -5.995 33.881 103.222 o
3 2 18 114.472 92.355 46.553 46.202 o
3 2 19 2.054 -39.906 37.348 111.183 o
3 2 20 34.846 24.144 33.340 108.036 o
3 2 21 2.336 7.532 33.801 132.154 o
3 2 22 5.652 -116.502 47.529 68.160 o
3 3 0 2532.080 2353.620 39.351 2.064 o
3 3 1 7.127 74.199 10.046 373.129 o
3 3 2 0.043 17.905 10.611 888.385 o
3 3 3 176.382 196.999 21.108 59.117 o
3 3 4 997.128 1042.050 58.692 7.046 o
3 3 5 59.378 21.616 17.632 190.271 o
3 3 6 926.160 877.762 56.511 8.094 o
3 3 7 240.822 242.479 25.810 42.566 o
3 3 8 266.221 290.512 26.914 37.113 o
3 3 9 329.953 238.650 48.564 25.123 o
3 3 10 867.412 864.879 115.292 5.520 o
3 3 11 78.573 28.661 6.566 214.908 o
3 3 12 402.740 287.065 25.468 28.232 o
3 3 13 51.149 45.937 12.502 224.265 o
3 3 14 27.620 7.483 21.945 221.831 o
3 3 15 39.848 -12.208 36.025 98.887 o
3 3 16 167.548 177.729 56.327 30.059 o
3 3 17 5.128 0.392 33.045 138.716 o
3 3 18 47.933 18.332 36.859 88.379 o
3 3 19 11.254 -55.753 39.142 97.209 o
3 3 20 1.305 -24.061 32.830 144.153 o
3 3 21 9.685 -0.049 31.829 144.851 o
3 4 0 9.204 6.478 6.910 1151.140 o
3 4 1 310.829 248.585 32.759 32.591 o
3 4 2 1855.380 1704.240 99.920 2.860 o
3 4 3 261.892 136.067 40.986 35.693 o
3 4 4 1065.050 983.940 45.438 7.271 o
3 4 5 11.605 38.181 15.455 341.520 o
3 4 6 53.825 55.693 16.667 178.540 o
3 4 7 109.118 104.368 20.342 95.342 o
3 4 8 325.278 358.412 36.090 27.226 o
3 4 9 7.300 25.267 17.163 358.849 o
3 4 10 141.998 132.968 24.975 69.716 o
3 4 11 50.853 41.955 17.767 186.372 o
3 4 12 10.146 5.523 14.941 497.589 o
3 4 13 32.676 9.500 34.183 109.004 o
3 4 14 93.809 67.582 40.313 60.669 o
3 4 15 22.958 -36.506 38.281 96.174 o
3 4 16 21.306 6.030 32.174 129.619 o
3 4 17 83.572 58.109 40.886 62.402 o
3 4 18 28.137 41.722 35.840 95.618 o
3 4 19 26.890 38.715 35.479 98.387 o
3 5 0 488.762 476.004 23.341 20.821 o
3 5 1 2.611 11.417 8.238 1235.580 o
3 5 2 301.517 225.430 17.987 40.713 o
3 5 3 337.431 245.640 34.593 30.205 o
3 5 4 153.160 140.485 22.230 69.768 o
3 5 5 456.124 340.542 31.860 23.004 o
3 5 6 520.362 459.335 42.681 17.244 o
3 5 7 60.612 16.920 41.962 69.181 o
3 5 8 176.271 184.315 31.241 50.172 o
3 5 9 227.624 216.918 32.256 41.144 o
3 5 10 49.023 65.829 30.969 100.387 o
3 5 11 79.925 113.326 45.605 50.397 o
3 5 12 105.186 179.358 50.935 38.192 o
3 5 13 1.978 44.104 37.555 99.051 o
3 5 14 53.028 53.957 41.542 67.749 o
3 5 15 27.185 49.857 39.630 80.446 o
3 5 16 0.038 21.651 33.690 129.281 o
3 5 17 4.573 4.125 29.748 168.143 o
3 5 18 10.605 5.449 27.919 179.252 o
3 6 0 567.273 490.259 29.225 17.603 o
3 6 1 28.878 65.214 14.583 237.452 o
3 6 2 13.563 6.369 19.213 320.872 o
3 6 3 150.277 102.239 23.936 73.337 o
3 6 4 187.847 97.276 79.657 19.085 o
3 6 5 0.052 38.608 35.391 112.698 o
3 6 6 39.148 75.355 41.685 68.112 o
3 6 7 96.566 132.616 46.211 46.387 o
3 6 8 0.056 3.051 31.825 153.024 o
3 6 9 89.167 35.728 36.827 72.821 o
3 6 10 22.777 25.592 34.017 110.921 o
3 6 11 14.110 14.303 33.557 122.642 o
3 6 12 1.510 -29.378 35.272 124.883 o
3 6 13 68.481 64.614 41.342 63.797 o
3 6 14 16.025 -2.462 30.874 146.834 o
3 6 15 33.161 -53.533 38.318 91.841 o
3 6 16 25.439 -38.337 36.461 103.690 o
3 6 17 3.220 -74.957 40.776 92.971 o
3 7 0 111.435 151.021 31.374 64.581 o
3 7 1 246.766 160.364 24.289 47.885 o
3 7 2 67.009 111.172 32.496 79.382 o
3 7 3 0.055 49.502 25.864 185.183 o
3 7 4 36.049 93.163 44.181 61.231 o
3 7 5 120.897 162.496 49.883 38.611 o
3 7 6 30.677 82.927 44.652 62.152 o
3 7 7 104.777 92.367 43.345 51.815 o
3 7 8 62.788 43.047 36.497 80.273 o
3 7 9 6.376 10.812 34.182 125.154 o
3 7 10 8.464 3.308 30.392 157.419 o
3 7 11 41.990 59.956 41.922 68.619 o
3 7 12 1.408 5.067 31.110 157.376 o
3 7 13 0.274 -35.545 34.866 128.699 o
3 7 14 0.086 13.329 34.028 129.966 o
3 7 15 1.428 -0.046 30.415 167.570 o
3 8 0 1.534 13.606 26.660 203.555 o
3 8 1 1.877 34.536 36.323 107.638 o
3 8 2 38.352 69.362 31.422 102.985 o
3 8 6 1.797 21.318 39.804 93.673 o
3 8 7 10.326 94.765 50.507 52.762 o
3 8 8 5.309 47.241 41.975 79.583 o
3 8 9 52.639 123.532 52.283 43.686 o
3 8 10 9.033 104.449 50.818 51.750 o
3 8 11 37.054 167.680 58.056 36.655 o
3 8 12 1.636 0.050 38.828 103.139 o
3 8 13 0.946 10.498 37.162 109.974 o
3 9 0 5.068 33.796 30.960 140.501 o
3 9 1 91.755 130.056 39.445 57.009 o
3 9 2 12.400 7.800 42.854 80.258 o
3 9 3 25.087 47.789 44.703 66.608 o
3 9 4 2.155 -63.444 51.211 59.405 o
3 10 0 1.479 3.336 37.834 107.795 o
3 10 1 9.076 40.503 45.893 67.655 o
3 10 2 6.584 76.065 56.748 44.237 o
3 10 3 4.195 -60.839 49.992 61.965 o
4 -8 0 0.969 15.198 28.688 177.318 o
4 -8 1 14.226 5.505 27.028 184.058 o
4 -8 2 40.069 91.977 35.870 81.611 o
4 -8 3 43.031 106.210 39.457 69.098 o
4 -8 4 9.139 28.242 29.530 150.948 o
4 -8 5 7.294 18.019 30.712 147.935 o
4 -8 6 31.569 35.699 33.978 103.646 o
4 -7 0 34.508 110.210 35.675 81.048 o
4 -7 1 14.571 57.021 30.023 129.290 o
4 -7 2 5.085 11.940 26.038 207.157 o
4 -7 3 0.760 20.005 25.717 212.410 o
4 -7 4 23.802 44.143 29.297 131.736 o
4 -7 5 84.007 99.301 36.922 66.138 o
4 -7 6 48.419 35.002 29.599 115.505 o
4 -7 7 6.577 34.336 29.528 150.457 o
4 -7 8 2.253 37.035 52.822 53.331 o
4 -7 9 30.410 54.018 53.457 47.855 o
4 -7 10 50.065 62.121 52.661 46.514 o
4 -6 0 0.885 52.139 27.138 168.623 o
4 -6 1 8.993 61.129 27.547 150.162 o
4 -6 2 34.539 75.113 29.620 111.572 o
4 -6 3 176.999 152.688 37.641 45.685 o
4 -6 4 180.568 187.660 39.709 41.481 o
4 -6 5 74.110 76.476 32.341 83.210 o
4 -6 6 0.294 50.840 30.073 143.996 o
4 -6 7 75.626 114.659 36.984 66.167 o
4 -6 8 85.410 61.289 47.169 50.690 o
4 -6 9 73.920 56.314 51.011 46.648 o
4 -6 10 27.189 26.143 39.081 86.233 o
4 -6 11 8.980 -4.005 40.864 90.393 o
4 -6 12 5.547 7.169 41.458 87.861 o
4 -6 13 71.894 57.983 89.358 17.944 o
4 -6 14 66.675 52.270 42.815 62.221 o
4 -6 15 50.414 68.898 44.754 59.646 o
4 -5 0 170.287 141.211 26.733 59.845 o
4 -5 1 132.496 142.107 23.194 73.916 o
4 -5 2 15.684 48.764 18.473 248.846 o
4 -5 3 1.741 -8.417 23.083 287.467 o
4 -5 4 22.800 25.553 24.010 188.334 o
4 -5 5 107.898 92.483 30.901 73.701 o
4 -5 6 208.010 216.677 40.168 37.334 o
4 -5 7 269.836 298.802 46.772 27.191 o
4 -5 8 45.414 76.923 48.048 53.567 o
4 -5 9 0.793 -19.541 39.384 100.662 o
4 -5 10 40.666 19.471 37.208 89.589 o
4 -5 11 100.756 46.523 47.084 49.807 o
4 -5 12 74.531 61.154 50.873 46.516 o
4 -5 13 44.404 31.423 30.893 112.623 o
4 -5 14 0.344 44.250 31.218 138.067 o
4 -5 15 7.921 42.443 33.382 118.438 o
4 -5 16 25.449 3.563 31.585 131.417 o
4 -5 17 53.808 46.277 41.593 68.312 o
4 -4 0 86.177 206.333 26.855 71.770 o
4 -4 1 0.020 -6.854 16.481 576.591 o
4 -4 2 9.388 12.083 13.824 520.859 o
4 -4 3 68.660 99.094 18.790 126.738 o
4 -4 4 145.214 142.009 21.277 73.129 o
4 -4 5 350.930 407.747 46.909 21.778 o
4 -4 6 72.045 131.063 31.686 76.759 o
4 -4 7 3.060 -1.262 22.306 301.819 o
4 -4 8 180.689 194.335 61.282 26.172 o
4 -4 9 325.784 387.648 78.832 14.471 o
4 -4 10 157.478 95.837 53.234 35.360 o
4 -4 11 99.948 79.420 52.170 41.500 o
4 -4 12 9.381 6.496 42.876 81.275 o
4 -4 13 0.187 22.443 29.621 163.506 o
4 -4 14 61.051 105.818 36.316 72.251 o
4 -4 15 133.578 175.124 41.395 45.474 o
4 -4 16 41.227 54.891 32.495 100.628 o
4 -4 17 16.488 -1.752 29.877 155.151 o
4 -3 0 691.974 618.248 45.138 12.420 o
4 -3 1 1166.980 1200.730 83.191 5.164 o
4 -3 2 304.770 275.438 19.363 37.447 o
4 -3 3 207.363 228.331 26.912 46.690 o
4 -3 4 0.140 20.337 8.050 1136.080 o
4 -3 5 12.164 20.709 14.989 406.593 o
4 -3 6 78.749 83.712 20.841 117.233 o
4 -3 7 236.650 256.972 35.593 36.345 o
4 -3 8 258.569 275.046 36.389 33.556 o
4 -3 9 156.403 117.522 52.666 35.176 o
4 -3 10 17.106 -57.739 51.377 56.747 o
4 -3 11 93.776 5.772 43.401 60.300 o
4 -3 12 174.349 161.728 41.226 42.018 o
4 -3 13 168.730 211.704 40.154 41.077 o
4 -3 14 58.866 56.149 49.503 50.700 o
4 -3 15 15.379 38.601 33.492 114.319 o
4 -3 16 12.174 -23.555 76.994 26.054 o
4 -3 17 28.768 -50.431 52.725 52.481 o
4 -2 0 727.106 620.525 42.736 12.128 o
4 -2 1 516.368 586.953 52.670 14.524 o
4 -2 2 133.716 166.582 25.821 66.298 o
4 -2 3 188.214 153.474 16.655 65.465 o
4 -2 4 295.381 240.450 17.754 40.657 o
4 -2 5 390.717 508.861 26.246 23.383 o
4 -2 6 303.122 288.341 23.083 35.684 o
4 -2 7 296.373 342.008 27.316 32.572 o
4 -2 8 10.245 25.931 28.570 159.573 o
4 -2 9 118.936 109.215 23.717 82.776 o
4 -2 10 363.192 337.824 51.602 21.144 o
4 -2 11 251.580 372.477 44.434 27.316 o
4 -2 12 42.035 25.435 47.241 59.611 o
4 -2 13 17.085 27.270 66.815 33.452 o
4 -2 14 15.473 17.298 48.065 63.120 o
4 -2 15 23.450 43.852 44.261 68.530 o
4 -2 16 102.171 55.041 49.978 45.130 o
4 -2 17 53.641 25.287 48.268 55.704 o
4 -2 18 1.176 42.416 49.408 60.249 o
4 -1 0 2.546 10.091 5.396 1890.150 o
4 -1 1 125.171 140.015 19.181 83.390 o
4 -1 2 1317.870 1150.710 32.705 5.805 o
4 -1 3 736.921 884.304 33.266 10.957 o
4 -1 4 24.363 7.832 8.473 571.452 o
4 -1 5 37.238 81.222 12.793 213.369 o
4 -1 6 101.021 65.563 15.137 126.743 o
4 -1 7 70.951 78.661 12.171 161.678 o
4 -1 8 221.979 143.867 18.456 57.653 o
4 -1 9 301.868 371.218 26.012 31.654 o
4 -1 10 154.301 184.612 41.531 42.597 o
4 -1 11 9.282 56.409 22.135 206.318 o
4 -1 12 193.767 189.880 31.350 47.300 o
4 -1 13 168.331 157.406 29.597 55.300 o
4 -1 14 202.280 237.490 68.407 21.446 o
4 -1 15 116.759 194.221 60.812 29.191 o
4 -1 16 27.775 -19.996 41.483 81.634 o
4 -1 17 6.883 27.612 44.078 74.961 o
4 -1 18 7.871 -72.353 52.455 55.819 o
4 -1 19 6.236 13.864 39.290 95.710 o
4 0 0 411.882 256.410 28.160 27.845 o
4 0 1 841.840 1115.550 34.075 8.751 o
4 0 2 623.967 515.971 32.504 15.657 o
4 0 3 25.949 78.034 23.916 149.905 o
4 0 4 858.254 840.977 43.712 9.401 o
4 0 5 314.560 320.032 49.348 23.835 o
4 0 6 425.016 327.873 35.484 23.628 o
4 0 7 245.693 325.061 26.945 37.384 o
4 0 8 94.891 70.945 20.786 110.992 o
4 0 9 32.935 71.610 16.395 203.355 o
4 0 10 182.633 123.871 17.618 69.757 o
4 0 11 119.873 88.920 19.502 95.843 o
4 0 12 168.214 145.594 52.756 33.426 o
4 0 13 16.081 72.577 45.825 63.206 o
4 0 14 15.366 -29.983 41.720 84.708 o
4 0 15 25.464 32.301 41.841 76.421 o
4 0 16 121.683 124.011 56.918 33.666 o
4 0 17 70.670 141.745 60.751 32.920 o
4 0 18 105.219 161.705 63.183 28.875 o
4 0 19 11.246 139.291 61.412 35.897 o
4 1 0 191.323 81.292 15.348 76.010 o
4 1 1 160.191 203.473 43.980 38.945 o
4 1 2 269.677 246.557 36.689 33.619 o
4 1 3 251.055 244.721 40.247 33.029 o
4 1 4 979.083 919.276 80.181 6.573 o
4 1 5 71.598 150.909 36.249 64.545 o
4 1 6 39.587 31.723 13.446 268.802 o
4 1 7 5.505 18.190 11.136 687.850 o
4 1 8 272.738 167.702 43.011 32.560 o
4 1 9 113.904 66.836 36.528 63.953 o
4 1 10 295.666 198.414 53.711 25.198 o
4 1 11 213.546 235.338 59.312 25.111 o
4 1 12 60.233 28.812 36.030 84.954 o
4 1 13 3.410 -1.318 32.512 144.941 o
4 1 14 119.271 155.055 56.864 32.931 o
4 1 15 21.342 79.213 47.913 57.212 o
4 1 16 27.937 9.125 38.529 91.231 o
4 1 17 2.154 15.033 37.894 104.153 o
4 1 18 0.960 -35.552 42.806 85.205 o
4 1 19 2.013 39.922 47.313 65.420 o
4 2 0 715.666 751.120 42.548 11.450 o
4 2 1 122.089 81.815 12.164 112.601 o
4 2 2 752.735 708.307 50.858 10.665 o
4 2 3 577.510 612.374 81.367 10.048 o
4 2 4 127.869 64.531 19.733 97.353 o
4 2 5 124.263 134.592 33.629 60.000 o
4 2 6 759.983 854.589 66.825 8.810 o
4 2 7 44.936 21.511 26.099 144.403 o
4 2 8 81.108 69.100 30.456 87.501 o
4 2 9 0.086 -83.301 49.178 64.776 o
4 2 10 10.314 -50.211 48.227 65.319 o
4 2 11 46.575 24.311 43.631 67.244 o
4 2 12 297.480 389.668 81.867 14.211 o
4 2 13 78.061 39.667 45.759 55.598 o
4 2 14 74.487 1.155 41.420 69.176 o
4 2 15 0.014 12.502 42.107 86.224 o
4 2 16 15.049 -50.630 46.245 69.781 o
4 2 17 20.398 -58.471 47.136 66.196 o
4 2 18 56.825 -62.863 47.643 58.420 o
4 2 19 18.832 -33.441 42.134 82.066 o
4 2 20 25.803 -95.429 51.075 56.102 o
4 3 0 330.690 318.610 30.535 29.947 o
4 3 1 1.069 36.714 12.245 543.353 o
4 3 2 0.082 5.739 10.165 1261.730 o
4 3 3 21.449 28.384 15.725 311.347 o
4 3 4 505.376 559.439 37.959 17.139 o
4 3 5 201.372 158.129 23.701 55.629 o
4 3 6 423.098 404.164 33.004 22.803 o
4 3 7 1.410 40.899 28.456 162.262 o
4 3 8 11.859 -25.019 43.092 80.728 o
4 3 9 1.245 1.507 37.128 112.525 o
4 3 10 85.294 26.868 40.316 66.500 o
4 3 11 9.959 -42.415 46.398 70.477 o
4 3 12 65.682 12.203 37.794 80.228 o
4 3 13 10.651 -33.111 45.427 73.253 o
4 3 14 0.956 -23.817 39.848 98.269 o
4 3 15 32.680 -10.723 39.571 87.043 o
4 3 16 37.616 19.809 41.720 75.196 o
4 3 17 0.189 -34.401 42.040 88.596 o
4 3 18 0.092 -52.295 44.498 79.112 o
4 3 19 7.630 12.963 35.877 112.942 o
4 3 20 9.853 25.669 43.511 76.246 o
4 4 0 51.604 66.904 12.648 199.437 o
4 4 1 51.991 55.607 16.723 181.111 o
4 4 2 272.596 283.909 33.764 33.566 o
4 4 3 15.159 26.095 16.060 340.796 o
4 4 4 258.814 250.878 27.463 39.332 o
4 4 5 30.776 82.428 20.209 167.645 o
4 4 6 38.346 104.921 47.471 53.602 o
4 4 7 352.773 394.400 77.088 14.396 o
4 4 8 305.489 352.362 74.410 16.072 o
4 4 9 0.102 21.371 39.441 96.010 o
4 4 10 9.811 59.225 45.428 66.753 o
4 4 11 9.919 21.187 36.380 106.617 o
4 4 12 8.768 7.403 41.096 88.159 o
4 4 13 31.901 7.280 38.233 91.260 o
4 4 14 92.570 100.940 53.826 39.386 o
4 4 15 13.124 32.091 38.714 91.766 o
4 4 16 17.630 18.551 44.506 72.104 o
4 4 17 0.434 25.102 38.723 98.447 o
4 4 18 0.805 -7.510 32.751 145.322 o
4 5 0 379.783 384.032 26.516 26.626 o
4 5 1 7.514 26.884 11.481 557.087 o
4 5 2 78.396 52.480 17.433 144.972 o
4 5 3 19.278 -21.524 36.846 104.816 o
4 5 4 0.267 -82.253 46.052 73.823 o
4 5 5 31.909 1.271 34.524 109.940 o
4 5 6 139.235 195.490 56.015 31.295 o
4 5 7 25.180 150.871 53.257 43.746 o
4 5 8 43.478 127.123 55.214 40.761 o
4 5 9 36.517 75.528 45.841 59.242 o
4 5 10 4.926 42.597 42.568 78.367 o
4 5 11 3.080 47.489 43.376 75.580 o
4 5 12 12.584 74.742 47.899 59.006 o
4 5 13 0.502 -29.892 39.548 99.963 o
4 5 14 1.746 39.767 44.219 74.279 o
4 5 15 8.153 18.620 40.316 89.560 o
4 5 16 18.167 112.917 54.968 43.922 o
4 5 17 28.990 47.042 44.474 66.446 o
4 6 0 44.932 74.153 22.556 141.019 o
4 6 1 110.077 124.498 29.979 70.610 o
4 6 2 30.321 53.688 25.429 147.609 o
4 6 3 30.198 42.235 36.234 93.032 o
4 6 4 55.040 15.573 35.615 90.800 o
4 6 5 1.834 33.202 37.613 101.355 o
4 6 6 48.234 24.193 35.667 91.597 o
4 6 7 6.760 -21.217 39.206 98.863 o
4 6 8 66.159 41.363 39.904 70.214 o
4 6 9 118.123 92.496 49.814 41.939 o
4 6 10 22.848 7.919 38.112 95.299 o
4 6 11 5.929 2.466 43.132 81.997 o
4 6 12 3.649 -36.932 42.666 84.876 o
4 6 13 0.126 -35.699 43.612 82.349 o
4 6 14 0.750 -63.240 46.059 73.682 o
4 6 15 1.183 10.712 40.882 91.230 o
4 7 0 4.657 35.844 37.946 97.871 o
4 7 1 76.921 88.157 25.069 102.161 o
4 7 2 61.505 91.560 31.168 88.578 o
4 7 3 2.046 46.005 40.236 87.157 o
4 7 4 3.213 32.412 36.756 105.212 o
4 7 5 14.176 -9.518 33.425 128.656 o
4 7 6 0.088 -2.018 35.340 125.409 o
4 7 7 12.930 -14.633 36.868 107.986 o
4 7 8 16.906 13.731 42.481 79.365 o
4 7 9 0.094 -42.974 41.848 89.445 o
4 7 10 0.693 12.455 41.734 87.506 o
4 7 11 35.376 23.397 43.946 68.993 o
4 8 0 46.797 142.822 51.228 44.674 o
4 8 1 0.323 67.183 47.261 63.262 o
4 9 0 1.423 121.265 57.812 41.305 o
5 -7 0 30.662 72.186 48.894 54.459 o
5 -7 1 11.846 -5.524 25.453 214.084 o
5 -7 2 0.069 -4.057 52.106 57.706 o
5 -7 3 5.086 5.854 26.928 200.416 o
5 -7 4 14.425 -19.490 27.147 186.655 o
5 -7 5 31.089 9.146 41.100 80.548 o
5 -7 6 41.186 29.733 32.844 105.492 o
5 -6 0 3.828 29.613 31.761 137.273 o
5 -6 1 12.082 -31.525 25.650 210.703 o
5 -6 2 27.773 53.058 30.331 119.290 o
5 -6 3 10.473 38.939 28.391 153.543 o
5 -6 4 0.483 9.412 25.581 226.732 o
5 -6 5 0.174 -28.554 29.646 178.040 o
5 -6 6 2.965 -15.938 26.139 222.518 o
5 -6 7 23.810 3.951 41.299 82.913 o
5 -6 8 60.960 61.973 53.248 44.593 o
5 -6 9 81.919 95.558 61.685 32.786 o
5 -5 0 69.086 112.327 32.242 79.196 o
5 -5 1 142.845 205.829 41.100 43.101 o
5 -5 2 120.255 163.463 38.290 51.633 o
5 -5 3 30.093 49.433 28.933 126.932 o
5 -5 4 0.136 -17.706 30.823 164.773 o
5 -5 5 7.228 30.956 37.591 99.482 o
5 -5 6 13.841 -19.605 24.589 222.912 o
5 -5 7 26.625 -24.041 42.456 78.628 o
5 -5 8 19.297 0.353 42.239 81.492 o
5 -5 9 3.617 8.307 42.739 83.276 o
5 -5 10 5.641 -17.558 46.793 70.284 o
5 -5 11 37.546 36.534 48.883 56.076 o
5 -5 12 40.488 -29.023 51.385 53.447 o
5 -4 0 0.767 72.397 28.153 148.068 o
5 -4 1 8.194 17.866 22.353 252.104 o
5 -4 2 67.949 90.660 31.171 86.277 o
5 -4 3 220.130 339.571 61.564 22.148 o
5 -4 4 153.710 216.856 55.158 30.524 o
5 -4 5 50.121 91.501 30.674 94.980 o
5 -4 6 5.968 91.525 53.028 49.176 o
5 -4 7 0.016 -0.743 38.365 106.454 o
5 -4 8 14.115 0.779 45.917 70.856 o
5 -4 9 70.834 81.314 55.652 39.896 o
5 -4 10 101.365 75.395 63.107 31.142 o
5 -4 11 74.219 229.497 81.045 19.521 o
5 -4 12 3.656 2.138 48.412 65.921 o
5 -4 13 15.018 93.857 64.854 33.650 o
5 -3 0 8.224 56.589 33.291 114.318 o
5 -3 1 60.834 116.066 31.241 84.041 o
5 -3 2 64.871 38.317 23.721 132.731 o
5 -3 3 112.225 195.324 36.420 52.898 o
5 -3 4 16.007 120.155 31.377 101.632 o
5 -3 5 12.210 33.125 28.321 155.440 o
5 -3 6 51.982 21.276 43.569 66.568 o
5 -3 7 51.614 55.099 47.977 54.362 o
5 -3 8 24.697 25.064 49.383 57.903 o
5 -3 9 17.531 100.138 60.353 37.890 o
5 -3 10 0.085 9.830 44.448 77.920 o
5 -3 11 14.847 -65.694 57.004 46.706 o
5 -3 12 72.888 -0.396 46.883 57.376 o
5 -3 13 99.996 123.873 66.719 27.557 o
5 -3 14 44.969 -74.012 58.922 41.277 o
5 -3 15 5.079 -41.911 53.546 53.977 o
5 -2 0 205.341 262.179 36.288 38.329 o
5 -2 1 79.926 157.750 28.925 76.590 o
5 -2 2 2.974 -1.040 19.081 406.883 o
5 -2 3 29.240 13.911 25.529 171.852 o
5 -2 4 167.494 184.402 33.964 48.619 o
5 -2 5 314.955 471.775 84.885 12.890 o
5 -2 6 114.018 159.315 58.573 31.789 o
5 -2 7 28.157 -23.082 44.954 70.509 o
5 -2 8 1.188 -84.746 51.695 58.454 o
5 -2 9 0.655 -47.888 45.072 76.963 o
5 -2 10 24.073 37.648 41.825 76.121 o
5 -2 11 59.370 116.744 57.931 36.995 o
5 -2 12 38.295 -60.054 50.522 55.411 o
5 -2 13 6.293 0.431 41.727 87.677 o
5 -2 14 20.227 3.690 41.730 82.521 o
5 -2 15 48.715 76.446 57.533 39.669 o
5 -2 16 23.944 59.712 57.781 42.027 o
5 -1 0 25.194 51.475 32.819 108.392 o
5 -1 1 9.396 18.047 16.549 386.851 o
5 -1 2 146.805 89.338 42.559 47.610 o
5 -1 3 106.747 154.199 25.395 76.028 o
5 -1 4 31.000 -5.226 31.294 130.420 o
5 -1 5 11.316 67.403 36.947 92.725 o
5 -1 6 68.381 53.138 39.340 69.661 o
5 -1 7 168.675 306.254 67.762 21.685 o
5 -1 8 162.978 256.367 66.451 23.153 o
5 -1 9 83.186 165.234 57.592 34.188 o
5 -1 10 24.084 -23.296 37.540 99.098 o
5 -1 11 9.151 2.563 36.740 110.055 o
5 -1 12 4.969 -27.041 42.352 85.683 o
5 -1 13 30.565 81.996 56.999 41.544 o
5 -1 14 66.681 54.757 54.198 43.141 o
5 -1 15 35.727 0.072 45.546 67.213 o
5 -1 16 0.655 20.095 45.073 74.354 o
5 0 0 421.502 355.700 31.562 24.160 o
5 0 1 343.574 368.087 26.877 28.899 o
5 0 2 116.515 82.043 41.342 53.883 o
5 0 3 39.161 41.055 27.419 132.167 o
5 0 4 8.465 -19.980 23.554 254.892 o
5 0 5 12.968 52.142 29.424 136.654 o
5 0 6 109.104 88.803 37.825 60.341 o
5 0 7 100.226 144.932 45.060 46.722 o
5 0 8 1.220 -1.155 29.756 175.277 o
5 0 9 2.436 60.046 35.337 105.773 o
5 0 10 16.566 63.860 39.324 82.608 o
5 0 11 16.939 46.357 39.690 84.063 o
5 0 12 44.936 87.631 47.000 54.731 o
5 0 13 40.191 62.100 45.230 61.059 o
5 0 14 9.506 5.815 38.118 101.676 o
5 0 15 0.287 -40.921 44.275 79.856 o
5 0 16 26.109 0.413 40.710 84.910 o
5 1 0 0.467 -25.454 38.491 105.533 o
5 1 1 0.582 46.292 39.049 92.489 o
5 1 2 74.953 110.234 46.074 50.545 o
5 1 3 248.968 334.683 72.463 17.813 o
5 1 4 344.484 366.630 76.433 14.862 o
5 1 5 87.932 195.881 62.162 29.582 o
5 1 6 7.531 -63.048 51.478 57.966 o
5 1 7 2.131 -36.004 46.600 71.663 o
5 1 8 127.861 87.915 51.983 38.995 o
5 1 9 100.462 77.380 49.235 45.104 o
5 1 10 55.212 29.626 45.378 60.958 o
5 1 11 11.177 -47.514 52.708 54.838 o
5 1 12 0.189 -62.648 51.038 60.127 o
5 1 13 0.741 -86.954 56.533 48.950 o
5 2 0 80.516 144.818 51.890 40.659 o
5 2 1 61.975 77.081 41.789 62.901 o
5 2 2 134.916 112.850 49.901 39.481 o
5 2 3 27.575 64.073 46.023 61.418 o
5 2 4 0.040 -53.118 42.455 86.924 o
5 2 5 0.558 12.682 38.456 102.573 o
5 2 6 36.427 14.524 37.542 90.870 o
5 2 7 19.089 5.359 41.327 84.103 o
5 2 8 70.158 62.308 46.496 53.793 o
5 2 9 10.941 50.967 51.052 54.636 o
5 2 10 11.139 11.378 45.646 71.119 o
5 2 11 10.235 -97.123 56.534 47.940 o
5 2 12 15.428 -41.683 49.207 61.911 o
5 2 13 7.532 -31.205 46.741 70.015 o
5 3 0 158.600 199.930 58.415 28.638 o
5 3 1 24.139 63.729 40.671 76.053 o
5 3 2 3.678 29.380 38.247 98.328 o
5 3 3 5.178 53.090 41.328 80.965 o
5 3 4 139.419 191.336 60.370 28.503 o
5 3 5 195.272 242.987 67.311 22.014 o
5 3 6 116.698 184.014 61.887 28.722 o
5 3 7 1.194 50.384 48.320 62.096 o
5 3 8 3.227 4.035 39.107 100.034 o
5 3 9 15.466 34.565 49.752 57.818 o
5 3 10 66.344 77.314 54.871 41.339 o
5 3 11 15.739 38.240 51.936 53.160 o
5 3 12 5.816 33.834 50.754 57.226 o
5 4 0 0.547 81.571 41.841 76.499 o
5 4 1 8.930 45.805 39.285 88.454 o
5 4 2 60.201 165.022 55.567 37.611 o
5 4 3 7.697 82.571 44.610 66.846 o
5 4 4 18.550 32.535 39.582 86.253 o
5 4 5 2.972 122.407 52.276 48.965 o
5 4 6 7.262 87.686 50.370 53.905 o
5 4 7 7.323 60.150 45.992 65.725 o
5 4 8 28.388 73.885 50.576 51.648 o
5 4 9 10.287 6.374 42.017 84.194 o
5 4 10 16.645 33.409 44.596 70.330 o
5 5 0 128.375 154.878 54.073 34.629 o
5 5 1 31.064 0.203 36.528 100.597 o
5 5 2 46.520 54.721 40.479 71.907 o
5 5 3 0.098 4.873 36.689 114.882 o
5 5 4 4.931 -95.020 49.119 64.022 o
5 5 5 8.894 -14.279 38.910 99.365 o
5 5 6 65.699 134.606 54.428 39.539 o
6 -1 0 0.463 -22.384 35.674 122.817 o
6 -1 1 41.864 30.081 39.531 79.314 o
6 -1 2 62.117 45.677 41.579 66.574 o
6 -1 3 44.216 76.026 43.178 63.481 o
6 0 0 14.111 -25.212 34.858 119.132 o
6 0 1 76.554 101.580 49.534 45.962 o
6 0 2 42.019 107.089 49.400 49.795 o
6 0 3 0.348 56.648 37.766 96.047 o
6 1 0 26.809 2.786 33.387 119.026 o
6 1 1 7.160 22.622 35.317 113.642 o
6 1 2 13.645 60.882 44.566 68.009 o
6 2 0 18.525 61.025 42.689 71.983 o
6 2 1 19.531 81.233 48.612 55.956 o
;
_olex2_submission_special_instructions 'No special instructions were received'
_oxdiff_exptl_absorpt_empirical_details
;
Empirical correction (ABSPACK) includes:
- Absorption correction using spherical harmonics
- Frame scaling
;
_oxdiff_exptl_absorpt_empirical_full_max 2.041
_oxdiff_exptl_absorpt_empirical_full_min 0.537
loop_
_space_group_symop_id
_space_group_symop_operation_xyz
1 x,y,z
2 -x,-y,-z
loop_
_atom_site_label
_atom_site_type_symbol
_atom_site_fract_x
_atom_site_fract_y
_atom_site_fract_z
_atom_site_U_iso_or_equiv
_atom_site_adp_type
_atom_site_occupancy
_atom_site_refinement_flags_posn
I1 I -0.00815(18) 0.20457(12) 0.08922(4) 0.0618(3) Uani 1.000000 .
C6 C -0.067(2) 0.1182(13) 0.1792(5) 0.039(2) Uani 1.000000 .
C9 C -0.339(2) 0.1017(15) 0.1973(6) 0.050(3) Uani 1.000000 .
C11 C 0.427(2) 0.0898(16) 0.2090(6) 0.053(3) Uani 1.000000 .
C13 C 0.151(2) 0.0752(15) 0.2238(6) 0.049(3) Uani 1.000000 .
I2 I -0.0413(3) -0.13965(16) 0.41712(5) 0.1001(5) Uani 1.000000 .
C0AA C 0.107(3) 0.0117(18) 0.2865(7) 0.061(3) Uani 1.000000 .
C7 C 0.061(3) -0.0409(17) 0.3352(6) 0.063(3) Uani 1.000000 .
C C 0.425(3) 0.5886(18) 0.2168(6) 0.059(3) Uani 1.000000 .
Ha H 0.326(3) 0.5006(18) 0.1923(6) 0.071(4) Uiso 1.000000 R
Hb H 0.290(3) 0.6639(18) 0.2298(6) 0.071(4) Uiso 1.000000 R
C3AA C 0.584(3) 0.5213(19) 0.2763(7) 0.067(4) Uani 1.000000 .
H3Aa H 0.697(3) 0.4336(19) 0.2634(7) 0.080(4) Uiso 1.000000 R
H3Ab H 0.706(3) 0.6057(19) 0.2968(7) 0.080(4) Uiso 1.000000 R
C4AA C 0.404(3) 0.458(2) 0.3260(7) 0.079(5) Uani 1.000000 .
H4Aa H 0.296(3) 0.546(2) 0.3406(7) 0.095(6) Uiso 1.000000 R
H4Ab H 0.277(3) 0.375(2) 0.3057(7) 0.095(6) Uiso 1.000000 R
C5 C 0.606(2) 0.6754(16) 0.1734(6) 0.053(3) Uani 1.000000 .
H5a H 0.703(2) 0.7647(16) 0.1978(6) 0.064(4) Uiso 1.000000 R
H5b H 0.744(2) 0.6007(16) 0.1613(6) 0.064(4) Uiso 1.000000 R
C2AA C 0.578(4) 0.385(3) 0.3851(8) 0.105(7) Uani 1.000000 .
H2Aa H 0.676(4) 0.291(3) 0.3716(8) 0.126(8) Uiso 1.000000 R
H2Ab H 0.711(4) 0.465(3) 0.4045(8) 0.126(8) Uiso 1.000000 R
C5AA C 0.5574(19) 0.5654(12) 0.0245(5) 0.036(2) Uani 1.000000 .
C1 C 0.386(6) 0.336(3) 0.4332(10) 0.127(9) Uani 1.000000 .
N2 N 0.256(5) 0.297(3) 0.4699(10) 0.168(11) Uani 1.000000 .
N1 N 0.3777(16) 0.6153(11) 0.0628(4) 0.040(2) Uani 1.000000 .
H1 H 0.2148(16) 0.5727(11) 0.0586(4) 0.048(2) Uiso 1.000000 R
C2 C 0.449(3) 0.7413(15) 0.1120(6) 0.051(3) Uani 1.000000 .
H2a H 0.282(3) 0.7914(15) 0.1229(6) 0.061(3) Uiso 1.000000 R
H2b H 0.561(3) 0.8245(15) 0.0944(6) 0.061(3) Uiso 1.000000 R
O1 O 0.7954(15) 0.6177(10) 0.0276(4) 0.0481(19) Uani 1.000000 .
loop_
_atom_site_aniso_label
_atom_site_aniso_U_11
_atom_site_aniso_U_22
_atom_site_aniso_U_33
_atom_site_aniso_U_12
_atom_site_aniso_U_13
_atom_site_aniso_U_23
I1 0.0618(5) 0.0724(6) 0.0526(5) 0.0014(4) 0.0097(4) 0.0251(4)
C6 0.033(5) 0.038(6) 0.047(6) -0.000(4) 0.005(4) 0.002(4)
C9 0.044(6) 0.055(7) 0.052(7) 0.001(5) 0.011(5) 0.004(5)
C11 0.038(6) 0.069(8) 0.054(7) -0.000(5) 0.010(5) 0.010(6)
C13 0.036(6) 0.053(7) 0.058(7) -0.005(5) 0.008(5) 0.008(6)
I2 0.1527(12) 0.1035(10) 0.0462(6) -0.0364(8) 0.0255(6) 0.0140(5)
C0AA 0.044(7) 0.072(9) 0.067(9) -0.002(6) 0.008(6) 0.007(7)
C7 0.080(9) 0.069(9) 0.042(7) -0.012(7) 0.020(6) 0.013(6)
C 0.051(7) 0.077(9) 0.050(7) -0.005(6) 0.004(6) 0.007(6)
C3AA 0.077(9) 0.074(9) 0.049(7) -0.014(7) 0.007(7) 0.007(7)
C4AA 0.088(11) 0.101(12) 0.050(8) -0.028(9) 0.017(7) 0.009(8)
C5 0.048(7) 0.062(8) 0.050(7) -0.004(6) 0.011(5) 0.006(6)
C2AA 0.120(15) 0.135(18) 0.059(10) -0.035(13) 0.009(10) 0.033(10)
C5AA 0.033(5) 0.037(5) 0.038(5) 0.005(4) 0.003(4) 0.010(4)
C1 0.19(2) 0.125(18) 0.067(12) -0.080(17) 0.009(14) 0.008(11)
N2 0.22(2) 0.21(2) 0.087(13) -0.089(19) 0.056(15) 0.040(14)
N1 0.027(4) 0.048(5) 0.046(5) -0.002(4) 0.005(4) 0.004(4)
C2 0.052(7) 0.052(7) 0.049(7) -0.002(5) 0.010(5) -0.002(5)
O1 0.039(4) 0.050(5) 0.057(5) -0.004(3) 0.010(3) 0.002(4)
loop_
_atom_type_symbol
_atom_type_scat_dispersion_real
_atom_type_scat_dispersion_imag
_atom_type_scat_Cromer_Mann_a1
_atom_type_scat_Cromer_Mann_a2
_atom_type_scat_Cromer_Mann_a3
_atom_type_scat_Cromer_Mann_a4
_atom_type_scat_Cromer_Mann_b1
_atom_type_scat_Cromer_Mann_b2
_atom_type_scat_Cromer_Mann_b3
_atom_type_scat_Cromer_Mann_b4
_atom_type_scat_Cromer_Mann_c
_atom_type_scat_source
_atom_type_scat_dispersion_source
I -0.47400 1.81200 20.14700 18.99500 7.51400 2.27300 4.34700 0.38100 27.76600
66.87800 4.071 'Custom 4-Gaussian' custom
H 0.00000 0.00000 0.49300 0.32300 0.14000 0.04100 10.51100 26.12600 3.14200
57.80000 0.003 'Custom 4-Gaussian' custom
C 0.00300 0.00200 2.31000 1.02000 1.58900 0.86500 20.84400 10.20800 0.56900
51.65100 0.216 'Custom 4-Gaussian' custom
O 0.01100 0.00600 3.04900 2.28700 1.54600 0.86700 13.27700 5.70100 0.32400
32.90900 0.251 'Custom 4-Gaussian' custom
N 0.00600 0.00300 12.21300 3.13200 2.01300 1.16600 0.00600 9.89300 28.99800
0.58300 -11.529 'Custom 4-Gaussian' custom
loop_
_exptl_crystal_face_index_h
_exptl_crystal_face_index_k
_exptl_crystal_face_index_l
_exptl_crystal_face_perp_dist
-5 -1 3 0.5237
0 -5 1 0.0760
0 0 0 0.0111
0 0 0 0.0110
0 1 -1 0.0557
1 0 1 0.3299
4 -5 -3 0.2601
loop_
_geom_angle_atom_site_label_1
_geom_angle_atom_site_label_2
_geom_angle_atom_site_label_3
_geom_angle
_geom_angle_site_symmetry_1
_geom_angle_site_symmetry_3
C9 C6 I1 119.9(8) . .
C13 C6 I1 121.9(8) . .
C13 C6 C9 118.2(10) . .
C11 C9 C6 176.4(13) 1_455 .
C13 C11 C9 179.2(13) . 1_655
C11 C13 C6 120.9(11) . .
C0AA C13 C6 121.4(10) . .
C0AA C13 C11 117.7(11) . .
C7 C0AA C13 177.1(14) . .
C0AA C7 I2 176.3(13) . .
C5 C C3AA 112.9(11) . .
C4AA C3AA C 113.9(13) . .
C2AA C4AA C3AA 111.6(14) . .
C2 C5 C 113.5(10) . .
C1 C2AA C4AA 107.8(18) . .
O1 C5AA N1 123.8(10) . .
N2 C1 C2AA 177(3) . .
C2 N1 C5AA 121.3(9) . .
N1 C2 C5 112.4(10) . .
loop_
_geom_bond_atom_site_label_1
_geom_bond_atom_site_label_2
_geom_bond_distance
_geom_bond_site_symmetry_2
I1 C6 2.054(11) .
C6 C9 1.431(15) .
C6 C13 1.380(15) .
C9 C11 1.200(15) 1_455
C11 C13 1.420(15) .
C13 C0AA 1.444(18) .
I2 C7 2.001(12) .
C0AA C7 1.148(17) .
C C3AA 1.498(19) .
C C5 1.512(17) .
C3AA C4AA 1.522(18) .
C4AA C2AA 1.54(2) .
C5 C2 1.519(17) .
C2AA C1 1.50(3) .
C5AA C5AA 1.53(2) 2_665
C5AA N1 1.317(13) .
C5AA O1 1.229(12) .
C1 N2 1.09(3) .
N1 C2 1.456(15) .
loop_
_refln_index_h
_refln_index_k
_refln_index_l
_refln_F_squared_meas
_refln_F_squared_sigma
_refln_scale_group_code
0 -2 0 13975.9 350.329 5
0 -2 0 13603.9 360.287 1
0 -3 0 38967.5 747.061 1
0 -3 0 40618.3 733.066 5
0 -4 0 7396.98 368.266 5
0 4 0 7595.05 344.555 2
0 -4 0 6656.9 370.202 1
0 4 0 7075.16 350.188 5
0 5 0 5981.78 364.27 5
0 5 0 6302.49 356.467 2
0 -5 0 5635.02 369.563 5
0 -5 0 5562.25 385.039 1
0 6 0 1330.86 208.313 2
0 -6 0 443.334 180.798 1
0 6 0 585.258 177.669 1
0 6 0 858.347 184.212 5
0 -6 0 666.764 250.385 3
0 -6 0 720.749 184.827 5
0 -7 0 553.834 208.759 1
0 7 0 715.36 202.719 5
0 -7 0 608.111 260.39 3
0 -8 0 194.648 174.897 1
0 -8 0 138.646 215.269 3
0 8 0 398.252 185.769 5
0 -9 0 166.966 182.087 1
0 9 0 430.889 204.7 5
0 -9 0 524.796 277.031 3
0 -10 0 296.399 245.297 3
0 10 0 251.661 176.48 5
0 10 1 234.106 181.055 5
0 -10 -1 598.438 289.805 3
0 -9 -1 646.134 281.393 3
0 9 1 778.976 233.523 5
0 8 1 -124.133 149.767 5
0 -8 -1 -61.7358 199.194 3
0 -8 -1 167.352 165.621 1
0 -7 -1 4532.64 422.937 1
0 -7 -1 4281.62 493.422 3
0 7 1 3719.74 359.404 5
0 -6 -1 6088.17 525.722 3
0 6 1 5710.15 390.069 5
0 -6 -1 5247.89 395.69 5
0 -6 -1 6026.92 439.203 1
0 6 1 5837.26 372.736 2
0 6 1 5980.22 438.616 1
0 -5 -1 5060.77 352.292 5
0 5 1 5608.52 326.714 2
0 -5 -1 4778.08 365.144 1
0 5 1 5353.5 347.098 5
0 -4 -1 10356.3 454.838 1
0 4 1 10433.1 427.985 5
0 -4 -1 10659.9 442.484 5
0 4 1 10953.5 393.372 2
0 3 1 1955.47 155.758 2
0 -3 -1 1495.94 171.784 1
0 -3 -1 1665.77 166.013 5
0 -2 -1 26502.3 474.394 5
0 -2 -1 29267.4 518.637 1
0 2 1 26695.4 407.759 2
0 -2 1 2157.78 151.544 5
0 -2 1 2244.05 165.519 1
0 -3 1 2705.83 201.701 5
0 -3 1 2764.98 214.773 1
0 -4 1 4639.14 319.158 1
0 -4 1 5239.46 321.141 5
0 5 -1 23411 687.444 2
0 -5 1 22249 744.59 1
0 -5 1 23805.3 742.795 5
0 5 -1 22314.5 698.263 5
0 6 -1 171.825 127.143 1
0 -6 1 221.771 125.922 5
0 6 -1 -63.7121 115.118 5
0 -6 1 -179.854 187.731 3
0 6 -1 289.481 141.118 2
0 -6 1 -24.4016 124.406 1
0 7 -1 3262.99 347.018 5
0 -7 1 3407.08 431.932 3
0 -7 1 3288.96 372.038 1
0 8 -1 3053.41 368.644 5
0 -8 1 2603.45 373.504 1
0 -8 1 2552.13 428.264 3
0 9 -1 124.328 151.401 5
0 -9 1 4.24745 155.79 1
0 -9 1 1.73851 200.982 3
0 -10 1 268.037 228.713 3
0 -10 1 309.249 212.796 1
0 10 -1 297.45 203.594 5
0 11 -1 378.4 196.38 6
0 -10 -2 149.054 237.56 3
0 10 2 381.395 196.576 5
0 -9 -2 131.449 235.933 3
0 9 2 195.514 163.047 5
0 -8 -2 276.953 222.789 3
0 8 2 311.749 164.854 5
0 -7 -2 390.015 227.307 3
0 -7 -2 547.626 194.984 1
0 7 2 404.093 158.235 5
0 6 2 834.969 171.707 2
0 6 2 942.559 206.69 5
0 -6 -2 259.653 155.057 5
0 6 2 442.692 166.663 1
0 -6 -2 683.205 207.673 1
0 -5 -2 11242.3 530.493 1
0 5 2 10937.5 438.492 2
0 5 2 10938.3 494.929 5
0 -5 -2 10735.3 508.568 5
0 -4 -2 4044.04 295.407 1
0 4 2 3970.71 274.498 5
0 4 2 4415.23 247.225 2
0 -4 -2 4325.44 292.796 5
0 3 2 4962.51 223.136 2
0 -3 -2 4862.49 268.532 5
0 -3 -2 4857.5 279.552 1
0 -2 -2 329712 1748.72 1
0 -2 -2 329442 1725.17 5
0 2 -2 49835.1 799.241 3
0 -2 2 51200.3 731.159 1
0 -2 2 50598.6 681.042 5
0 -3 2 12912.5 451.573 1
0 -3 2 13705.7 438.971 5
0 -4 2 29145.3 742.756 5
0 -4 2 27365.1 737.913 1
0 -5 2 857.144 189.571 5
0 -5 2 1065.35 220.415 1
0 5 -2 1483.46 219.734 5
0 -6 2 1728.14 264.186 1
0 -6 2 1608.21 246.037 5
0 6 -2 1952.41 276.792 1
0 -6 2 1770.92 298.95 3
0 6 -2 2331.48 287.058 2
0 6 -2 1819.71 251.221 5
0 7 -2 496.662 187.409 5
0 -7 2 619.655 244.523 3
0 -7 2 446.704 192.106 1
0 8 -2 971.238 245.206 5
0 -8 2 562.915 230.285 1
0 -8 2 1124.19 319.101 3
0 9 -2 278.018 188.384 5
0 -9 2 127.371 214.216 3
0 -9 2 50.0629 162.442 1
0 -10 2 213.651 200.901 1
0 10 -2 99.0011 165.449 5
0 -10 2 25.4662 215.849 3
0 11 -2 89.5768 172.991 6
0 -10 -3 374.036 274.241 3
0 10 3 114.633 163.575 5
0 -9 -3 327.699 247.456 3
0 9 3 270.716 167.354 5
0 -8 -3 1470.63 358.602 3
0 8 3 1195.49 239.492 5
0 -7 -3 239.712 191.288 3
0 7 3 529.369 162.665 2
0 7 3 453.71 161.732 5
0 -6 -3 8199.43 505.949 5
0 6 3 7206.92 452.773 5
0 6 3 7245.39 413.244 2
0 -5 -3 1596.12 228.406 1
0 -5 -3 1132.93 190.171 5
0 5 3 1100.35 185.228 5
0 5 3 1289.65 171.745 2
0 4 3 7338.44 371.807 5
0 4 3 6510.81 294.459 2
0 -4 -3 7014.21 371.362 5
0 3 3 47412.7 657.667 2
0 -3 -3 48923.5 817.613 5
0 3 3 48308.6 790.136 5
0 2 3 58159.5 578.249 2
0 -2 -3 59623.9 757.608 5
0 1 3 7538.48 160.738 2
0 1 3 7846.41 236.399 6
0 1 -3 3746.1 189.449 3
0 -1 3 4021.33 184.34 1
0 -1 3 3778.39 169.369 6
0 -2 3 312.994 124.012 1
0 -2 3 136.927 84.5375 5
0 2 -3 59.6691 92.3327 3
0 -3 3 30540.7 702.027 1
0 -3 3 29876.7 650.712 5
0 3 -3 30859.6 778.781 3
0 -4 3 4597.91 324.068 1
0 -4 3 5005.17 319.184 5
0 5 -3 10936.6 512.915 5
0 -5 3 11472.8 537.778 5
0 -5 3 11725.5 556.915 1
0 -6 3 12257 629.326 1
0 6 -3 13021.4 632.502 2
0 6 -3 12400.6 641.845 1
0 -6 3 12980.7 736.677 3
0 6 -3 12154 595.013 5
0 -6 3 12486.4 614.398 5
0 -7 3 1731.67 339.338 3
0 7 -3 1739.97 273.199 5
0 -7 3 1616.21 283.967 1
0 -8 3 1311.77 330.658 3
0 8 -3 1383.53 271.432 5
0 -8 3 1268.16 282.907 1
0 9 -3 1142.38 269.965 5
0 -9 3 1345.88 313.621 1
0 -9 3 1097.08 329.648 3
0 10 -3 228.063 194.637 5
0 -10 3 67.8844 207.448 3
0 -10 3 -212.807 193.409 1
0 10 -3 139.402 155.056 6
0 -10 -4 271.7 261.334 3
0 10 4 15.6242 148.889 5
0 9 4 -41.4462 134.016 5
0 -9 -4 110.101 212.767 3
0 -8 -4 245.547 222.159 3
0 8 4 286.421 161.285 5
0 7 4 143.918 135.345 5
0 7 4 395.71 152.379 2
0 -6 -4 918.498 197.342 5
0 6 4 893.112 194.659 5
0 6 4 1003.35 177.006 2
0 5 4 795.101 198.549 5
0 -5 -4 586.611 169.399 5
0 5 4 474.468 135.834 2
0 -4 -4 16921.5 561.155 5
0 4 4 17788.2 570.772 5
0 4 4 17200.8 476.157 2
0 3 4 35903.8 576.414 2
0 -3 -4 36368.1 713.239 5
0 3 4 36158.8 701.372 5
0 2 4 2462.89 132 2
0 2 4 2538.56 193.196 6
0 -2 -4 2669.31 187.843 5
0 -2 -4 2662.24 128.241 2
0 1 4 85668 808.203 6
0 -1 -4 84059.5 521.484 2
0 -1 -4 86827.5 890.602 3
0 -1 -4 84767.5 524.91 4
0 0 -4 29100.3 578.734 3
0 0 4 31947.7 563.533 6
0 -1 4 8420.62 284.586 6
0 1 -4 8645.46 311.994 3
0 -2 4 142052 1354.06 1
0 -2 4 145484 1312.68 5
0 2 -4 145342 1502.08 3
0 -3 4 2176.23 206.409 5
0 3 -4 1626.18 210.029 3
0 -3 4 2099.15 224.847 1
0 4 -4 21063.4 752.331 3
0 -4 4 21012 674.173 1
0 -4 4 21089.3 637.976 5
0 -5 4 9608.74 502.225 5
0 -5 4 9781.14 519.483 1
0 5 -4 9663.73 488.842 5
0 -5 4 9728.73 600.073 3
0 -6 4 808.216 223.532 1
0 -6 4 573.341 186.525 5
0 -6 4 1046.77 281.172 3
0 6 -4 1176.11 224.688 5
0 -7 4 2082.52 368.616 3
0 -7 4 1932.65 316.467 1
0 7 -4 2180.2 302.027 5
0 -8 4 176.905 171.157 1
0 -8 4 235.612 218.457 3
0 8 -4 365.094 176.208 5
0 -9 4 562.765 242.918 1
0 9 -4 684.719 222.182 6
0 -9 4 420.042 262.302 3
0 9 -4 692.745 241.326 5
0 -10 4 222.328 231.219 3
0 10 -4 -63.1572 137.438 6
0 -10 4 238.877 212.831 1
0 -10 -5 -185.415 242.207 3
0 10 5 28.131 132.949 5
0 9 5 -36.3748 123.797 5
0 -9 -5 -527.811 289.279 3
0 8 5 1248.17 249.534 5
0 7 5 1123.68 224.896 5
0 7 5 863.573 186.158 2
0 6 5 1043.11 175.409 2
0 -6 -5 1384.76 227.291 5
0 6 5 928.587 197.458 5
0 -5 -5 21367.1 719.884 5
0 5 5 21333.7 604.44 2
0 5 5 22088.5 725.704 5
0 4 5 46940.2 930.055 5
0 -4 -5 46396.1 937.696 5
0 4 5 46630.6 768.535 2
0 3 5 10267.8 405.469 5
0 3 5 10274.6 308.617 2
0 -3 -5 10542.7 416.565 5
0 -2 -5 10966.1 371.005 5
0 2 5 10237.5 263.815 2
0 2 5 11757.3 398.295 6
0 -2 -5 10417.1 232.538 2
0 -1 -5 3095.22 123.159 4
0 -1 -5 2852.94 190.198 3
0 -1 -5 2738.6 179.85 6
0 1 5 2750.29 167.678 6
0 0 5 1178.45 153.616 6
0 0 -5 915.764 152.923 3
0 -1 5 669.408 130.098 1
0 1 -5 560.591 120.606 3
0 -1 5 753.887 123.186 6
0 2 -5 14839 508.415 3
0 -2 5 15513.9 456.412 5
0 -2 5 14296.1 456.238 1
0 -3 5 9496.83 434.26 1
0 3 -5 9002.25 455.098 3
0 -3 5 10013.8 420.385 5
0 4 -5 24333.1 827.228 3
0 -4 5 24737.2 709.915 5
0 -4 5 24244.2 739.179 1
0 -5 5 6165.5 403.704 5
0 -5 5 5688.09 470.741 3
0 5 -5 5677.6 392.753 5
0 -5 5 5433.95 400.164 1
0 -6 5 1549.08 261.258 1
0 6 -5 1664.23 248.765 5
0 -6 5 1470.03 294.397 3
0 7 -5 7817.28 540.251 5
0 -7 5 7474.92 556.566 1
0 -7 5 7879.48 652.169 3
0 -8 5 112.445 160.608 1
0 8 -5 187.347 153.759 5
0 -8 5 126.709 209.639 3
0 8 -5 184.101 151.758 6
0 -9 5 535.477 231.857 1
0 -9 5 544.592 281.508 3
0 9 -5 653.568 228.107 6
0 -10 5 224.028 239.53 3
0 -10 5 261.64 216.895 1
0 10 -5 573.636 220.813 6
0 10 6 -104.611 145.859 5
0 -10 -6 24.6171 195.775 3
0 -9 -6 0.31902 181.753 3
0 9 6 243.59 163.371 5
0 8 6 146.293 138.684 5
0 7 6 452.351 147.131 2
0 7 6 468.758 191.549 5
0 6 6 503.935 143.889 2
0 6 6 788.222 209.699 5
0 -6 -6 286.731 147.438 5
0 5 6 3710.19 342.529 1
0 5 6 3790.65 265.184 2
0 5 6 3279.21 292.744 5
0 -5 -6 3411.94 308.497 5
0 4 6 741.411 126.762 2
0 4 6 714.516 163.176 5
0 -4 -6 376.173 136.054 5
0 3 6 32843.3 717.772 5
0 -3 -6 36126.4 789.442 5
0 3 6 33690.5 561.193 2
0 3 6 34113.6 782.601 6
0 2 6 4845.18 253.714 5
0 -2 -6 4554.6 161.674 2
0 -2 -6 5525.44 309.137 3
0 2 6 5368.9 284.262 6
0 1 6 10365.8 340.387 6
0 -1 -6 11298.3 378.858 6
0 -1 -6 10142.8 238.423 4
0 -1 -6 10863.6 387.874 3
0 0 6 118238 1265.64 6
0 0 -6 115263 1381.39 3
0 -1 6 38895.1 711.823 6
0 1 -6 38989.7 778.319 3
0 -1 6 37416.1 723.349 1
0 2 -6 75834 1179.83 3
0 -2 6 72785.9 1061.47 1
0 3 -6 53365.9 1128.2 3
0 -3 6 52282.2 1002.81 1
0 -3 6 55270.1 1004.08 5
0 -4 6 6755.37 398.008 5
0 -4 6 6671.32 418.577 1
0 4 -6 5804.24 430.951 3
0 -5 6 5956.52 399.295 5
0 -5 6 5073.86 396.828 1
0 -5 6 5470.9 471.237 3
0 5 -6 5359.81 454.601 3
0 5 -6 5711.15 400.574 6
0 5 -6 5811.87 430.497 1
0 6 -6 3763.5 359.226 6
0 -6 6 3816.28 448.835 3
0 -6 6 3946.99 392.192 1
0 -7 6 966.064 253.113 1
0 -7 6 738.79 286.194 3
0 7 -6 1178.59 249.974 6
0 -8 6 264.507 190.731 1
0 -8 6 184.192 227.656 3
0 8 -6 166.34 162.888 6
0 -9 6 151.777 226.414 3
0 -9 6 254.535 209.147 1
0 9 -6 92.5792 160.033 6
0 -10 6 169.372 239.646 3
0 -10 6 133.574 205.218 1
0 10 -6 378.307 210.795 6
0 10 7 10.88 147.036 5
0 9 7 510.221 199.441 5
0 8 7 76.3518 132.186 5
0 7 7 4473.46 414.376 5
0 7 7 3944.36 335.66 2
0 6 7 11039.5 487.066 2
0 6 7 11491.4 594.708 5
0 -6 -7 11204.3 611.284 5
0 5 7 910.449 187.793 1
0 5 7 534.49 157.967 6
0 -5 -7 747.105 171.212 5
0 5 7 621.001 152.949 5
0 5 7 894.361 144.351 2
0 4 7 10635 373.217 2
0 -4 -7 11541.2 510.478 5
0 4 7 11027 482.92 5
0 4 7 10039.8 490.89 6
0 3 7 3376.16 267.862 6
0 -3 -7 4148.07 194.044 2
0 3 7 3489.9 196.032 2
0 3 7 3453.32 248.948 5
0 -3 -7 3581.87 263.864 5
0 -2 -7 166.406 66.2881 4
0 2 7 30.8239 81.1723 5
0 -2 -7 91.3953 48.0598 2
0 -2 -7 78.8503 85.4035 3
0 2 7 115.504 77.835 6
0 -2 -7 89.6538 96.8225 6
0 1 7 7367.71 321.445 6
0 -1 -7 6986.1 338.242 3
0 -1 -7 7212.16 333.437 6
0 0 -7 158.675 121.603 3
0 0 -7 399.821 169.495 6
0 0 7 179.238 112.67 6
0 1 -7 1537.28 196.783 3
0 -1 7 1674.91 207.746 1
0 -1 7 1872.86 201.689 6
0 -2 7 15466 519.369 1
0 2 -7 15451.5 561.066 3
0 -3 7 2103.8 232.3 1
0 3 -7 2033.9 247.41 3
0 -3 7 2251.65 223.078 5
0 -4 7 418.473 146.333 5
0 -4 7 93.3314 147.63 3
0 -4 7 454.145 170.243 1
0 4 -7 217.353 145.489 3
0 5 -7 11440.7 564.256 6
0 -5 7 12558.1 583.473 5
0 -5 7 13038.4 708.431 3
0 -5 7 11616.5 595.694 1
0 5 -7 12660.3 631.484 1
0 5 -7 12055.6 673.835 3
0 -6 7 3130.22 358.449 1
0 6 -7 3309.97 349.165 6
0 -6 7 2770.26 390.677 3
0 7 -7 1945.7 298.427 6
0 -7 7 2091.99 325.053 1
0 -7 7 1723.99 349.193 3
0 8 -7 2209.72 344.558 6
0 -8 7 2796.9 397.545 1
0 -8 7 2032.57 408.391 3
0 -9 7 166.919 216.615 3
0 9 -7 488.601 209.637 6
0 -9 7 427.834 237.591 1
0 10 -7 537.076 223.798 6
0 -10 7 426.144 242.832 1
0 -10 7 795.962 311.686 3
0 10 8 39.1429 144.548 5
0 9 8 318.392 177.247 5
0 8 8 319.958 179.88 5
0 7 8 204.588 122.701 2
0 7 8 365.066 174.298 6
0 7 8 45.4448 133.732 5
0 -6 -8 167.889 146.823 5
0 6 8 487.781 138.365 2
0 6 8 500.26 176.886 5
0 6 8 297.862 158.149 6
0 5 8 1361.06 226.716 1
0 5 8 1179.14 212.866 6
0 5 8 872.382 180.089 5
0 5 8 1473.93 173.483 2
0 -5 -8 1347.5 218.838 5
0 4 8 1022.86 176.113 5
0 -4 -8 1103.16 183.154 5
0 4 8 1167.65 191.59 6
0 4 8 1038.53 133.153 2
0 4 8 1285.88 194.97 1
0 -3 -8 4207.24 334.998 3
0 -3 -8 4206.48 190.743 2
0 3 8 3688.07 266.209 5
0 3 8 3826.51 293.961 6
0 -2 -8 25126.8 465.721 4
0 2 8 25716.5 631.68 6
0 -2 -8 26631 404.873 2
0 -2 -8 26812.2 732.835 3
0 2 8 25329.6 630.246 5
0 -2 -8 26954.3 686.759 6
0 1 8 34268.9 748.538 6
0 -1 -8 31413.9 762.577 3
0 -1 -8 34752.9 763.689 6
0 0 8 41336.1 854.593 6
0 0 -8 39037.8 918.255 3
0 0 -8 42130 917.196 6
0 1 -8 123625 1629.54 3
0 -1 8 118579 1507.53 1
0 -1 8 122226 1477.68 6
0 -2 8 21451.8 646.336 1
0 -2 8 22525.6 649.228 6
0 2 -8 21594.3 694.854 3
0 -3 8 6650.82 379.457 5
0 3 -8 5956.65 407.857 3
0 -3 8 6095.22 378.761 1
0 -4 8 32455 1007.45 3
0 4 -8 33768.1 952.731 1
0 -4 8 33236.4 902.146 5
0 -4 8 32529.3 924.78 1
0 4 -8 31863.6 1008.95 3
0 -5 8 1528.58 262.203 1
0 -5 8 1673.85 301.395 3
0 5 -8 1796.27 267.291 1
0 5 -8 1878.35 264.74 6
0 -5 8 1578.92 231.941 5
0 5 -8 1549.81 280.346 3
0 6 -8 2246.91 303.837 6
0 -6 8 1780.07 296.945 1
0 -6 8 1647.87 317.818 3
0 7 -8 540.042 197.906 6
0 -7 8 319.926 221.962 3
0 -7 8 829.264 242.633 1
0 8 -8 594.187 218.939 6
0 -8 8 752.061 296.053 3
0 -8 8 642.312 242.826 1
0 -9 8 66.5041 181.419 1
0 9 -8 157.71 162.341 6
0 -9 8 18.7292 209.253 3
0 -10 8 260.779 235.347 3
0 10 -8 247.651 199.251 6
0 -10 -9 279.182 162.153 4
0 10 9 104.963 157.071 5
0 9 9 276.844 182.113 5
0 8 9 1173.87 261.526 5
0 7 9 -15.734 122.064 5
0 7 9 -45.4306 119.73 6
0 7 9 38.7969 94.9358 2
0 6 9 1944.1 217.882 2
0 6 9 2406.7 291.866 5
0 6 9 1900.94 293.243 6
0 -5 -9 4730.02 379.476 5
0 5 9 4088.91 370.359 6
0 5 9 4434.71 284.724 2
0 5 9 4567.29 355.864 5
0 5 9 5019.95 408.067 1
0 4 9 333.766 122.827 5
0 4 9 518.134 138.268 1
0 4 9 441.722 142.478 6
0 -3 -9 9653.43 323.306 4
0 -3 -9 10013.3 283.915 2
0 -3 -9 10670.8 541.192 3
0 3 9 9727.81 436.252 5
0 3 9 9716.01 455.708 6
0 -2 -9 6766.84 379.829 6
0 2 9 6528 344.053 6
0 -2 -9 6410.81 211.71 2
0 -2 -9 6337.43 256.505 4
0 -2 -9 7209.51 413.517 3
0 2 9 6622.51 353.93 5
0 -1 -9 6184.53 355.039 6
0 1 9 6177.72 351.958 6
0 -1 -9 5635.89 356.047 3
0 0 -9 5578.03 373.709 6
0 0 9 5236.6 337.134 6
0 0 -9 4662.56 351.586 3
0 1 -9 132.736 136.736 3
0 -1 9 501.543 167.128 6
0 -1 9 221.875 175.206 1
0 -2 9 281.842 132.148 6
0 -2 9 98.5626 124.584 1
0 2 -9 76.7151 116.587 3
0 -3 9 2632.22 297.907 3
0 3 -9 2181.27 271.143 3
0 -3 9 2671.64 278.924 1
0 -3 9 2962.02 275.072 5
0 3 -9 2898.11 293.523 1
0 -4 9 8706.39 498.626 1
0 4 -9 8641.84 549.129 3
0 -4 9 9025.1 556.983 3
0 4 -9 9920.83 564.92 1
0 -4 9 9383.54 502.25 5
0 5 -9 3054.62 321.73 6
0 5 -9 2432.18 334.99 3
0 -5 9 2827.93 334.264 1
0 -5 9 2798.63 363.255 3
0 5 -9 2876.93 323.252 1
0 6 -9 11336.3 642.186 6
0 -6 9 11673.1 664.296 1
0 -6 9 12886.8 787.76 3
0 -7 9 776.047 226.078 1
0 7 -9 983.431 232.911 6
0 -7 9 686.988 255.284 3
0 -8 9 734.645 237.85 1
0 -8 9 638.466 271.923 3
0 8 -9 815.276 248.691 6
0 -9 9 979.729 306.04 1
0 -9 9 1111.16 338.221 3
0 9 -9 656.007 237.185 6
0 -10 9 68.9309 195.561 3
0 10 -9 290.174 209.16 6
0 10 10 74.3952 159.011 5
0 -10 -10 347.036 198.948 4
0 -9 -10 704.22 190.806 4
0 9 10 378.962 192.192 5
0 8 10 -20.4988 132.864 5
0 7 10 28.2864 99.4191 2
0 7 10 -82.4846 130.963 5
0 6 10 98.0346 121.871 5
0 6 10 77.6185 118.639 6
0 6 10 -60.3965 93.9651 2
0 5 10 232.33 102.448 2
0 5 10 -55.2599 117.153 6
0 5 10 241.766 137.504 5
0 -4 -10 5422.46 437.798 3
0 4 10 4899.16 353.072 5
0 4 10 4990.13 385.287 6
0 -4 -10 4970.38 268.46 4
0 3 10 5831.57 362.086 6
0 -3 -10 7116.12 458.316 3
0 -3 -10 6499.03 285.436 4
0 3 10 6442.05 377.281 5
0 -3 -10 6240.2 227.264 2
0 2 10 2668.97 236.022 6
0 -2 -10 2671.88 149.002 2
0 -2 -10 3208.89 291.421 6
0 2 10 3019.61 263.962 5
0 -2 -10 2923.93 288.311 3
0 -2 -10 2963.09 178.395 4
0 -1 -10 60515.6 1201.13 3
0 1 10 62768.2 1165.97 6
0 -1 -10 62609.2 1146.4 6
0 0 -10 36555.8 983.655 3
0 0 10 38867.3 900.681 6
0 0 -10 39122.4 963.251 6
0 1 -10 12726 590.443 6
0 -1 10 11777.6 537.106 6
0 1 -10 11777.3 584.65 3
0 -1 10 12475.7 574.649 1
0 -2 10 52892.7 1108.39 6
0 2 -10 51342.7 1179.59 3
0 -2 10 51485.1 1111.17 1
0 3 -10 14312.7 671.081 3
0 -3 10 14552.2 623.68 1
0 -3 10 15577.1 624.289 5
0 3 -10 16209.7 672.654 1
0 -3 10 15104.5 690.67 3
0 4 -10 9611.94 558.448 1
0 -4 10 8466.21 557.67 3
0 -4 10 7736.27 488.104 1
0 -4 10 8871.74 509.335 5
0 4 -10 7516.38 527.906 3
0 -5 10 7988.79 552.975 1
0 -5 10 7840.88 583.117 3
0 5 -10 7361.66 499.95 6
0 5 -10 6968.87 544.859 3
0 -6 10 40.163 164.193 3
0 -6 10 272.436 175.651 1
0 -7 10 441.014 210.23 1
0 7 -10 584.219 202.692 6
0 -7 10 534.579 251.243 3
0 -8 10 147.056 198.089 3
0 -8 10 389.019 208.681 1
0 8 -10 384.456 193.931 6
0 -9 10 121.804 190.222 3
0 9 -10 265.867 203.317 6
0 -9 10 196.994 203.161 1
0 10 11 525.004 225.412 5
0 9 11 199.901 179.909 5
0 -9 -11 374.848 169.487 4
0 -8 -11 442.848 153.156 4
0 8 11 95.6393 143.412 5
0 7 11 805.181 172.292 2
0 7 11 1203.01 244.659 5
0 -7 -11 1422.74 212.428 4
0 6 11 -46.4654 117.592 6
0 6 11 43.4107 113.133 5
0 -5 -11 5275.38 313.703 4
0 5 11 5316.82 411.529 5
0 5 11 5417.48 431.363 6
0 4 11 3116.56 295.241 5
0 -4 -11 3623.09 246.8 4
0 4 11 2536.15 289.495 6
0 -4 -11 4003.44 392.964 3
0 3 11 1595.59 211.894 6
0 3 11 2074.86 237.636 5
0 -3 -11 1633.66 124.674 2
0 -3 -11 1887.21 172.252 4
0 -3 -11 2042.11 277.693 3
0 2 11 20349 658.302 6
0 2 11 20336.2 670.784 5
0 -2 -11 22666.1 753.156 6
0 -2 -11 21138 758.976 3
0 -1 -11 2755.82 295.664 3
0 1 11 2786.82 276.747 6
0 -1 -11 2953.61 300.99 6
0 0 -11 1161.4 222.064 6
0 0 -11 583.249 164.579 3
0 0 11 813.607 165.65 6
0 1 -11 488.374 193.39 6
0 -1 11 -68.6164 171.046 1
0 1 -11 127.957 124.508 3
0 -1 11 576.759 169.844 6
0 2 -11 1627.27 234.055 6
0 2 -11 780.561 193.053 3
0 -2 11 797.602 201.787 3
0 -2 11 1087.6 202.835 6
0 -2 11 1102.97 223.862 1
0 3 -11 724.108 177.327 1
0 3 -11 152.361 129.01 3
0 -3 11 667.307 191.922 1
0 -3 11 272.956 152.055 3
0 4 -11 15546.5 691.067 6
0 -4 11 16768.9 727.409 1
0 -4 11 16492.9 791.312 3
0 4 -11 17927.6 774.684 1
0 4 -11 15606.8 775.316 3
0 -4 11 17440.5 728.882 5
0 5 -11 2152.55 292.698 6
0 -5 11 2287.85 316.177 1
0 -5 11 1925.37 322.68 3
0 -6 11 131.132 159.928 1
0 -6 11 314.655 201.973 3
0 6 -11 438.161 180.075 6
0 7 -11 4117.74 446.108 6
0 -7 11 4365.19 530.238 3
0 -7 11 4251.88 463.359 1
0 -8 11 394.947 211.099 1
0 8 -11 406.73 199.052 6
0 -8 11 378.191 231.549 3
0 9 -11 523.944 236.872 6
0 -9 11 363.142 246.079 3
0 -9 11 613.07 253.483 1
0 10 12 295.63 185.876 5
0 9 12 -93.4632 156.521 5
0 -9 -12 195.41 146.815 4
0 8 12 99.7899 148.094 5
0 -8 -12 249.758 139.016 4
0 -7 -12 188.439 122.666 4
0 7 12 112.539 138.21 5
0 6 12 36.2416 119.155 6
0 -6 -12 371.149 130.123 4
0 6 12 -13.2521 117.733 5
0 5 12 479.144 166.942 6
0 5 12 565.597 172.542 5
0 -5 -12 755.444 147.392 4
0 4 12 141.768 118.029 6
0 4 12 229.811 132.124 5
0 -4 -12 330.273 112.182 4
0 3 12 8950.95 490.315 5
0 -3 -12 7299.24 251.346 2
0 3 12 8286.73 463.945 6
0 -3 -12 8249.36 340.841 4
0 -3 -12 9799.7 532.046 6
0 -3 -12 9478.6 586.828 3
0 -2 -12 12489 592.995 6
0 -2 -12 9954.93 303.02 2
0 2 12 11545.4 530.427 6
0 2 12 11277.4 528.897 5
0 -2 -12 11909.5 603.056 3
0 -1 -12 4603.15 390.756 3
0 1 12 4496.26 344.858 6
0 -1 -12 4388.02 362.729 6
0 0 12 36919.1 942.749 6
0 0 -12 37250.4 1009.43 6
0 0 -12 35786.9 1051.09 3
0 -1 12 17173.9 682.023 6
0 -1 12 15822.6 697.868 1
0 1 -12 16189.4 716.234 6
0 1 -12 15401.8 727.583 3
0 -1 12 16213.2 726.17 3
0 -2 12 5443.32 426.078 1
0 2 -12 5398.63 407.665 6
0 -2 12 5689.02 411.845 6
0 2 -12 5554.35 445.774 3
0 -2 12 5238.22 430.161 3
0 -3 12 32898 1053.18 3
0 3 -12 34327.2 1111.07 3
0 -3 12 34418.9 1024.37 1
0 3 -12 31677.9 964.45 6
0 -4 12 3788.64 377.466 1
0 4 -12 3455.66 351.756 6
0 4 -12 3500.35 396.44 3
0 4 -12 3369.03 365.048 1
0 -4 12 3221.31 378.99 3
0 -5 12 1077.35 239.135 1
0 -5 12 965.68 248.467 3
0 5 -12 1311.96 245.929 6
0 6 -12 4222.21 434.624 6
0 -6 12 4443.93 509.036 3
0 -6 12 3908.32 433.116 1
0 -7 12 -156.595 223.623 3
0 7 -12 313.88 189.875 6
0 -7 12 -9.62635 147.452 1
0 -8 12 560.848 240.623 1
0 8 -12 676.316 226.737 6
0 -8 12 212.056 217.844 3
0 -9 12 148.029 185.453 1
0 9 -12 291.594 196.774 6
0 -9 12 -80.3063 205.156 3
0 10 13 130.459 194.742 5
0 -9 -13 141.165 150.387 4
0 9 13 -82.7892 150.7 5
0 8 13 -42.9895 141.634 5
0 -8 -13 186.753 135.906 4
0 -7 -13 683.336 174.419 4
0 7 13 715.697 208.947 5
0 -6 -13 1311.46 198.852 4
0 6 13 898.381 218.049 6
0 6 13 1112.94 232.474 5
0 -5 -13 266.3 112.252 4
0 5 13 110.844 114.527 6
0 5 13 244.069 133.034 5
0 4 13 8376.24 500.875 5
0 -4 -13 8446.81 397.534 4
0 4 13 8754.71 522.623 6
0 3 13 6050.94 420.806 6
0 -3 -13 6668.31 515.422 3
0 3 13 7037.38 461.04 5
0 -3 -13 7310.32 489.86 6
0 -2 -13 128.709 57.7408 2
0 2 13 253.461 127.873 6
0 -2 -13 145.333 139.528 6
0 -2 -13 356.906 147.999 3
0 -1 -13 4927.63 391.158 6
0 1 13 4890.38 412.503 3
0 -1 -13 4694.6 410.62 3
0 1 13 5094.24 367.343 6
0 0 13 3354.74 312.013 6
0 0 13 2817.33 326.878 3
0 0 -13 3643.81 346.634 6
0 0 -13 2941.03 336.359 3
0 -1 13 313.506 151.083 6
0 1 -13 371.663 198.946 6
0 -1 13 187.046 150.35 3
0 1 -13 -33.6464 122.373 3
0 -1 13 -7.49808 142.958 1
0 -2 13 1655.38 269.399 1
0 2 -13 1457.35 267.208 3
0 -2 13 2179.08 285.004 6
0 -2 13 1051.01 238.317 3
0 2 -13 2233.55 306.692 6
0 -3 13 2001.01 300.662 3
0 -3 13 1807.88 278.444 1
0 3 -13 1529.45 266.553 3
0 -4 13 -229.063 181.449 3
0 4 -13 154.134 136.838 6
0 -4 13 64.2338 151.436 1
0 5 -13 7669.27 557.129 6
0 -5 13 8409.37 648.077 3
0 -5 13 9091.87 606.296 1
0 -6 13 1934.71 360.72 3
0 -6 13 2100.84 342.49 1
0 6 -13 1813.6 306.791 6
0 7 -13 833.068 238.559 6
0 -7 13 1068.76 276.988 1
0 -7 13 1285.73 341.499 3
0 -8 13 2213.79 442.165 3
0 8 -13 2031.27 358.047 6
0 -8 13 2299.39 387.109 1
0 9 -13 111.082 172.665 6
0 -9 13 543.298 246.805 1
0 -9 13 30.7268 194.179 3
0 -9 -14 0.17622 133.851 4
0 9 14 -74.4125 149.284 5
0 8 14 120.863 157.042 5
0 -8 -14 104.614 126.333 4
0 -7 -14 256.022 138.614 4
0 7 14 37.0693 135.514 5
0 6 14 -0.15995 107.364 6
0 -6 -14 143.173 119.207 4
0 6 14 109.098 137.627 5
0 5 14 370.712 165.113 5
0 5 14 343.916 156.806 6
0 -5 -14 332.618 135.877 4
0 -4 -14 611.741 129.372 4
0 4 14 497.25 162.069 6
0 4 14 874.487 198.246 5
0 3 14 189.768 147.763 5
0 -3 -14 22.9008 49.5433 2
0 -3 -14 349.671 187.479 6
0 3 14 169.099 126.377 6
0 -2 -14 6906.38 276.17 2
0 -2 -14 8548.63 569.63 3
0 -2 -14 9147.62 567.181 6
0 2 14 7626.45 484.403 6
0 1 14 8100.31 461.464 6
0 -1 -14 9143.74 588 3
0 -1 -14 9099.19 547.044 6
0 1 14 8318.86 542.613 3
0 0 -14 1680.31 267.894 3
0 0 14 2032.64 257.077 6
0 0 -14 2250.91 288.032 6
0 0 14 1818.11 275.798 3
0 0 14 1753.28 128.706 4
0 1 -14 37452.6 1144.16 6
0 1 -14 36874.3 1214.64 3
0 -1 14 37306.5 1159.34 3
0 -1 14 36228.3 1132.42 1
0 2 -14 17561.2 859.786 3
0 2 -14 16209.1 792.217 6
0 -2 14 16887.8 827.519 3
0 -2 14 16586.4 796.127 1
0 -2 14 17369.2 770.568 6
0 -3 14 4909.05 436.497 1
0 3 -14 4998.17 435.537 6
0 3 -14 4689.41 463.442 3
0 -3 14 4884.94 463.045 3
0 -4 14 14357.9 762.882 1
0 4 -14 13573.1 720.332 6
0 -4 14 13677.5 773.795 3
0 5 -14 956.727 228.822 6
0 -5 14 710.471 238.332 3
0 -5 14 1085.03 256.191 1
0 6 -14 2164.02 342.71 6
0 -6 14 1578.81 334.755 3
0 -6 14 2457.5 382.788 1
0 7 -14 776.359 254.15 6
0 -7 14 1130.7 325.604 3
0 -7 14 844.478 259.581 1
0 -8 14 308.317 209.604 1
0 -8 14 165.187 229.993 3
0 8 -14 196.581 175.332 6
0 -9 14 -89.3313 219.751 3
0 -9 14 499.012 247.177 1
0 -9 -15 -49.4256 133.389 4
0 9 15 -351.806 201.564 5
0 8 15 362.948 194.324 5
0 -8 -15 343.661 165.305 4
0 -7 -15 -18.7133 106.322 4
0 7 15 -95.6162 147.932 5
0 6 15 1524.74 282.504 5
0 -6 -15 1474.33 225.705 4
0 5 15 1992.1 299.518 6
0 -5 -15 2160.9 240.16 4
0 5 15 2218.92 319.283 5
0 4 15 48.159 104.331 6
0 4 15 -26.738 108.052 5
0 3 15 6563.9 486.424 5
0 3 15 6468.15 464.624 6
0 -3 -15 7241.68 535.722 6
0 2 15 3441.75 347.499 6
0 -2 -15 3012.57 361.584 6
0 -2 -15 2678.85 181.09 2
0 -1 -15 154.481 136.253 3
0 1 15 145.016 144.094 3
0 1 15 139.368 111.27 6
0 -1 -15 196.887 156.703 6
0 0 15 2539.81 294.553 6
0 0 -15 2397.97 328.503 3
0 0 -15 2414.7 327.164 6
0 0 15 1393.36 124.234 4
0 0 15 2431.45 335.482 3
0 1 -15 766.667 232.78 6
0 -1 15 265.549 184.326 1
0 -1 15 594.108 188.762 6
0 1 -15 205.232 169.767 3
0 -1 15 140.805 167.87 3
0 -2 15 393.848 200.695 1
0 2 -15 586.999 210.726 3
0 -2 15 541.238 177.229 6
0 -2 15 269.246 184.297 3
0 2 -15 623.333 226.66 6
0 3 -15 5981.29 511.685 6
0 -3 15 5347.73 508.399 3
0 -3 15 6166.25 513.511 1
0 -4 15 624.532 218.892 1
0 -4 15 672.683 224.882 3
0 -5 15 -88.9721 203.154 3
0 5 -15 126.871 131.578 6
0 -5 15 155.997 171.511 1
0 -6 15 5413.57 583.291 3
0 6 -15 4728.45 498.023 6
0 -6 15 5556.74 552.279 1
0 -7 15 1043.52 329.033 3
0 7 -15 946.618 261.493 6
0 -7 15 1156.77 288.235 1
0 8 -15 368.66 209.648 6
0 -8 15 211.767 194.846 1
0 -8 15 282.468 242.133 3
0 -9 -16 88.6002 159.934 4
0 9 16 -106.656 167.555 5
0 -8 -16 -1.16057 122.268 4
0 8 16 42.5062 152.76 5
0 -7 -16 93.1853 124.539 4
0 7 16 42.2272 134.592 5
0 6 16 154.328 155.129 5
0 -6 -16 154.024 123.437 4
0 -5 -16 -105.498 105.875 4
0 5 16 85.6697 129.804 6
0 5 16 41.8844 139.366 5
0 4 16 429.521 168.186 6
0 4 16 708.173 200.83 5
0 3 16 1427.33 248.681 6
0 3 16 2183.09 305.241 5
0 -3 -16 2256.56 335.436 6
0 -2 -16 849.733 230.406 6
0 2 16 808.652 188.973 6
0 -2 -16 702.044 109.497 2
0 1 16 14303.4 638.682 6
0 -1 -16 14508.8 728.37 6
0 1 16 14686.4 762.545 3
0 0 16 14266 665.98 6
0 0 16 15050 349.985 4
0 0 16 13447.6 739.191 3
0 0 -16 14350.2 731.659 6
0 -1 16 2908.42 367.541 3
0 -1 16 3852.16 373.134 6
0 -1 16 2666.64 358.191 1
0 1 -16 3270.69 384.624 6
0 2 -16 16740.7 873.694 6
0 -2 16 16617.3 886.795 3
0 -2 16 17644.3 886.935 1
0 -3 16 6333.54 568.898 3
0 3 -16 6942.75 586.893 6
0 -3 16 5491.34 498.702 1
0 -4 16 2785.32 404.279 3
0 4 -16 2913.78 384.466 6
0 -4 16 2966.94 400.033 1
0 -5 16 6810.35 591.063 1
0 5 -16 6886.25 596.199 6
0 -5 16 7166.25 635.929 3
0 -6 16 -77.3437 188.572 3
0 6 -16 499.317 218.89 6
0 -6 16 612.551 245.486 1
0 -7 16 623.967 256.6 1
0 7 -16 349.337 203.943 6
0 -7 16 76.2712 201.654 3
0 8 -16 74.2461 170.002 6
0 -8 16 654.562 311.824 3
0 -8 16 253.143 205.376 1
0 9 17 222.837 198.798 5
0 -8 -17 194.55 153.354 4
0 8 17 582.125 230.297 5
0 7 17 357.24 196.188 5
0 -7 -17 250.305 142.636 4
0 -6 -17 -36.6289 107.274 4
0 6 17 158.196 166.625 5
0 5 17 1652.23 296.337 5
0 5 17 1704.07 290.333 6
0 4 17 1813.36 282.411 6
0 4 17 2068.79 322.441 5
0 3 17 288.53 162.826 5
0 -3 -17 178.129 168.264 6
0 -3 -17 10.0132 37.8055 2
0 3 17 -51.3282 120.53 6
0 -2 -17 1907.8 161.822 2
0 -2 -17 2271.97 344.601 6
0 2 17 2401.78 292.199 6
0 -1 -17 2886.19 359.73 6
0 1 17 3252.97 323.854 6
0 1 17 2951.28 372.373 3
0 0 17 539.2 166.073 6
0 0 17 54.9091 149.812 3
0 0 -17 200.811 171.807 6
0 1 -17 739.974 242.577 6
0 -1 17 524.228 217.431 3
0 -1 17 -6.90418 161.851 1
0 2 -17 293.101 193.419 6
0 -2 17 -333.485 232.272 1
0 -2 17 -337.534 223.625 3
0 -3 17 84.0252 158.767 1
0 3 -17 156.575 181.196 6
0 -3 17 -243.951 224.948 3
0 -4 17 1535.12 333.158 3
0 -4 17 2176.49 366.439 1
0 4 -17 2185.58 365.275 6
0 -5 17 2430.68 387.658 1
0 5 -17 2750.54 404.758 6
0 -5 17 3118.59 448.46 3
0 -6 17 317.995 218.76 3
0 6 -17 205.394 183.878 6
0 -6 17 358.37 197.896 1
0 -7 17 2992.76 460.881 1
0 7 -17 2504.33 418.633 6
0 -7 17 2423.63 451.974 3
0 -8 17 932.133 293.101 1
0 -8 17 513.613 281.13 3
0 8 18 25.0878 144.437 5
0 -7 -18 -158.212 130.447 4
0 7 18 304.89 185.174 5
0 6 18 -54.8893 138.318 5
0 5 18 -63.7271 154.531 5
0 4 18 -5.04171 127.901 6
0 4 18 452.207 191.233 5
0 3 18 1937.76 293.18 6
0 -3 -18 2184.42 362.321 6
0 3 18 1821.57 314.651 5
0 -2 -18 1481.05 143.767 2
0 -2 -18 1821.1 321.152 6
0 2 18 1646.82 248.634 6
0 1 18 439.684 156.193 6
0 1 18 70.3359 144.013 3
0 -1 -18 345.452 194.679 6
0 0 18 9722.55 670.939 3
0 0 -18 9495.07 642.296 6
0 -1 18 9435.7 663.251 3
0 1 -18 10080.5 665.829 6
0 -1 18 9543.48 661.397 1
0 2 -18 3136.88 418.274 6
0 -2 18 2870.01 406.396 3
0 -2 18 2726.27 391.671 1
0 3 -18 13051.2 874.768 6
0 -3 18 13974.1 918.067 3
0 -3 18 12802.1 804.586 1
0 4 -18 3578.14 488.611 6
0 -4 18 3559.9 463.532 1
0 -4 18 3495.54 478.829 3
0 5 -18 915.226 277.655 6
0 -5 18 1014.88 287.563 1
0 -5 18 831.302 254.462 3
0 -6 18 2952.97 456.971 1
0 6 -18 2247.66 397.444 6
0 -6 18 2689.03 455.356 3
0 7 -18 350.933 227.193 6
0 -7 18 472.129 250.423 1
0 -7 18 -17.931 210.957 3
0 -8 18 259.367 248.45 3
0 8 19 299.9 208.589 5
0 7 19 220.788 182.265 5
0 6 19 424.588 200.352 5
0 5 19 -200.672 164.73 5
0 4 19 1434.19 296.049 5
0 -3 -19 2057.49 366.31 6
0 3 19 1750.34 317.76 5
0 -2 -19 -70.9509 175.753 6
0 -2 -19 -41.8441 62.2853 2
0 -1 -19 2896.61 389.87 6
0 1 19 2718.03 384.387 3
0 0 -19 972.351 248.834 6
0 0 19 629.326 222.884 3
0 -1 19 70.9095 161.425 3
0 1 -19 389.102 192.486 6
0 -1 19 321.505 199.68 1
0 -1 19 112.368 49.3465 4
0 2 -19 544.885 251.519 6
0 -2 19 -202.149 230.312 3
0 -2 19 -53.4853 205.428 1
0 -3 19 82.5872 180.846 1
0 -3 19 -290.929 278.498 3
0 -4 19 37.594 170.813 1
0 -4 19 2.46343 191.107 3
0 4 -19 456.658 250.15 6
0 -5 19 3184.87 475.529 1
0 5 -19 2963.89 467.724 6
0 -5 19 2610.32 461.463 3
0 -6 19 1904.18 400.966 3
0 -6 19 2082.63 400.409 1
0 6 -19 1349.46 329.249 6
0 -7 19 158.948 201.322 3
0 7 -19 262.937 219.791 6
0 -7 19 167.302 213.053 1
0 8 20 152.03 183.666 5
0 7 20 326.567 200.734 5
0 6 20 40.7067 150.291 5
0 5 20 41.907 165.806 5
0 4 20 372.385 191.566 5
0 3 20 20.1225 146.832 5
0 -3 -20 81.7681 171.438 6
0 -2 -20 1156.97 298.154 6
0 -2 -20 903.765 115.195 2
0 1 20 5726.16 549.534 3
0 -1 -20 5656.94 531.253 6
0 0 -20 1843.88 328.946 6
0 0 20 1154.09 279.209 3
0 0 20 949.873 239.079 1
0 -1 20 8609.81 667.14 1
0 1 -20 8963.03 660.817 6
0 -1 20 9613.04 709.534 3
0 2 -20 4462.55 512.424 6
0 -2 20 4248.91 507.312 1
0 -2 20 4888.44 538.907 3
0 -3 20 255.401 205.022 3
0 -3 20 475.625 223.731 1
0 3 -20 292.926 211.285 6
0 -4 20 7314.84 690.86 1
0 -4 20 7652.87 757.443 3
0 4 -20 7246.83 735.573 6
0 -5 20 956.705 318.286 3
0 -5 20 1331.11 346.325 1
0 5 -20 1541.05 372.491 6
0 6 -20 362.782 227.759 6
0 -6 20 185.337 220.271 3
0 -6 20 524.194 268.88 1
0 -7 20 1126.26 351.823 3
0 -7 20 779.942 306.372 1
0 7 21 268.222 203.026 5
0 6 21 515.483 240.26 5
0 5 21 488.709 217.876 5
0 4 21 -25.9931 153.154 5
0 3 21 1310.33 291.147 5
0 -3 -21 1391.73 326.131 6
0 -2 -21 1419.08 314.57 6
0 -1 -21 150.823 185.128 6
0 1 21 279.663 181.919 3
0 0 -21 1080.06 272.801 6
0 0 21 590.968 239.929 1
0 0 21 918.273 271.161 3
0 1 -21 731.473 247.169 6
0 -1 21 634.205 233.351 3
0 -1 21 610.987 238.94 1
0 -2 21 -78.8371 191.757 3
0 2 -21 309.504 204.706 6
0 -2 21 -119.083 194.818 1
0 -3 21 -39.63 239.116 3
0 -3 21 353.272 234.583 1
0 -4 21 429.58 277.231 3
0 -4 21 679.979 278.63 1
0 4 -21 833.149 312.578 6
0 5 -21 81.4012 197.179 6
0 -5 21 -106.785 222.101 3
0 -5 21 60.6016 193.395 1
0 -6 21 975.605 339.942 3
0 -6 21 1209.3 336.735 1
0 6 -21 1075.99 348.514 6
0 7 22 343.731 217.265 5
0 6 22 12.1944 184.616 5
0 5 22 220.457 201.544 5
0 4 22 211.649 184.089 5
0 -3 -22 627.245 253.546 6
0 3 22 335.198 179.257 5
0 -2 -22 447.48 240.496 6
0 2 22 270.971 182.813 5
0 1 22 3079.37 433.593 3
0 -1 -22 2993.66 433.357 6
0 0 22 1404.12 300.178 1
0 0 22 1844.07 347.268 3
0 0 -22 1587.88 320.428 6
0 -1 22 -346.607 213.439 1
0 -1 22 -243.756 204.454 3
0 1 -22 287.125 209.416 6
0 -2 22 7403.1 683.166 1
0 -2 22 8279.08 720.577 3
0 2 -22 7399.94 670.462 6
0 -3 22 3777.15 501.33 1
0 -3 22 3885.23 550.364 3
0 3 -22 3648.05 520.35 6
0 -4 22 649.094 286.451 1
0 4 -22 354.728 248.728 6
0 -4 22 289.44 244.128 3
0 5 -22 1729.68 415.165 6
0 -5 22 1714.19 408.765 1
0 -5 22 1885.33 443.685 3
0 -6 22 825.181 311.658 1
0 -6 22 34.4181 215.434 3
0 6 23 -106.953 177.514 5
0 5 23 -70.8427 167.877 5
0 4 23 303.06 199.226 5
0 -3 -23 -21.9706 171.355 6
0 3 23 71.6897 152.548 5
0 -2 -23 1641.86 352.793 6
0 2 23 1813.04 346.285 5
0 1 23 1055.1 288.299 3
0 -1 -23 1356.56 313.063 6
0 0 -23 -69.0594 161.088 6
0 0 23 -72.6884 188.056 3
0 0 23 -515.441 258.781 1
0 -1 23 503.089 240.225 1
0 1 -23 634.134 268.775 6
0 -1 23 161.324 206.386 3
0 2 -23 217.789 202.988 6
0 -2 23 -44.5097 184.326 3
0 -2 23 -96.6644 216.827 1
0 -3 23 -231.553 238.98 3
0 -3 23 -217.51 210.991 1
0 3 -23 -174.375 222.317 6
0 -4 23 359.742 259.64 3
0 -4 23 371.119 256.671 1
0 4 -23 670.038 307.868 6
0 -5 23 535.507 283.49 3
0 5 -23 600.381 294 6
0 -5 23 659.35 289.389 1
0 6 24 -310.741 219.143 5
0 5 24 250.02 209.366 5
0 4 24 205.399 188.722 5
0 -3 -24 448.542 231.584 6
0 3 24 333.009 201.314 5
0 -2 -24 500.288 250.085 6
0 2 24 397.334 197.906 5
0 -1 -24 375.742 222.448 6
0 0 -24 2603.79 412.964 6
0 0 24 2029.45 387.21 3
0 0 24 1617.41 348.963 1
0 1 -24 3250.59 470.041 6
0 -1 24 3269.27 489.068 3
0 -1 24 3622.76 501.528 1
0 2 -24 114.629 178.405 6
0 -2 24 111.813 190.007 3
0 -2 24 -348.953 254.828 1
0 -3 24 3532.52 500.726 1
0 -3 24 4293.65 582.836 3
0 3 -24 3974.55 556.098 6
0 -4 24 1206.36 350.565 1
0 -4 24 872.088 322.51 3
0 4 -24 1047.43 336.516 6
0 -5 24 21.417 191.16 1
0 5 25 114.515 176.688 5
0 4 25 522.123 247.492 5
0 -3 -25 270.835 221.185 6
0 3 25 617.271 245.069 5
0 -2 -25 126.357 189.784 6
0 2 25 341.836 195.511 5
0 -1 -25 821.697 292.767 6
0 0 -25 1017.99 293.538 6
0 0 25 634.567 250.779 3
0 0 25 798.732 271.639 1
0 1 -25 332.512 207.712 6
0 -1 25 25.6225 180.459 1
0 -1 25 -185.297 215.597 3
0 2 -25 465.28 249.745 6
0 -2 25 14.1834 191.224 3
0 -2 25 63.7131 175.443 1
0 -3 25 479.235 250.207 1
0 -3 25 -168.92 227.775 3
0 3 -25 140.662 176.914 6
0 4 -25 324.428 261.829 6
0 -4 25 -30.6508 191.4 1
0 4 26 -43.4617 162.868 5
0 3 26 114.063 194.257 5
0 -2 -26 600.307 265.691 6
0 2 26 539.822 249.094 5
0 1 26 395.231 233.08 1
0 -1 -26 872.446 287.771 6
0 0 26 111.679 179.997 3
0 0 -26 -126.609 192.489 6
0 0 26 -447.455 261.538 1
0 -1 26 2605.05 459.077 1
0 -1 26 2709.41 453.315 3
0 1 -26 2563.09 439.586 6
0 -2 26 975.289 317.12 3
0 2 -26 647.754 272.512 6
0 -2 26 767.998 278.98 1
0 3 -26 203.801 217.39 6
0 -3 26 212.421 210.64 1
0 -2 -27 588.037 283.531 6
0 2 27 710.622 279.162 5
0 -1 -27 -179.686 201.01 6
0 1 27 119.608 180.129 1
0 0 -27 115.808 180.718 6
0 0 27 495.461 251.603 1
0 1 -27 73.3555 189.101 6
0 -1 27 -178.395 194.902 1
0 -2 27 -230.862 224.93 1
0 2 -27 3.5879 192.665 6
0 -1 -28 305.818 232.121 6
0 0 -28 420.772 254.74 6
0 1 -28 -89.959 177.642 6
-1 2 -27 19.3297 176.789 6
1 -2 27 220.618 188.099 1
1 -1 27 108.932 180.333 1
-1 1 -27 387.77 226.733 6
1 0 27 -17.9971 167.596 1
1 1 27 -83.3834 166.648 1
1 2 27 186.353 193.726 5
1 2 27 246.102 218.331 1
1 -4 26 1787.22 427.328 1
-1 3 -26 217.157 218.717 6
1 -3 26 -131.665 185.976 1
-1 2 -26 1220.79 324.605 6
1 -2 26 1580.51 346.298 1
1 -1 26 218.868 184.958 1
-1 1 -26 425.827 232.252 6
-1 0 -26 158.784 175.389 6
1 0 26 -50.6088 173.18 1
1 1 26 128.267 169.177 1
1 2 26 46.9714 137.211 5
1 3 26 130.545 169.071 5
1 -5 25 -136.217 240.736 1
-1 4 -25 -175.331 229.944 6
1 -4 25 198.64 206.743 1
1 -3 25 399.201 252.454 1
-1 3 -25 694.707 283.55 6
1 -2 25 10.1284 168.127 1
-1 2 -25 416.985 238.125 6
1 -1 25 -68.2145 183.12 3
1 -1 25 -344.808 220.572 1
-1 1 -25 -70.8128 164.728 6
-1 0 -25 160.522 153.395 6
1 0 25 197.405 193.85 1
1 0 25 392.799 213.514 3
1 1 25 427.179 207.6 1
1 2 25 88.2163 148.376 5
1 3 25 570.803 234.096 5
1 4 25 394.783 194.441 5
1 -5 24 41.2347 190.475 1
1 -4 24 253.826 212.041 1
-1 4 -24 638.042 303.716 6
1 -3 24 978.304 322.428 1
-1 3 -24 1412.29 358.918 6
1 -3 24 1761.61 421.063 3
1 -2 24 -23.9694 196.258 3
-1 2 -24 -70.2788 163.751 6
1 -1 24 1119.84 305.251 1
-1 1 -24 1421.32 321.913 6
1 -1 24 1882.73 393.648 3
1 0 24 1534.95 353.865 3
-1 0 -24 1401.11 304.269 6
1 0 24 1302.11 302.942 1
1 1 24 -318.121 200.296 1
1 1 24 123.203 174.56 3
-1 -1 -24 255.572 179.241 6
1 2 24 620.068 223.096 5
1 3 24 361.461 214.596 5
1 4 24 375.299 201.32 5
1 -6 23 38.8521 198.828 1
-1 5 -23 373.041 260.158 6
1 -5 23 133.33 181.452 1
1 -4 23 1075.56 313.477 1
-1 4 -23 922.836 333.68 6
1 -4 23 887.743 349.356 3
-1 3 -23 -265.44 236.23 6
1 -3 23 244.592 202.649 1
1 -3 23 -434.731 294.358 3
1 -2 23 122.673 217.859 3
1 -2 23 -248.525 221.3 1
-1 2 -23 503.883 236.363 6
1 -1 23 181.507 197.911 1
1 -1 23 236.8 230.408 3
-1 1 -23 555.413 230.15 6
1 0 23 -242.719 201.239 3
-1 0 -23 215.719 172.868 6
1 0 23 81.0532 151.583 1
1 1 23 646.225 251.424 3
-1 -1 -23 741.842 238.921 6
1 2 23 740.977 225.088 5
-1 -2 -23 477.95 224.041 6
1 3 23 67.6628 140.245 5
1 4 23 458.737 200.184 5
1 5 23 -50.7925 148.347 5
1 -6 22 -43.087 191.077 1
1 -5 22 918.357 304.6 1
-1 5 -22 1375.37 376.597 6
1 -5 22 484.576 316.629 3
1 -4 22 442.14 245.995 1
-1 4 -22 226.201 218.145 6
-1 3 -22 2259.24 425.009 6
1 -3 22 2130.3 387.964 1
1 -3 22 1684.36 413.744 3
1 -2 22 4291.21 568.707 3
1 -2 22 3595.54 473.38 1
-1 2 -22 4002.24 504.654 6
1 -1 22 -331.279 232.21 3
1 -1 22 -367.824 244.966 1
-1 1 -22 189.702 165.907 6
1 0 22 2536.17 418.85 3
-1 0 -22 2485.55 357.76 6
1 0 22 2169.15 352.521 1
1 1 22 2367.37 402.195 3
-1 -1 -22 2238.33 341.559 6
-1 -2 -22 37.5437 156.409 6
1 2 22 -60.5668 116.22 5
1 3 22 648.683 217.119 5
1 4 22 329.252 174.664 5
1 5 22 -144.737 163.281 5
1 -7 21 650.531 288.113 1
-1 6 -21 1156.29 337.918 6
1 -6 21 1449.77 372.841 1
1 -5 21 306.777 223.883 1
1 -5 21 54.9111 214.209 3
-1 5 -21 -204.882 218.443 6
1 -4 21 373.826 242.777 3
-1 4 -21 1207.76 347.604 6
1 -4 21 839.586 286.005 1
1 -3 21 -228.823 257.464 3
-1 3 -21 457.661 263.74 6
1 -3 21 37.4793 184.705 1
1 -2 21 -155.484 219.94 3
1 -2 21 -135.605 208.499 1
-1 2 -21 -224.76 194.438 6
-1 1 -21 263.474 192.767 6
1 -1 21 -68.1481 171.305 1
1 -1 21 239.47 203.05 3
1 0 21 537.841 238.782 3
-1 0 -21 675.267 225.675 6
1 0 21 266.607 187.576 1
1 1 21 -30.8282 160.49 3
-1 -1 -21 59.4659 146.784 6
-1 -2 -21 231.85 121.168 2
-1 -2 -21 386.221 187.177 6
-1 -3 -21 368.995 182.987 6
1 3 21 351.971 181.702 5
1 4 21 178.537 153.944 5
1 5 21 172.32 168.474 5
1 6 21 1.24347 151.577 5
1 -7 20 542.451 258.308 1
1 -6 20 -37.158 212.827 3
1 -6 20 421.572 238.396 1
-1 6 -20 246.325 204.857 6
1 -5 20 530.187 282.828 3
-1 5 -20 779.654 276.221 6
1 -5 20 727.638 260.628 1
1 -4 20 4236.84 521.268 1
-1 4 -20 3959.19 521.838 6
1 -4 20 4023.93 590.479 3
-1 3 -20 213.88 209.008 6
1 -3 20 26.9936 199.934 3
1 -3 20 91.1681 158.65 1
-1 2 -20 3551.98 464.113 6
1 -2 20 3145.74 418.206 1
1 -2 20 3837.96 517.027 3
1 -1 20 7236.56 601.431 1
1 -1 20 8237.99 686.515 3
-1 1 -20 7996.27 612.186 6
1 0 20 -420.642 247.097 1
-1 0 -20 -6.20137 137.34 6
1 0 20 -325.512 211.84 3
1 1 20 1339.97 218.268 6
-1 -1 -20 1787.34 297.897 6
1 1 20 1639.97 332.556 3
-1 -2 -20 2124.33 329.067 6
-1 -3 -20 2.25348 139.616 6
1 3 20 -56.7236 136.469 5
-1 -3 -20 -44.6483 85.9668 2
1 4 20 103.168 125.415 5
1 5 20 197.182 160.364 5
1 6 20 214.993 176.557 5
1 -7 19 33.4341 178.502 1
-1 6 -19 1360.26 321.591 6
1 -6 19 1536.56 392.08 3
1 -6 19 1426.95 326.399 1
-1 5 -19 1646.46 348.649 6
1 -5 19 1482.57 328.385 1
1 -5 19 1442.38 381.992 3
1 -4 19 171.745 212.65 3
1 -4 19 273.168 205.606 1
-1 4 -19 209.664 194.072 6
1 -3 19 260.984 214.377 3
-1 3 -19 1149.18 303.468 6
1 -3 19 829.329 245.698 1
1 -3 19 854.303 96.9731 4
1 -2 19 303.635 192.551 1
1 -2 19 152.012 198.219 3
-1 2 -19 743.258 259.16 6
1 -1 19 516.073 221.627 3
1 -1 19 315.328 196.43 1
-1 1 -19 354.42 192.688 6
-1 0 -19 297.638 179.319 6
1 0 19 89.0339 135.494 1
1 0 19 170.006 176.96 3
1 1 19 298.962 137.746 6
-1 -1 -19 202.86 150.19 6
1 1 19 343.472 198.215 3
1 2 19 203.548 110.387 6
-1 -2 -19 298.644 178.794 6
-1 -3 -19 1525.38 210.152 2
-1 -3 -19 1366.54 260.035 6
1 3 19 1301.38 261.282 5
-1 -4 -19 457.697 122.505 2
1 4 19 953.021 236.127 5
1 5 19 57.6701 127.499 5
1 6 19 971.052 265.433 5
1 7 19 20.2686 125.07 5
1 -8 18 -61.4711 177.848 1
1 -7 18 231.762 204.617 1
-1 7 -18 159.321 180.647 6
1 -7 18 334.863 246.744 3
1 -6 18 1393.27 364.377 3
1 -6 18 1631.74 346.032 1
-1 6 -18 1818.3 366.24 6
-1 5 -18 633.906 233.369 6
1 -5 18 993.272 264.256 1
1 -5 18 866.898 304.208 3
-1 4 -18 2583.89 381.81 6
1 -4 18 2105.41 357.766 1
1 -4 18 1824.36 400.943 3
1 -3 18 7981.2 622.221 1
1 -3 18 6521.05 250.882 4
-1 3 -18 8157.63 641.985 6
1 -3 18 8895.58 777.575 3
1 -2 18 850.115 262.272 3
-1 2 -18 1162.91 278.51 6
1 -2 18 1410.95 282.676 1
-1 1 -18 3193.79 381.118 6
1 -1 18 3672.1 450.167 3
1 -1 18 3124.23 383.667 1
1 0 18 8852.29 670.045 3
1 0 18 7687.32 555.588 1
-1 0 -18 8171.17 542.163 6
1 1 18 -44.4896 92.2725 6
-1 -1 -18 -47.8751 124.526 6
1 1 18 -145.188 168.194 3
1 2 18 2184.94 245.316 6
-1 -2 -18 2349.27 320.839 6
-1 -3 -18 792.634 222.285 6
1 3 18 547.013 192.435 5
1 3 18 990.16 165.532 6
-1 -3 -18 826.34 170.108 2
1 4 18 222.114 155.598 5
-1 -4 -18 -45.9655 103.183 2
1 5 18 175.082 153.226 5
1 6 18 -86.6836 137.656 5
1 7 18 -43.109 126.219 5
1 -8 17 66.3287 159.073 1
-1 7 -17 1949.91 385.478 6
1 -7 17 2155.41 452.332 3
1 -7 17 2183.98 382.816 1
1 -6 17 18.6935 150.933 1
-1 6 -17 -85.3048 172.468 6
1 -6 17 -464.223 246.939 3
-1 5 -17 2319.8 360.358 6
1 -5 17 3175.6 484.829 3
1 -5 17 3236.83 414.131 1
-1 4 -17 2795.48 383.603 6
1 -4 17 2831.67 391.18 1
1 -4 17 2336.67 425.509 3
-1 3 -17 326.18 199.035 6
1 -3 17 -214.899 202.516 3
1 -3 17 50.2574 155.794 1
1 -2 17 2421.24 396.415 3
1 -2 17 1675.76 284.054 1
-1 2 -17 2574.55 369.43 6
1 -1 17 -117.909 170.934 1
1 -1 17 443.138 208.866 3
-1 1 -17 436.277 202.719 6
-1 0 -17 396.826 169.582 6
1 0 17 158.19 167.442 3
1 0 17 294.269 138.24 6
-1 -1 -17 2128.54 280.063 6
1 1 17 2253.32 260.22 6
1 1 17 2431.92 356.616 3
-1 -2 -17 2230.81 302.199 6
1 2 17 2316.02 244.584 6
1 3 17 -70.6615 130.2 5
1 3 17 87.0947 93.0602 6
-1 -3 -17 -63.7468 100.252 2
-1 -3 -17 123.901 127.44 6
-1 -4 -17 1737.63 222.982 2
1 4 17 1512.19 194.261 6
-1 -5 -17 868.2 145.177 4
1 5 17 887.132 227.66 5
-1 -5 -17 852.777 160.546 2
1 6 17 66.0895 121.327 5
1 7 17 302.607 168.131 5
1 -8 16 260.098 196.642 1
1 -8 16 214.501 241.983 3
-1 8 -16 253.017 197.112 6
-1 7 -16 931.871 282.313 6
1 -7 16 774.769 310.287 3
1 -7 16 1027.45 280.219 1
1 -6 16 328.588 237.619 3
1 -6 16 365.802 199.343 1
-1 6 -16 277.697 190.553 6
-1 5 -16 3604.56 437.41 6
1 -5 16 4219.25 458.201 1
1 -5 16 3644.78 492.541 3
1 -4 16 1926.4 313.711 1
-1 4 -16 2268.72 337.884 6
1 -4 16 2079.45 378.516 3
1 -3 16 481.89 239.636 3
1 -3 16 932.201 229.534 1
-1 2 -16 12963.8 719.109 6
1 -2 16 12579.3 695.167 1
1 -2 16 12799.1 829.346 3
-1 1 -16 75.7869 142.494 6
1 -1 16 -61.2132 167.585 3
1 -1 16 -47.4492 143.133 1
-1 0 -16 9827.58 558.788 6
1 0 16 9868.76 540.732 6
1 0 16 8867.59 626.091 3
1 1 16 6520.47 536.845 3
1 1 16 7043.53 429.86 6
-1 -1 -16 6478.59 445.211 6
1 2 16 64.3598 92.9529 6
-1 -2 -16 -66.508 122.493 6
-1 -3 -16 2060.99 234.776 2
-1 -3 -16 2423.33 299.559 6
1 3 16 2623.97 320.444 5
1 3 16 1982.13 207.933 6
1 4 16 970.621 161.719 6
-1 -4 -16 1080.05 139.405 4
-1 -4 -16 1372.13 195.489 2
-1 -5 -16 27.8085 93.0818 2
-1 -5 -16 67.5336 95.2579 4
1 5 16 -10.8688 125.728 5
1 6 16 133.763 121.309 5
-1 -6 -16 123.894 102.592 4
1 7 16 -156.242 144.336 5
-1 -7 -16 103.309 119.605 4
1 8 16 41.0939 124.991 5
-1 8 -15 232.93 179.343 6
1 -8 15 387.609 212.372 1
1 -8 15 204.422 253.019 3
1 -7 15 1818.36 329.119 1
-1 7 -15 1477.96 320.127 6
1 -7 15 2004.85 423.38 3
1 -6 15 3598.89 505.394 3
1 -6 15 3004.16 396.036 1
-1 6 -15 2925.4 403.723 6
1 -5 15 487.517 207.689 1
-1 5 -15 352.78 181.686 6
1 -5 15 557.318 244.03 3
-1 4 -15 3582.33 396.051 6
1 -4 15 4270.61 489.508 3
1 -4 15 4166.81 413.083 1
1 -3 15 2659.28 330.833 1
1 -3 15 2228.62 367.581 3
-1 3 -15 2898.88 344.968 6
1 -2 15 164.53 58.3294 4
1 -2 15 162.975 184.368 3
-1 2 -15 282.292 162.294 6
1 -2 15 100.218 149.057 1
-1 1 -15 368.414 183.963 6
1 -1 15 12.0457 136.126 1
1 -1 15 2.25686 142.593 3
1 0 15 1007.28 250.955 3
1 0 15 1041.34 196.291 6
-1 0 -15 1484.94 249.413 6
1 1 15 71.9891 151.837 3
1 1 15 100.719 96.2843 6
-1 -1 -15 192.369 143.161 6
1 2 15 1579.24 196.906 6
-1 -2 -15 1434.4 237.992 6
1 2 15 1404.94 281.984 3
-1 -3 -15 3175.09 279.991 2
1 3 15 2984.6 248.299 6
-1 -3 -15 3879.52 343.554 6
1 3 15 3531.77 352.318 5
1 4 15 183.454 106.059 6
-1 -4 -15 301.967 97.1577 4
-1 -4 -15 149.873 100.087 2
-1 -5 -15 1436.86 201.413 2
-1 -5 -15 1938.1 200.46 4
1 5 15 1099.38 182.427 6
1 5 15 2096.91 289.405 5
-1 -6 -15 568.853 139.965 4
1 6 15 307.135 155.371 5
1 7 15 -173.908 136.782 5
-1 -7 -15 134.755 104.796 4
1 8 15 366.314 164.088 5
-1 -8 -15 332.168 157.884 4
1 -9 14 121.001 183.617 1
1 -8 14 16.0441 214.641 3
-1 8 -14 536.63 243.232 6
1 -8 14 667.581 246.537 1
-1 7 -14 820.396 262.481 6
1 -7 14 713.362 238.487 1
1 -7 14 663.851 300.349 3
1 -6 14 1054.51 258.32 1
1 -6 14 711.164 278.68 3
-1 6 -14 1157.79 276.841 6
1 -5 14 211.754 155.855 1
1 -5 14 -108.843 167.008 3
-1 5 -14 349.074 190.656 6
-1 4 -14 4857.93 439.446 6
1 -4 14 4360.49 485.697 3
1 -4 14 4988.25 434.815 1
1 -3 14 503.335 177.739 1
-1 3 -14 452.082 168.295 6
1 -3 14 446.773 193.999 3
1 -2 14 13929.8 325.227 4
1 -2 14 15092.3 693.931 1
-1 2 -14 15038.8 681.803 6
1 -2 14 15921.5 857.776 3
1 -1 14 16989.8 844.504 3
-1 1 -14 16228.1 724.826 6
1 -1 14 15214.9 697.506 1
-1 0 -14 1515.94 238.035 6
1 0 14 1216.12 188.451 6
-1 0 -14 1064.64 234.178 3
1 0 14 985.433 221.068 3
1 1 14 12900.9 530.37 6
1 1 14 11857.9 675.37 3
-1 -1 -14 12205 557.238 6
1 2 14 14245.7 747.721 3
-1 -2 -14 16126 656.904 6
1 2 14 16148.9 551.271 6
-1 -3 -14 67.2603 59.1471 4
1 3 14 219.481 98.3318 6
-1 -3 -14 9.89521 96.1135 2
1 3 14 30.4957 112 5
-1 -4 -14 1065.72 176.058 2
-1 -4 -14 1443.51 152.512 4
1 4 14 833.907 153.456 6
1 4 14 1557.62 232.017 5
-1 -5 -14 599.106 127.433 4
1 5 14 408.055 124.694 6
1 5 14 389.02 156.217 5
-1 -5 -14 404.935 133.981 2
-1 -6 -14 202.941 103.617 4
1 6 14 -79.693 119.772 5
1 7 14 63.4956 113.783 5
1 8 14 -21.1745 119.75 5
-1 -8 -14 388.45 150.395 4
-1 -9 -14 287.458 155.444 4
1 -9 13 294.232 206.682 1
-1 8 -13 1701.65 349.827 6
1 -8 13 1661.78 404.766 3
1 -8 13 1884 342.524 1
1 -7 13 495.39 198.517 1
1 -7 13 223.396 217.727 3
-1 7 -13 564.5 216.347 6
1 -6 13 624.84 246.088 3
1 -6 13 824.006 221.782 1
-1 6 -13 805.122 232.044 6
1 -5 13 5106.27 544.326 3
-1 5 -13 4815.87 458.186 6
1 -5 13 5385.65 471.766 1
1 -4 13 -103.555 202.046 3
-1 4 -13 11.2242 124.942 1
-1 4 -13 442.93 185.319 6
1 -4 13 255.577 153.588 1
1 -3 13 5088.87 404.912 1
1 -3 13 5197.38 413.724 5
-1 3 -13 5331.58 417.059 6
1 -3 13 4897.35 471.107 3
1 -2 13 160.256 166.984 3
-1 2 -13 417.998 205.521 3
1 -2 13 422.137 174.587 1
-1 1 -13 464.392 169.455 6
-1 1 -13 175.7 163.706 3
1 -1 13 96.0157 122.177 1
-1 0 -13 1208.68 263.485 3
1 0 13 1076.65 188.225 6
-1 0 -13 1331.64 229.322 6
-1 -1 -13 3812.51 317.964 6
1 1 13 3683.24 286.226 6
-1 -1 -13 3830.22 401.682 3
-1 -2 -13 1336.36 256.017 3
1 2 13 1472.3 176.741 6
-1 -2 -13 1498.34 214.826 6
1 2 13 1324.23 257.304 3
-1 -3 -13 4806.15 325.841 2
1 3 13 3948.64 271.369 6
-1 -3 -13 4656.95 214.134 4
1 3 13 4840.99 369.358 5
-1 -4 -13 1088.2 176.703 2
1 4 13 1186.81 170.204 6
-1 -4 -13 1906.7 162.4 4
1 4 13 1679.84 244.565 1
1 4 13 1329.87 211.378 5
1 5 13 -86.5164 115.063 5
1 5 13 -40.648 78.4522 6
-1 -5 -13 65.9412 94.9794 2
1 6 13 810.989 191.51 5
1 6 13 776.915 161.729 6
1 7 13 456.486 169.162 5
1 8 13 27.669 115.951 5
1 9 13 224.717 163.025 5
1 -9 12 59.4979 171.62 1
-1 9 -12 503.026 250.534 6
1 -9 12 154.521 230.015 3
1 -8 12 37.5967 214.514 3
-1 8 -12 474.133 232.103 6
1 -8 12 273.153 202.083 1
1 -7 12 -29.7044 192.009 3
1 -7 12 -33.4654 144.286 1
-1 7 -12 238.365 183.12 6
1 -6 12 -26.0192 159.954 3
1 -6 12 104.357 143.704 1
-1 6 -12 196.886 171.698 6
1 -5 12 2077.14 298.031 1
-1 5 -12 2510.15 338.436 6
1 -5 12 1720.86 333.253 3
-1 4 -12 6117.06 461.841 6
-1 4 -12 6358.89 478.372 1
1 -4 12 6190.02 539.094 3
1 -4 12 6741.58 460.572 1
1 -3 12 22151.5 931.339 3
-1 3 -12 22605.4 969.651 3
1 -3 12 22993.5 811.817 5
-1 3 -12 21930.7 799.031 6
1 -3 12 23080.3 799.908 1
-1 2 -12 2242.79 318.366 3
1 -2 12 2247.83 258.667 1
-1 2 -12 2194.56 255.164 6
-1 1 -12 14598.6 768.914 3
1 -1 12 13958.1 613.439 1
-1 1 -12 14751.2 588.552 6
-1 0 -12 51956.4 1339.69 3
-1 0 -12 49077.4 1089.89 6
1 0 12 49601.8 1008.23 6
-1 -1 -12 305.653 159.912 3
1 1 12 291.801 101.613 6
-1 -1 -12 280.798 131.771 6
-1 -2 -12 7510.66 401.327 6
-1 -2 -12 7307.21 523.444 3
1 2 12 7665.77 349.048 6
-1 -3 -12 6549.73 513.325 3
1 3 12 6491.02 401.031 5
-1 -3 -12 5794.91 346.919 2
1 3 12 4806.72 296.239 6
1 4 12 55.5131 93.028 5
1 4 12 49.9914 73.7867 6
-1 -4 -12 -100.793 115.229 2
1 4 12 178.885 115.066 1
1 5 12 269.82 128.263 5
1 5 12 267.365 115.226 6
-1 -5 -12 344.96 130.884 2
1 6 12 -90.5761 115.906 5
1 6 12 -24.735 88.2113 6
1 7 12 30.2991 117.216 5
1 8 12 171.89 141 5
1 9 12 150.339 123.561 5
1 -9 11 122.088 195.261 3
-1 9 -11 531.544 253.817 6
1 -9 11 363.957 210.406 1
1 -8 11 -9.38263 156.287 1
1 -8 11 -108.197 236.351 3
-1 8 -11 191.787 182.356 6
1 -7 11 1901.4 323.547 1
1 -7 11 2002.69 396.786 3
-1 7 -11 1826.93 322.878 6
1 -6 11 337.916 216.027 3
1 -6 11 433.832 172.214 1
1 -5 11 11296.8 749.782 3
-1 5 -11 10039.3 611.836 6
1 -5 11 10448.2 587.043 1
-1 5 -11 12046.1 686.872 1
-1 4 -11 4829.32 410.161 6
-1 4 -11 4616.23 394.262 1
1 -4 11 4923.64 476.552 3
1 -4 11 4624.93 376.219 1
1 -3 11 190.094 137.616 1
1 -3 11 345.625 137.256 5
-1 3 -11 392.295 158.76 6
-1 3 -11 -3.61342 144.121 3
1 -2 11 3951.25 314.007 1
-1 2 -11 3819.44 387.816 3
1 -2 11 4637.21 339.806 5
-1 2 -11 4304.98 333.317 6
1 -1 11 1453.4 218.934 1
-1 1 -11 1144.95 247.075 3
-1 0 -11 1988.85 281.611 3
-1 0 -11 1790.51 233.298 6
1 0 11 2009.37 209.896 6
-1 -1 -11 2941.47 261.061 6
-1 -1 -11 2726.2 329.47 3
1 1 11 2460.67 211.86 6
-1 -2 -11 1600.95 98.4873 4
1 2 11 1796.54 174.295 6
-1 -2 -11 1460.73 245.727 3
-1 -2 -11 1609.03 192.187 6
-1 -3 -11 111.467 130.458 3
1 3 11 -29.3833 81.265 6
-1 -3 -11 -87.3176 94.2126 2
1 3 11 35.6462 89.2562 5
-1 -4 -11 2634.17 250.758 2
1 4 11 2896.81 295.013 1
1 4 11 2060.08 193.701 6
1 4 11 2707.16 262.581 5
1 5 11 2992.92 255.233 6
-1 -5 -11 3627.05 303.83 2
1 5 11 3722.05 318.599 5
1 6 11 1.00603 102.1 5
1 6 11 -19.9459 88.8319 6
1 7 11 1401.01 243.239 5
1 8 11 267.968 149.187 5
1 9 11 261.019 148.729 5
-1 9 -10 225.562 215.553 6
1 -9 10 -83.9232 186.946 3
1 -9 10 64.2438 166.786 1
1 -8 10 -5.03711 146.04 1
1 -8 10 -135.011 204.836 3
-1 8 -10 -152.416 156.776 6
1 -7 10 771.859 268.716 3
-1 7 -10 631.062 232.699 6
1 -7 10 727.444 228.125 1
1 -6 10 17.8304 169.36 3
-1 6 -10 448.448 201.466 6
1 -6 10 331.134 169.522 1
1 -5 10 10355.8 568.088 1
-1 5 -10 10563.1 614.473 1
1 -5 10 9852.59 687.292 3
-1 5 -10 10132.4 595.84 6
-1 4 -10 2060.89 268.136 1
-1 4 -10 1374.74 254.73 3
1 -4 10 1543.8 275.999 3
-1 4 -10 1965.65 267.151 6
1 -4 10 1915.52 254.744 1
1 -4 10 1896.79 244.065 5
1 -3 10 5946.59 388.592 5
-1 3 -10 4374.14 416.761 3
1 -3 10 5887.37 378.654 1
-1 3 -10 5962.13 404.05 6
-1 3 -10 6212.73 407.705 1
-1 2 -10 42640.6 1178.43 3
-1 2 -10 40069.5 932.737 6
1 -2 10 38800.5 877.317 1
1 -2 10 40120.9 921.991 5
1 -1 10 8444.39 426.632 1
-1 1 -10 8996.21 554.329 3
-1 1 -10 8468.95 398.283 6
-1 0 -10 14677.3 676.39 3
-1 0 -10 13605.4 520.031 6
1 1 10 30222.6 655.664 6
-1 -1 -10 31962.2 731.941 6
-1 -1 -10 33298.8 1018.55 3
-1 -2 -10 260.563 104.057 2
1 2 10 516.074 101.578 6
-1 -2 -10 483.303 154.527 3
-1 -2 -10 324.958 103.226 6
1 2 10 523.98 118.884 5
1 3 10 4961.44 309.163 5
1 3 10 4438.48 249.299 6
-1 -3 -10 4887.78 304.886 2
-1 -3 -10 4595.78 399.253 3
-1 -4 -10 4208.93 404.904 3
-1 -4 -10 3965.89 297.761 2
1 4 10 3865.53 297.023 5
1 4 10 3231.84 235.226 6
1 4 10 3809.78 318.66 1
1 5 10 111.733 100.35 5
1 5 10 153.101 104.601 6
1 6 10 444.629 150.196 5
1 6 10 -83.9611 109.022 6
1 7 10 232.086 126.166 6
1 7 10 -132.657 119.419 5
1 8 10 91.0005 119.764 5
1 9 10 171.926 145.785 5
1 10 10 -346.139 160.201 5
1 -9 9 51.5762 184.329 3
-1 9 -9 159.558 175.948 6
1 -9 9 406 210.524 1
1 -8 9 252.572 170.733 1
-1 8 -9 91.3606 147.234 6
1 -8 9 279.918 226.663 3
1 -7 9 2641.86 357.501 1
-1 7 -9 2654.45 366.043 6
1 -7 9 3026.99 451.393 3
1 -6 9 7482.93 521.413 1
-1 6 -9 7035.48 529.101 6
1 -6 9 7556.01 626.719 3
1 -5 9 -172.637 200.949 3
1 -5 9 113.658 131.196 1
-1 5 -9 430.373 177.973 6
-1 5 -9 238.563 142.086 1
-1 4 -9 5143.16 462.928 3
-1 4 -9 6067.42 422.465 6
1 -4 9 5868.33 401.435 1
1 -4 9 5433.15 380.419 5
-1 4 -9 6519.14 443.659 1
-1 3 -9 20484.4 699.726 1
-1 3 -9 19093 673.41 6
1 -3 9 18985.7 636.071 1
-1 3 -9 18779.7 798.56 3
1 -3 9 19402.1 662.545 5
-1 2 -9 1078.35 188.745 6
1 -2 9 571.535 140.846 1
-1 2 -9 390.786 149.874 3
1 -2 9 878.434 161.533 5
-1 1 -9 6537.25 337.078 6
1 -1 9 6779.66 366.972 1
-1 1 -9 6945.35 464.312 3
1 -1 9 6412.66 199.418 4
-1 0 -9 1046.09 164.425 6
-1 0 -9 667.718 198.958 3
1 1 9 289.401 94.8047 6
-1 -1 -9 368.238 120.41 6
-1 -1 -9 95.6632 119.092 3
-1 -2 -9 1302.91 146.208 6
-1 -2 -9 1354.33 171.533 2
-1 -2 -9 1493.74 224.513 3
1 2 9 1292.95 158.831 5
1 2 9 1415.69 140.277 6
1 3 9 8686.42 413.871 1
-1 -3 -9 9299.63 404.27 2
-1 -3 -9 9433.73 540.719 3
1 3 9 7696.72 299.254 6
1 3 9 8641.11 376.711 5
-1 -4 -9 831.233 206.786 3
-1 -4 -9 622.768 145.322 2
1 4 9 403.623 99.6016 6
1 4 9 675.948 160.378 1
1 4 9 535.137 129.638 5
1 5 9 5536.38 414.277 1
1 5 9 4372.09 312.972 6
1 5 9 5561.07 361.849 5
-1 -5 -9 5397.86 355.674 2
-1 -6 -9 4318.17 370.202 5
1 6 9 4740.11 373.137 5
1 6 9 3519.48 316.179 6
1 7 9 12.2761 106.666 5
1 7 9 148.084 112.733 6
1 8 9 639.236 182.385 5
1 9 9 172.049 132.389 5
1 10 9 -97.9192 128.055 5
1 -10 8 23.962 162.688 1
1 -9 8 199.143 239.376 3
1 -9 8 26.5697 155.501 1
-1 9 -8 157.341 172.38 6
1 -8 8 211.395 181.093 1
1 -8 8 898.643 306.061 3
1 -7 8 670.004 225.948 1
1 -7 8 540.246 251.768 3
1 -6 8 2845.61 337.402 1
1 -6 8 2599.86 393.715 3
-1 5 -8 804.312 202.554 1
1 -5 8 388.115 158.024 1
1 -5 8 443.196 207.846 3
-1 4 -8 8983.69 585.914 3
-1 4 -8 10267.8 514.409 1
1 -4 8 9422.54 485.297 1
1 -4 8 9931.62 498.167 5
1 -3 8 17298.6 610.835 5
-1 3 -8 17185 740.113 3
-1 3 -8 17052.5 618.055 6
-1 3 -8 18428 648.203 1
1 -3 8 16912.1 576.958 1
-1 2 -8 8316.63 398.788 6
1 -2 8 7601.03 359.645 1
-1 2 -8 7144.29 446.196 3
-1 2 -8 8086.71 388.127 1
1 -2 8 7852.69 378.221 5
-1 1 -8 91873.6 1549.93 3
-1 1 -8 84074.8 1111.21 6
1 -1 8 84002.8 761.929 4
1 -1 8 90750.8 1191.62 1
-1 0 -8 33.344 116.304 3
-1 0 -8 164.281 89.7681 6
-1 -1 -8 14258.3 608.912 3
-1 -1 -8 12180.8 380.994 6
1 1 8 13838.4 367.659 6
1 2 8 29780.7 560.433 6
-1 -2 -8 28194.5 524.904 6
-1 -2 -8 28315.6 678.375 2
1 2 8 27415.8 599.679 5
-1 -2 -8 28405.7 818.246 3
-1 -3 -8 352.076 119.527 2
1 3 8 168.651 101.525 1
1 3 8 111.958 85.3885 5
-1 -3 -8 219.72 134.553 3
1 3 8 17.6994 60.0057 6
1 4 8 8890.9 462.623 1
-1 -4 -8 8937.54 423.02 2
-1 -4 -8 9975.52 570.639 3
1 4 8 9343.54 411.535 5
1 4 8 8341.69 368.023 6
-1 -5 -8 2941.1 275.423 2
-1 -5 -8 2542.56 264.544 5
1 5 8 2652.76 294.489 1
1 5 8 2458.14 271.528 2
1 5 8 1640.17 209.311 6
1 5 8 2885.19 265.132 5
-1 -6 -8 56.9327 108.471 5
1 6 8 65.6995 111.949 2
1 6 8 100.229 122.611 5
1 6 8 -25.3246 92.4025 6
1 7 8 215.477 130.581 5
1 7 8 97.0136 113.983 6
1 8 8 -28.5823 109.004 5
1 9 8 26.8274 100.354 5
1 10 8 -43.6927 135.511 5
1 -10 7 161.58 190.382 1
-1 10 -7 93.6844 183.264 6
1 -9 7 56.3738 188.958 3
1 -9 7 126.653 171.005 1
1 -8 7 2664.21 379.251 1
1 -8 7 3307.86 498.293 3
1 -7 7 889.545 241.002 1
1 -7 7 908.629 280.319 3
-1 7 -7 1121.12 240.186 5
1 -6 7 4276.82 394.597 1
-1 6 -7 4474.56 409.267 5
1 -6 7 4654.01 492.502 3
-1 5 -7 15215.2 667.766 5
-1 5 -7 14322.3 774.237 3
1 -5 7 15783.2 804.584 3
-1 5 -7 15889.3 695.072 1
1 -5 7 15215.3 649.829 1
1 -5 7 14769.2 673.773 5
1 -4 7 4724.55 341.918 1
1 -4 7 4830.64 347.747 5
-1 4 -7 5419.86 365.865 1
-1 4 -7 4714.91 424.113 3
1 -3 7 21553.2 640.085 1
1 -3 7 21085.1 648.849 5
-1 3 -7 20773.9 793.799 3
-1 3 -7 22401.6 658.046 1
-1 2 -7 1698.81 189.364 1
1 -2 7 1389.09 170.314 1
-1 2 -7 1659.18 237.835 3
-1 2 -7 2459.61 235.645 6
1 -2 7 1953.04 204.591 5
-1 1 -7 679.538 174.914 3
1 -1 7 1031.46 126.078 4
1 -1 7 824.208 142.806 1
-1 1 -7 1121.59 161.618 6
-1 0 -7 396.548 99.8684 6
-1 0 -7 138.884 125.422 3
1 1 7 2637.22 149.656 6
-1 -1 -7 2224.32 156.621 6
-1 -1 -7 2329.09 247.503 3
1 2 7 6066.7 234.823 6
-1 -2 -7 6863.33 392.465 3
1 2 7 6036.55 264.998 5
-1 -2 -7 6617.03 324.507 2
-1 -3 -7 9052.14 382.162 2
-1 -3 -7 9683.65 495.964 3
1 3 7 7905.18 280.588 6
1 3 7 8864.23 401.637 1
1 3 7 8327.77 342.673 5
1 4 7 15711.2 514.109 5
-1 -4 -7 16041.1 552.162 2
1 4 7 14258.6 477 6
1 4 7 15403.1 586.562 1
-1 -4 -7 16252.6 545.441 5
1 5 7 247.96 101.934 6
-1 -5 -7 197.124 112.34 5
1 5 7 219.236 107.899 5
1 5 7 498.101 156.883 1
1 5 7 389.211 139.716 2
1 6 7 2468.38 288.89 2
-1 -6 -7 2257.76 275.224 5
1 6 7 2490.27 269.158 5
1 7 7 2438.98 282.958 5
-1 -7 -7 2266.14 302.026 5
1 8 7 -134.776 121.836 5
1 9 7 99.9245 121.477 5
1 10 7 80.0253 137.763 5
1 -10 6 241.081 202.555 1
1 -10 6 339.267 249.947 3
-1 9 -6 435.105 207.859 5
1 -9 6 211.682 202.017 1
1 -9 6 113.932 210.132 3
-1 8 -6 1042.07 260.656 5
1 -8 6 826.623 301.064 3
1 -8 6 1008.27 269.141 1
1 -7 6 1010.53 294.639 3
-1 7 -6 1103.23 244.097 5
1 -7 6 669.51 225.883 1
-1 6 -6 1377.65 252.518 5
1 -6 6 1502.01 262.328 1
1 -6 6 899.448 261.925 3
1 -5 6 3645.44 346.25 5
-1 5 -6 3809.58 351.195 1
1 -5 6 3726.4 338.485 1
-1 5 -6 3131.67 381.425 3
-1 5 -6 4262 362.007 5
1 -4 6 85.8985 102.164 5
-1 4 -6 17.872 98.5518 1
-1 4 -6 13.3926 126.351 3
1 -4 6 155.562 110.004 1
1 -3 6 48688.7 908.839 1
1 -3 6 45082 910.723 5
-1 3 -6 47369.2 905.193 1
-1 3 -6 45655.2 1135.94 3
-1 2 -6 230.082 97.2405 1
1 -2 6 178.773 85.2784 1
1 -2 6 282.094 96.431 5
-1 2 -6 234.298 126.867 3
1 -1 6 19029.5 382.009 4
1 -1 6 19065.3 445.054 1
-1 1 -6 21910.6 672.961 3
-1 1 -6 21860.2 507.813 6
1 -1 6 19857.4 483.43 5
-1 0 -6 46795.9 615.002 6
-1 0 -6 46169.3 982.295 3
-1 -1 -6 8621.61 414.893 3
1 1 6 8951.81 223.061 6
-1 -1 -6 7460.68 232.194 6
1 2 6 35597.5 466.968 6
1 2 6 37524.7 593.853 5
1 2 6 38430.3 684.847 1
-1 -2 -6 38652.1 732.062 2
-1 -2 -6 40362.5 877.821 3
-1 -3 -6 24260 613.862 2
1 3 6 24632.7 648.148 1
-1 -3 -6 25716.3 757.316 3
1 3 6 22988.4 480.144 6
1 3 6 23720.7 546.935 5
1 4 6 637.651 147.547 2
1 4 6 488.802 108.684 6
1 4 6 850.563 141.693 5
1 4 6 822.789 163.056 1
-1 -4 -6 1038.69 175.803 2
-1 -4 -6 586.388 126.795 5
1 5 6 1525.13 231.168 1
1 5 6 1376.43 202.779 2
-1 -5 -6 1352.87 192.209 5
1 5 6 1483.38 193.236 5
-1 -5 -6 2162.44 239.538 2
-1 -6 -6 737.509 173.99 5
1 6 6 720.413 165.568 5
1 6 6 686.282 171.894 2
1 7 6 206.616 136.858 5
-1 -7 -6 54.3601 120.921 5
1 8 6 94.0378 111.529 5
1 9 6 -77.7837 117.596 5
1 10 6 -168.75 138.329 5
-1 -10 -6 128.521 221.698 3
-1 10 -5 450.563 229.819 5
1 -10 5 503.585 283.686 3
1 -10 5 575.547 232.319 1
1 -9 5 927.375 271.856 1
-1 9 -5 533.184 225.506 5
1 -9 5 666.975 287.487 3
-1 8 -5 936.762 238.42 5
1 -8 5 695.186 278.543 3
1 -8 5 558.84 225.732 1
1 -7 5 4740.17 528.52 3
1 -7 5 4656.09 438.964 1
-1 7 -5 4992.5 449.82 5
-1 6 -5 2522.68 317.006 1
1 -6 5 2497.06 311.321 1
-1 6 -5 2550.51 312.22 5
1 -6 5 2626.67 379.007 3
1 -5 5 4131.99 365.419 5
-1 5 -5 4694.28 377.22 1
-1 5 -5 4281.6 429.895 3
1 -5 5 4584.08 357.109 1
-1 4 -5 15867.2 598.895 1
-1 4 -5 15097 705.775 3
1 -4 5 15538 568.53 1
1 -4 5 15408.8 606.959 5
-1 3 -5 1371.58 186.538 1
1 -3 5 1760.73 203.2 5
1 -3 5 1571.38 195.398 1
-1 3 -5 1047.14 213.174 3
-1 2 -5 5823.59 274.087 1
-1 2 -5 5455.34 354.123 3
1 -2 5 5820.65 272.036 1
1 -2 5 5905.03 293.731 5
1 -1 5 2776.4 183.401 5
1 -1 5 2908.87 168.482 4
1 -1 5 2558.15 157.806 1
-1 1 -5 2797.34 239.58 3
-1 0 -5 5925.86 340.669 3
-1 0 -5 5806.34 199.667 6
-1 -1 -5 -17.4636 45.6507 6
-1 -1 -5 304.021 123.837 3
-1 -2 -5 18311.3 493.003 2
-1 -2 -5 17929.6 548.948 3
1 2 5 18409.5 462.274 1
1 2 5 16996.4 364.783 5
1 3 5 1878.61 200.832 2
1 3 5 996.001 110.802 6
-1 -3 -5 2291.22 212.551 2
1 3 5 1656.05 184.701 1
1 3 5 1114.55 127.555 5
-1 -3 -5 1157.75 139.295 5
1 4 5 3189.82 264.699 2
-1 -4 -5 3168.93 257.452 2
1 4 5 3465.44 284.294 1
-1 -4 -5 3214.41 240.459 5
1 4 5 3092.95 228.811 5
1 5 5 13637.6 569.614 2
1 5 5 13994.8 527.331 5
1 5 5 14107.9 616.355 1
-1 -5 -5 13852.9 543.908 2
-1 -5 -5 13573.6 530.514 5
1 6 5 687.321 171.776 2
-1 -6 -5 378.962 140.408 5
1 6 5 582.929 143.01 5
-1 -7 -5 2233.78 293.361 5
1 7 5 2064.63 252.392 5
1 8 5 1027.82 208.287 5
-1 -9 -5 -385.304 259.55 3
1 9 5 161.493 126.092 5
1 10 5 58.938 128.214 5
-1 -10 -5 227.051 252.375 3
1 11 5 -299.499 165.899 5
-1 10 -4 187.568 175.887 5
1 -10 4 68.6858 232.538 3
1 -10 4 328.953 217.856 1
1 -9 4 310.985 207.945 1
1 -9 4 687.019 296.399 3
-1 9 -4 617.386 223.886 5
-1 8 -4 193.563 166.666 5
1 -8 4 152.957 228.106 3
1 -8 4 295.415 195.567 1
1 -7 4 313.063 179.094 1
-1 7 -4 379.354 180.039 5
1 -7 4 263.212 209.109 3
-1 6 -4 835.69 205.51 5
1 -6 4 808.319 260.246 3
-1 6 -4 891.113 215.056 1
1 -6 4 632.548 194.954 1
1 -5 4 3317.85 311.381 1
-1 5 -4 3412.64 317.829 1
1 -5 4 3446.46 332.68 5
-1 5 -4 3072.75 370.408 3
-1 4 -4 6544.66 382.127 1
1 -4 4 5921.18 381.639 5
-1 4 -4 5413.97 429.366 3
1 -4 4 5840.41 349.158 1
1 -3 4 12879.9 442.647 1
-1 3 -4 13480.6 590.487 3
-1 3 -4 13895.8 474.65 1
1 -3 4 13684.8 491.49 5
1 -2 4 37269.4 689.8 5
1 -2 4 37607.3 624.109 1
-1 2 -4 37602.8 869.756 3
-1 2 -4 37878.2 646.67 1
1 -1 4 26615.8 460.85 4
-1 1 -4 26097.2 435.033 1
-1 1 -4 26267.4 631.992 3
1 -1 4 26424.9 496.538 5
1 -1 4 25536.2 416.168 1
-1 0 -4 40488 784.459 3
-1 -1 -4 127343 1312.78 3
-1 -2 -4 8281.83 356.282 3
1 2 4 8579.09 306.305 1
-1 -2 -4 7754 318.484 2
1 2 4 8267.58 240.623 5
1 3 4 23475.2 492.507 5
1 3 4 25188.3 646.328 2
-1 -3 -4 23736.3 585.112 2
1 3 4 24480.6 618.136 1
-1 -3 -4 23777.3 514.634 5
1 4 4 15869.8 555.599 2
-1 -4 -4 15286.4 508.954 2
1 4 4 15893.1 483.981 5
-1 -4 -4 15592 484.675 5
1 4 4 16086.3 578.525 1
-1 -5 -4 218.093 117.582 5
1 5 4 270.552 128.384 5
1 5 4 275.183 132.183 2
1 5 4 170.068 141.257 1
1 6 4 1783.54 248.696 2
-1 -6 -4 1313.76 208.975 5
1 6 4 1651.3 209.531 5
1 7 4 136.596 121.747 5
-1 -7 -4 -10.9468 100.347 5
1 8 4 129.688 127.757 5
1 9 4 256.48 148.433 5
-1 -9 -4 -31.8375 191.415 3
1 10 4 71.3368 119.563 6
1 10 4 -20.0326 128.01 5
-1 -10 -4 15.195 207.018 3
1 11 4 -148.621 143.76 5
-1 10 -3 170.74 170.757 5
1 -10 3 221.658 201.832 1
1 -10 3 -101.981 240.872 3
-1 9 -3 726.435 238.577 5
1 -9 3 667.687 243.582 1
1 -9 3 498.337 287.367 3
-1 8 -3 768.195 223.534 5
1 -8 3 808.248 235.949 1
1 -8 3 950.073 295.307 3
-1 7 -3 48.96 121.051 5
1 -7 3 189.438 149.858 1
1 -7 3 151.598 168.379 3
-1 6 -3 8722.29 536.519 1
1 -6 3 8922.28 638.362 3
1 -6 3 8188.4 507.178 1
-1 6 -3 7891.32 504.553 5
-1 5 -3 3378.18 318.749 1
1 -5 3 2796.84 286.185 1
1 -5 3 3013.89 312.443 5
1 -4 3 14229 527.757 1
-1 4 -3 15852.9 579.139 1
1 -4 3 14526.4 574.041 5
-1 4 -3 15065.3 680.815 3
-1 3 -3 8612.37 462.293 3
-1 3 -3 9704.84 391.093 1
1 -3 3 9525.63 415.566 5
1 -3 3 8956.96 362.272 1
1 -2 3 159.114 79.7784 1
-1 2 -3 24.8155 101.048 3
1 -2 3 221.407 92.0874 5
-1 2 -3 91.7483 79.1872 1
1 -1 3 18754.1 317.343 1
-1 1 -3 17309.4 389.253 5
1 -1 3 19721.7 406.509 4
-1 1 -3 18031.5 315.578 1
-1 1 -3 18155.9 491.283 3
-1 1 -3 19022.2 305.243 4
1 -1 3 18280.6 381.415 5
-1 0 -3 192.941 107.876 3
1 0 3 281.641 70.3718 5
1 1 3 319.988 44.8115 5
1 1 3 748.417 96.4742 1
-1 -1 -3 981.744 146.533 3
1 2 3 2272.24 192.658 2
1 2 3 2266.99 167.539 1
-1 -2 -3 2002.27 119.426 5
1 2 3 1984.34 111.679 5
-1 -3 -3 24815 500.745 5
1 3 3 25621 621.096 1
1 3 3 24888.2 498.007 5
-1 -3 -3 25177.4 604.302 1
1 3 3 25388.9 627.562 2
-1 -3 -3 25301.4 601.009 2
1 4 3 3921.39 242.586 5
-1 -4 -3 4780.41 305.548 2
1 4 3 4200.88 289.313 2
-1 -4 -3 3994.34 298.263 1
-1 -4 -3 3805.5 250.883 5
1 4 3 4302.22 309.454 1
1 5 3 7069.83 402.923 2
-1 -5 -3 7140.22 390.162 5
-1 -5 -3 7311.24 442.872 1
1 5 3 6555.57 342.769 5
1 5 3 6962.06 437.275 1
1 6 3 6923.96 445.343 2
1 6 3 6486.09 381.934 5
-1 -6 -3 7207.66 483.805 1
-1 -6 -3 6828.12 435.835 5
-1 -7 -3 146.24 142.709 1
1 7 3 -114.072 117.883 5
-1 -7 -3 -230.024 142.867 5
1 8 3 1238.47 224.614 5
-1 -8 -3 1177.96 332.792 3
1 9 3 296.301 156.154 5
-1 -9 -3 447.467 257.596 3
1 10 3 -123.96 119.981 6
1 10 3 -17.3011 122.37 5
-1 -10 -3 30.967 207.115 3
1 11 3 70.9039 156.356 5
-1 10 -2 297.925 195.664 5
1 -10 2 398.124 279.845 3
-1 9 -2 106.106 149.694 5
1 -9 2 28.9514 190.26 3
1 -9 2 230.125 171.538 1
1 -8 2 474.233 241.194 3
1 -8 2 324.576 200.073 1
-1 8 -2 304.914 178.577 5
-1 7 -2 509.088 183.397 5
1 -7 2 333.844 227.063 3
1 -7 2 210.373 156.332 1
-1 6 -2 2308.01 306.84 1
-1 6 -2 2303.61 284.561 5
1 -6 2 2179.39 287.96 1
1 -6 2 2229.8 351.715 3
1 -5 2 906.455 206.998 5
1 -5 2 790.022 192.603 1
-1 5 -2 1019.39 203.124 1
1 -4 2 15415.4 592.759 5
1 -4 2 15592.9 543.526 1
-1 4 -2 16122.1 563.064 1
-1 3 -2 10076.7 489.05 3
1 -3 2 9819.23 372.019 1
1 -3 2 10435.9 424.012 5
-1 3 -2 10110.9 383.782 1
1 -2 2 4463.56 211.242 1
-1 2 -2 4331.32 214.34 1
1 -2 2 4953.37 220.224 4
1 -2 2 5185.15 266.757 5
-1 2 -2 3907.42 273.642 3
1 -1 2 161890 804.132 1
-1 1 -2 163758 854.445 1
1 -1 2 168117 1164.02 5
-1 1 -2 169170 1405.87 3
1 -1 2 173660 1193.61 4
-1 0 -2 35037.3 561.238 3
1 0 2 33825.4 336.71 5
-1 0 -2 33797.6 344.545 5
1 1 2 133575 819.449 1
-1 -1 -2 133779 1084.71 3
-1 -1 -2 132773 802.933 1
1 2 2 49694.2 817.496 2
1 2 2 51039.6 459.731 6
1 2 2 50363.5 504.175 5
1 2 2 49716.3 710.918 1
-1 -2 -2 49030.3 517.026 5
-1 -2 -2 49256.7 700.994 1
-1 -3 -2 8648.73 300.211 5
1 3 2 9158.08 375.869 1
1 3 2 8537.74 366.833 2
1 3 2 8041.29 271.988 5
-1 -3 -2 8590.89 365.48 1
-1 -4 -2 10736.4 468.414 1
1 4 2 11102.2 446 2
1 4 2 10095.1 364.821 5
-1 -4 -2 10335.1 417.63 2
-1 -4 -2 10602.4 401.586 5
1 4 2 10871.9 473.136 1
-1 -5 -2 5375.42 381.797 1
1 5 2 4951.19 373.602 1
1 5 2 5378.38 352.934 2
-1 -5 -2 5416.96 341.816 5
1 5 2 5365.59 310.354 5
1 6 2 656.767 175.622 2
1 6 2 520.161 159.099 5
-1 -6 -2 26.3962 108.147 5
-1 -6 -2 298.44 164.085 1
-1 -7 -2 249.572 150.433 5
1 7 2 265.705 138.832 5
-1 -7 -2 271.249 162.73 1
1 8 2 73.5459 122.246 5
-1 -8 -2 461.16 239.931 3
-1 -8 -2 200.335 172.406 1
-1 -9 -2 191.256 222.971 3
1 9 2 81.2919 137.806 5
1 9 2 248.031 137.45 6
1 10 2 87.5666 106.191 6
1 10 2 56.1222 137.585 5
-1 -10 -2 -7.22951 205.053 3
1 11 2 143.308 155.982 5
1 -10 1 532.912 294.877 3
-1 10 -1 329.436 208.448 5
-1 9 -1 -30.7265 139.928 5
1 -9 1 -216.614 227.13 3
1 -9 1 -43.8863 155.21 1
-1 8 -1 879.835 233.039 5
1 -8 1 1195.96 266.753 1
1 -8 1 1056.51 302.587 3
1 -7 1 1663.91 327.01 3
-1 7 -1 1598.41 262.865 5
1 -7 1 1737.89 285.149 1
1 -6 1 3686.28 416.562 3
1 -6 1 3518.69 349.475 1
-1 6 -1 3766.26 338.414 5
-1 6 -1 3980.25 365.583 1
1 -5 1 11816.2 538.52 1
1 -5 1 11968.1 570.634 5
-1 5 -1 11972.9 545.723 1
1 -4 1 816.113 160.138 5
-1 4 -1 657.432 138.204 1
1 -4 1 655.459 151.153 1
1 -3 1 11471.7 397.884 1
-1 3 -1 11855.2 409.54 1
-1 3 -1 12293.1 528.792 3
1 -3 1 12199.6 451.29 5
-1 2 -1 29872.5 694.137 3
1 -2 1 29891.5 520.261 4
-1 2 -1 29521.2 520.832 1
1 -2 1 30161.9 605.978 5
1 -2 1 28537.3 510.074 1
-1 1 -1 443.134 70.0723 1
1 -1 1 367.368 64.121 1
-1 1 -1 230.439 106.62 3
1 -1 1 384.431 94.4523 5
-1 0 -1 122.315 37.9015 5
1 0 1 163.588 37.2451 5
-1 0 -1 140.074 58.6314 3
-1 -1 -1 6846.6 190.264 1
1 1 1 6350.62 191.648 1
-1 -1 -1 5880.94 198.318 3
-1 -2 -1 1917.25 155.445 1
1 2 1 1994.45 154.479 1
1 2 1 2093.51 119.643 6
1 2 1 1982.06 175.167 2
-1 -2 -1 1988 110.779 5
1 2 1 2104.18 109.44 5
-1 -3 -1 2693.14 174.708 5
1 3 1 2748.83 215.003 1
1 3 1 2378.61 156.444 5
1 3 1 2658.71 214.37 2
-1 -3 -1 2646.02 220.564 1
-1 -4 -1 15549.7 509.144 2
1 4 1 15895.5 578.718 1
-1 -4 -1 16217 493.293 5
-1 -4 -1 16216.6 566.784 1
1 4 1 16527 544.781 2
1 4 1 15342.1 456.209 5
-1 -5 -1 136.204 93.6539 5
1 5 1 138.595 99.1628 5
-1 -5 -1 271.553 131.232 1
1 5 1 582.832 147.195 2
1 5 1 342.051 148.668 1
1 6 1 4270.53 320.884 5
1 6 1 4853.15 370.431 2
-1 -6 -1 4442.96 351.25 5
-1 -6 -1 4635.81 395.278 1
1 7 1 4999.55 386.604 5
-1 -7 -1 4433.87 426.19 1
-1 -7 -1 5208.39 531.911 3
-1 -7 -1 4682.07 397.713 5
1 8 1 -22.9099 110.695 5
-1 -8 -1 -69.8447 186.814 3
-1 -8 -1 -134.452 148.44 1
1 9 1 623.625 192.2 5
-1 -9 -1 1063.86 277.646 1
1 9 1 720.557 192.867 6
-1 -9 -1 1017.66 328.83 3
1 10 1 512.595 193.898 5
-1 -10 -1 184.025 232.397 3
1 10 1 188.888 134.267 6
1 11 1 98.9754 142.46 6
1 11 1 172.912 156.747 5
-1 10 0 208.799 192.829 5
1 -10 0 -127.413 224.778 3
-1 9 0 91.3592 151.304 5
1 -9 0 195.713 229.927 3
1 -8 0 218.697 176.555 1
-1 8 0 -3.13077 127.008 5
1 -8 0 -10.8863 174.769 3
1 -7 0 610.819 203.576 1
-1 7 0 1099.04 233.721 5
1 -7 0 662.16 242.321 3
-1 6 0 810.275 186.011 5
-1 6 0 655.368 179.723 1
1 -6 0 983.964 211.572 1
1 -6 0 632.216 212.649 3
-1 5 0 4089.98 328.452 1
1 -5 0 3927.3 324.717 1
1 -5 0 3580.42 322.315 5
-1 4 0 462.653 145.989 1
1 -4 0 244.454 129.141 1
1 -4 0 173.868 113.183 5
-1 3 0 30860 646.846 1
1 -3 0 29010.3 689.839 5
1 -3 0 30039.3 642.435 1
-1 2 0 32560.8 702.938 3
-1 2 0 32346.9 542.67 1
1 -2 0 32641.3 552.914 4
1 -2 0 32706.6 539.454 1
1 -2 0 32154.8 618.394 5
-1 1 0 116835 1007.09 3
1 -1 0 114630 950.635 5
-1 1 0 114543 723.226 1
-1 0 0 66890.5 488.565 5
-1 0 0 66038.5 523.037 3
-1 0 0 67306.2 677.842 6
1 0 0 65714.2 489.414 5
1 0 0 66090.3 529.829 3
-1 -1 0 84012.2 710.557 1
1 1 0 79024.6 901.566 2
1 1 0 82217.7 727.123 1
1 1 0 83410.7 686.109 6
-1 -1 0 82882 734.688 6
-1 -2 0 23936.1 501.275 1
1 2 0 23849.7 533.206 2
1 2 0 25009.2 530.206 1
-1 -2 0 23646.2 369.14 5
1 2 0 23999.1 418.047 6
1 2 0 23779.7 372.787 5
1 3 0 54736.9 755.997 6
-1 -3 0 55387.2 907.711 1
1 3 0 55174 876.847 2
1 3 0 54726.7 734.007 5
-1 -3 0 57061.4 770.717 5
-1 -4 0 2124.09 194.306 5
1 4 0 1814.27 175.648 5
-1 -4 0 2258.25 237.981 1
1 4 0 2088.16 210.882 2
-1 -5 0 6464.56 414.075 1
1 5 0 6048.29 367.041 2
1 5 0 6683.37 452.485 1
1 5 0 6055.95 341.809 5
-1 -5 0 6187.36 356.19 5
1 6 0 3098.2 304.231 2
-1 -6 0 3723.59 414.375 3
-1 -6 0 3476.81 310.447 5
1 6 0 3411.4 299.261 5
-1 -6 0 3328.29 339.119 1
-1 -7 0 613.225 215.394 1
1 7 0 878.332 208.277 5
-1 -7 0 607.599 184.526 5
-1 -7 0 958.643 292.734 3
1 8 0 88.1237 108.386 6
-1 -8 0 170.813 163.904 1
-1 -8 0 21.2083 188.284 3
1 8 0 71.3053 127.377 5
1 9 0 32.3319 135.488 5
-1 -9 0 173.823 215.881 3
-1 -9 0 217.17 189.973 1
1 9 0 92.7238 121.792 6
1 10 0 331.112 166.464 5
1 10 0 26.7622 123.733 6
-1 -10 0 266.191 231.137 3
-1 -10 0 439.896 225.351 1
1 11 0 0.84329 142.444 6
-1 10 1 250.807 201.288 5
1 -10 -1 182.962 211.174 3
1 -9 -1 228.972 239.157 3
-1 9 1 332.83 180.988 5
-1 8 1 233.792 152.01 5
1 -8 -1 179.563 193.429 3
1 -7 -1 3943.44 476.294 3
-1 7 1 3869.79 379.37 5
-1 6 1 1208.7 213.539 1
1 -6 -1 1115.02 254.958 3
1 -6 -1 1535.78 240.57 1
-1 6 1 1221.01 214.21 5
-1 5 1 3795.96 318.703 1
1 -5 -1 3685.38 311.21 1
1 -5 -1 3640.09 330.208 5
-1 4 1 22410.2 647.882 1
1 -4 -1 21245.5 627.893 1
1 -4 -1 22695.9 700.239 5
1 -3 -1 7779.52 306.103 4
-1 3 1 7198.14 330.389 1
1 -3 -1 7284.71 361.428 5
1 -2 -1 5099.13 246.472 4
1 -2 -1 4823.48 256.123 5
1 -1 -1 20453.4 415.554 5
-1 0 1 -59.5344 82.336 6
1 1 -1 3133.08 179.655 2
-1 -1 1 3032.91 161.332 1
1 1 -1 3596.15 196.317 6
-1 -1 1 3310.45 211.135 6
-1 -2 1 6513.68 257.308 6
1 2 -1 7244.6 265.363 6
-1 -2 1 7219.26 295.744 1
1 2 -1 7400.25 293.198 2
-1 -2 1 7698.61 236.671 5
-1 -3 1 3293.59 239.696 1
1 3 -1 3818.51 241.707 2
1 3 -1 4295.99 243.425 6
-1 -3 1 3159.89 188.528 5
1 3 -1 3430.6 201.512 5
-1 -4 1 9991.17 457.981 1
1 4 -1 9513.68 394.233 6
1 4 -1 8990.66 403.342 2
1 4 -1 8784.3 363.837 5
-1 -4 1 9571.58 487.03 3
-1 -4 1 9233.89 384.433 5
1 5 -1 14993.3 537.814 5
1 5 -1 14704.7 536.49 6
1 5 -1 15955.5 666.052 1
-1 -5 1 16010.9 707.329 3
-1 -5 1 15874.1 637.426 1
1 5 -1 14677.4 565.851 2
-1 -5 1 15603.8 565.001 5
1 6 -1 314.873 129.689 5
-1 -6 1 464.758 143.969 5
1 6 -1 695.351 163.09 6
1 6 -1 359.043 149.112 2
-1 -6 1 137.19 168.432 3
-1 -6 1 286.404 163.174 1
1 7 -1 3677.22 333.841 6
-1 -7 1 4018.96 468.023 3
-1 -7 1 4180.1 415.385 1
1 7 -1 4067.03 355.695 5
-1 -8 1 2564.42 416.76 3
1 8 -1 1799.31 265.63 6
-1 -8 1 2107.56 340.315 1
1 8 -1 1978.91 284.308 5
1 9 -1 -26.1502 122.738 5
-1 -9 1 12.4201 153.766 1
1 9 -1 -90.4008 113.627 6
-1 -9 1 143.202 202.41 3
1 10 -1 559.797 189.639 6
-1 -10 1 243.641 218.236 3
-1 -10 1 470.139 226.724 1
1 11 -1 160.686 151.358 6
1 -10 -2 -178.458 208.181 3
-1 10 2 110.713 165.219 5
1 -9 -2 -72.4011 194.306 3
-1 9 2 68.5594 145.085 5
1 -8 -2 469.055 254.096 3
-1 8 2 363.696 172.291 5
-1 7 2 724.832 203.517 5
1 -7 -2 483.987 232.328 3
-1 6 2 780.672 202.566 1
1 -6 -2 1220.61 297.378 3
-1 6 2 943.146 223.966 5
-1 5 2 1746.49 232.439 1
1 -5 -2 1440.75 227.197 5
1 -4 -2 6366.01 388.399 5
1 -3 -2 8826.7 339.476 4
1 -3 -2 7606.85 378.963 5
1 -2 -2 56787.4 787.203 4
1 -2 -2 57273.3 848.652 5
-1 1 2 75703.3 992.915 6
1 -1 -2 75448.5 835.74 5
-1 0 2 28829.4 516.387 6
1 1 -2 155633 1179.62 2
-1 -1 2 148336 1379.49 6
-1 -1 2 157076 1159.07 1
-1 -1 2 155831 799.196 3
1 2 -2 12471.2 370.426 6
-1 -2 2 12203.9 363.379 6
-1 -2 2 12541 404.721 1
-1 -2 2 12832.5 331.593 5
1 2 -2 12754.9 378.789 2
-1 -2 2 13000.3 379.957 3
1 3 -2 32906.4 686.603 2
-1 -3 2 32983.3 610.006 5
1 3 -2 31952.7 651.457 6
-1 -3 2 34353.6 767.94 3
-1 -3 2 33061 733.692 1
1 4 -2 28398.3 697.396 6
-1 -4 2 28856.7 782.384 1
-1 -4 2 30497.5 852.557 3
1 4 -2 28554.4 714.604 2
-1 -4 2 28838.6 671.284 5
1 4 -2 27899.1 658.98 5
-1 -5 2 603.242 182.693 1
1 5 -2 657.423 173.32 2
-1 -5 2 282.885 127.087 5
-1 -5 2 9.19054 151.163 3
1 5 -2 1008.5 174.862 5
1 6 -2 2469.76 268.017 6
-1 -6 2 2465.65 310.869 1
-1 -6 2 1891.27 305.871 3
-1 -6 2 2261.64 263.4 5
1 6 -2 2346.11 255.534 5
1 7 -2 961.532 208.746 5
1 7 -2 818.935 190.441 6
-1 -7 2 557.519 210.009 1
-1 -7 2 735.487 244.422 3
1 8 -2 470.879 179.368 5
1 8 -2 520.111 178.243 6
-1 -8 2 496.995 251.334 3
-1 -8 2 192.706 186.855 1
-1 -9 2 282.871 197.889 1
1 9 -2 344.023 169.177 6
-1 -9 2 319.886 233.929 3
-1 -10 2 109.884 206.698 3
-1 -10 2 181.42 191.44 1
1 10 -2 186.434 151.661 6
1 11 -2 62.9077 127.57 6
-1 10 3 -71.6808 148.265 5
1 -10 -3 474.4 183.038 4
1 -10 -3 -82.7311 199.7 3
-1 9 3 154.116 148.225 5
1 -9 -3 143.464 206.496 3
-1 8 3 935.921 232.916 5
1 -8 -3 960.138 301.752 3
-1 7 3 361.525 161.686 5
-1 7 3 680.669 177.584 2
1 -7 -3 391.917 202.145 3
1 -6 -3 6950.98 567.867 3
-1 6 3 6781.87 468.868 5
-1 5 3 5580.51 385.784 1
1 -5 -3 5440.12 402.022 5
1 -4 -3 4338.12 327.554 5
1 -4 -3 4643.41 267.033 4
1 -3 -3 46995.3 743.088 4
1 -3 -3 48717.7 917.698 5
1 -2 -3 166.834 86.1869 5
1 -2 -3 304.695 114.777 4
1 -1 -3 2245.13 164.843 5
-1 1 3 2309.12 196.773 6
-1 0 3 1899.44 156.95 6
1 1 -3 2309.94 152.913 2
-1 -1 3 1870.23 105.603 3
-1 -1 3 2125.22 172.299 1
1 1 -3 2042.38 106.743 3
-1 -1 3 2392.48 223.239 6
1 2 -3 5975.78 292.682 6
-1 -2 3 5548.52 274.804 6
-1 -2 3 5661.51 298.049 1
1 2 -3 5485.36 257.019 2
-1 -2 3 5272.14 250.772 3
-1 -3 3 15084 551.196 1
1 3 -3 13707.3 456.382 6
-1 -3 3 13921.8 498.401 3
1 3 -3 13914.3 453.623 2
-1 -3 3 14643.8 443.274 5
-1 -4 3 139.02 117.697 1
-1 -4 3 -66.4198 138.547 3
1 5 -3 5581.71 363.963 2
-1 -5 3 6141.43 421.153 1
1 5 -3 5860.56 372.889 6
-1 -5 3 6048.87 367.58 5
-1 -5 3 5167.59 417.768 3
-1 -6 3 11497 614.584 1
1 6 -3 10112.6 520.29 6
-1 -6 3 11266.7 668.542 3
-1 -6 3 11213.4 554.588 5
-1 -7 3 221.783 162.59 1
1 7 -3 191.326 130.718 6
-1 -7 3 -107.775 183.848 3
-1 -8 3 1585.4 304.624 1
1 8 -3 1113.83 228.756 6
-1 -8 3 1232.49 306.932 3
1 9 -3 1230.19 248.331 6
-1 -9 3 1198.22 342 3
-1 -9 3 1020.49 276.667 1
-1 -10 3 -204.429 197.994 1
1 10 -3 107.413 149.562 6
-1 -10 3 75.6003 215.804 3
1 11 -3 22.4605 137.279 6
1 -10 -4 251.966 180.739 4
-1 10 4 176.624 170.551 5
1 -10 -4 71.5445 214.478 3
1 -9 -4 316.422 163.5 4
-1 9 4 222.098 173.049 5
1 -9 -4 111.182 201.983 3
-1 8 4 507.556 203.672 5
1 -8 -4 682.078 278.385 3
-1 7 4 -6.46059 132.958 5
1 -7 -4 243.4 217.244 3
-1 7 4 431.727 151.648 2
-1 6 4 365.633 164.198 5
1 -5 -4 886.443 202.96 5
-1 5 4 631.237 179.545 1
1 -4 -4 10204.3 384.602 4
1 -4 -4 10371.8 485.426 5
1 -3 -4 18134.9 476.978 4
1 -3 -4 20364.3 609.088 5
1 -2 -4 13960 414.755 4
-1 2 4 13984.8 528.365 6
1 -2 -4 14717.8 475.608 5
-1 1 4 61247.7 957.336 6
-1 0 4 24775.2 379.066 2
1 0 -4 23039.1 399.58 2
-1 0 4 23358.6 543.516 6
1 0 -4 23584.6 377.797 3
1 1 -4 42387 605.637 2
1 1 -4 43204.1 538.407 3
-1 -1 4 40982.4 518.48 3
-1 -1 4 45402.1 779.049 1
-1 -1 4 43442 863.207 6
-1 -2 4 100929 1242.9 1
-1 -2 4 101788 1090.65 3
1 2 -4 101933 1075.09 2
-1 -2 4 101928 1208.82 6
1 2 -4 100499 1059.72 3
1 3 -4 8320.67 373.816 6
-1 -3 4 9607.8 435.657 1
1 3 -4 9185.9 376.37 2
-1 -3 4 9473.59 423.665 3
-1 -3 4 9084 369.979 5
-1 -4 4 17512.1 556.336 5
-1 -4 4 17957.6 650.469 1
-1 -4 4 18880.5 687.205 3
1 4 -4 17538 572.602 2
1 4 -4 17247.4 583.739 6
-1 -5 4 13924.1 633.042 1
1 5 -4 13091.1 555.473 2
1 5 -4 13180.7 556.642 6
-1 -5 4 13152.1 537.334 5
-1 -5 4 14042.4 680.696 3
-1 -6 4 554.791 210.226 1
-1 -6 4 434.915 162.821 5
-1 -6 4 612.354 239.953 3
-1 -7 4 946.919 235.807 1
1 7 -4 1058.98 219.655 6
-1 -7 4 744.587 247.841 3
-1 -8 4 97.491 174.147 1
1 8 -4 425.323 167.355 6
-1 -8 4 133.361 209.631 3
-1 -9 4 219.691 193.592 1
1 9 -4 417.743 184.16 6
-1 -9 4 491.79 260.988 3
1 10 -4 -25.5034 122.982 6
-1 -10 4 130.641 230.883 3
-1 -10 4 -79.6865 176.927 1
1 11 -4 -0.9277 144.477 6
1 -10 -5 363.996 186.29 4
1 -10 -5 482.479 281.714 3
-1 10 5 130.555 168.128 5
1 -9 -5 -66.3148 201.86 3
-1 9 5 200.2 161.865 5
1 -9 -5 434.096 179.16 4
-1 8 5 1087.16 255.097 5
1 -8 -5 1490.33 357.983 3
1 -8 -5 1447.76 240.775 4
1 -7 -5 1156.41 203.025 4
-1 7 5 1002.82 233.643 5
1 -7 -5 1001.94 271.456 3
-1 7 5 1015.99 180.936 2
-1 6 5 494.245 169.974 5
1 -6 -5 836.231 163.845 4
-1 6 5 712.743 148.672 2
1 -5 -5 17165.4 548.95 4
-1 5 5 18008.8 692.861 5
1 -5 -5 18014 709.551 5
-1 5 5 18021.3 688.711 1
1 -4 -5 3308.35 235.243 4
1 -4 -5 3063.97 279.272 5
-1 3 5 1293.41 209.559 6
1 -3 -5 1777.15 179.675 4
1 -3 -5 1385.27 186.376 5
-1 2 5 14413 559.083 6
1 -2 -5 12655.2 397.115 4
1 -2 -5 13026.1 466.303 5
-1 1 5 5457.02 303.371 6
1 0 -5 1328.3 126.732 3
-1 0 5 1624.2 100.756 2
-1 0 5 1512.15 120.023 3
1 0 -5 1477.48 110.796 2
-1 0 5 1648.35 177.921 6
-1 -1 5 456.04 92.3912 2
1 1 -5 144.403 66.5971 3
-1 -1 5 419.844 154.175 6
1 1 -5 344.108 86.5168 2
-1 -1 5 296.713 123.192 1
-1 -1 5 160.934 71.9336 3
-1 -2 5 1544.14 194.003 6
1 2 -5 1303.17 146.307 2
-1 -2 5 827.866 153.145 1
1 2 -5 701.573 113.819 3
-1 -2 5 603.834 112.537 3
-1 -3 5 688.304 134.744 5
1 3 -5 604.25 131.22 2
-1 -3 5 608.174 160.477 1
1 3 -5 299.799 100.939 3
1 3 -5 798.459 160.253 6
-1 -3 5 778.234 152.863 6
-1 -3 5 324.503 131.206 3
1 4 -5 18348.5 619.748 6
-1 -4 5 20798 732.245 1
-1 -4 5 20570.2 730.108 3
1 4 -5 18813.7 603.365 2
-1 -4 5 19853.5 623.772 5
-1 -5 5 1621.66 249.692 1
1 5 -5 2033.94 251.851 2
-1 -5 5 1439.31 260.718 3
-1 -5 5 1665.5 214.073 5
1 5 -5 2497.88 277.38 6
-1 -6 5 3878.42 424.273 3
1 6 -5 3681.65 341.245 6
-1 -6 5 4230.06 359.306 5
-1 -6 5 3639.88 375.979 1
-1 -7 5 6238.56 519.178 1
-1 -7 5 6122.5 572.811 3
1 7 -5 5321.05 436.704 6
1 8 -5 431.259 169.405 6
-1 -8 5 340.811 201.902 1
-1 -8 5 272.284 216.008 3
-1 -9 5 803.876 303.016 3
1 9 -5 861.289 237.515 6
-1 -9 5 661.521 242.753 1
1 10 -5 300.099 183.655 6
-1 -10 5 422.625 267.616 3
-1 -10 5 206.941 187.402 1
1 11 -5 -135.719 154.352 6
-1 10 6 152.509 177.536 5
1 -10 -6 0.3727 140.775 4
-1 9 6 142.249 157.106 5
1 -9 -6 309.612 155.248 4
1 -9 -6 327.934 245.356 3
1 -8 -6 267.616 151.888 4
-1 8 6 -79.6014 137.852 5
1 -8 -6 299.84 219.449 3
1 -7 -6 610.103 173.079 4
-1 7 6 57.8542 104.208 2
-1 7 6 419.748 178.96 5
-1 6 6 350.972 176.733 5
1 -6 -6 779.423 167.613 4
-1 6 6 406.322 119.958 2
1 -5 -6 1625.63 244.326 5
1 -5 -6 1971.92 212.23 4
-1 5 6 2054.68 186.876 2
-1 5 6 1766.5 246.14 1
-1 5 6 1739.49 242.675 5
-1 4 6 142.49 134.688 6
1 -4 -6 68.2502 114.357 5
1 -3 -6 12120.8 422.183 4
-1 3 6 11766.3 565.902 6
1 -3 -6 13009.9 523.919 5
1 -2 -6 10663.3 382.599 4
-1 2 6 10983.8 384.515 4
1 -2 -6 10795.5 428.082 5
-1 2 6 10978.4 492.844 6
1 -1 -6 7159.9 281.809 3
-1 1 6 6202.14 138.56 2
-1 1 6 7106.53 354.865 6
-1 0 6 109516 1046.93 3
-1 0 6 112135 1362.17 6
1 0 -6 112567 843.252 2
-1 0 6 115910 747.834 2
1 0 -6 115395 1194.06 3
1 1 -6 30238.3 528.203 2
1 1 -6 28329.2 549.381 3
-1 -1 6 28908.1 564.732 3
-1 -1 6 31271.5 801.659 6
-1 -1 6 28686.4 707.951 1
-1 -2 6 58807.3 1065.74 6
1 2 -6 56950.7 846.966 2
-1 -2 6 54082.7 980.451 1
-1 -2 6 57968.7 907.217 3
1 2 -6 56819.4 905.156 3
1 3 -6 59868.2 978.01 2
-1 -3 6 61858.2 1167.64 1
-1 -3 6 59655.2 1080.51 6
-1 -3 6 61715.7 1088.36 3
1 3 -6 60409.5 1072.7 3
1 4 -6 3307.98 288.695 6
-1 -4 6 3615.87 332.993 1
1 4 -6 3090.4 295.423 3
1 4 -6 3264.95 273.228 2
-1 -4 6 2928.05 301.589 3
-1 -4 6 3451.55 281.036 5
-1 -5 6 6943.08 472.84 1
1 5 -6 7101.61 485.785 1
1 5 -6 6101.11 399.52 2
-1 -5 6 7032.52 416.923 5
-1 -5 6 6558.42 490.515 3
1 5 -6 6645.13 427.46 6
-1 -6 6 4975.94 388.224 5
-1 -6 6 6322.01 491.832 1
1 6 -6 5419.55 423.186 6
-1 -6 6 5431.87 502.389 3
-1 -7 6 635.255 236.046 1
1 7 -6 871.684 223.87 6
-1 -7 6 341.848 232.613 3
-1 -8 6 615.481 233.476 1
1 8 -6 457.34 194.425 6
-1 -8 6 383.906 241.071 3
-1 -9 6 316.39 244.422 3
-1 -9 6 472.793 217.705 1
1 9 -6 412.663 188.785 6
-1 -10 6 81.499 216.991 3
1 10 -6 147.568 151.951 6
-1 10 7 185.779 179.473 5
1 -9 -7 529.968 188.714 4
-1 9 7 201.216 169.465 5
1 -9 -7 253.348 212.294 3
1 -8 -7 286.873 149.452 4
-1 8 7 -80.0003 145.537 5
1 -7 -7 1907.19 245.521 4
-1 7 7 1827.66 221.774 2
-1 7 7 2003.39 307.066 5
1 -6 -7 3194.4 280.357 4
-1 6 7 2991.2 238.288 2
-1 6 7 2970.51 383.503 6
-1 6 7 3441.59 351.063 5
1 -5 -7 57.7242 105.096 5
-1 5 7 -36.5193 115.795 5
-1 5 7 304.298 93.3658 2
1 -5 -7 558.101 137.06 4
-1 5 7 363.78 173.972 6
-1 5 7 180.205 123.318 1
-1 4 7 14752.8 360.903 2
1 -4 -7 14904 505.99 4
-1 4 7 15591.6 702.32 6
1 -4 -7 16354.8 653.254 5
1 -3 -7 4699.23 337.129 5
-1 3 7 4366.12 363.282 6
1 -3 -7 4376.92 273.908 4
-1 2 7 3223.46 295.685 6
-1 2 7 3432.62 234.213 4
-1 1 7 18035 492.26 4
1 -1 -7 19305.6 494.758 3
-1 1 7 19803.3 602.319 6
-1 0 7 2840.08 258.343 6
1 0 -7 2779.36 228.901 3
-1 0 7 2406.15 202.299 3
1 0 -7 2723.42 141.545 2
-1 -1 7 1958.12 241.463 1
1 1 -7 1710.41 166.777 3
-1 -1 7 1687.93 178.084 3
1 1 -7 2241.86 161.57 2
-1 -1 7 2374.91 259.03 6
-1 -2 7 4004.08 302.198 1
-1 -2 7 5051.08 350.451 6
1 2 -7 4946.8 274.257 2
1 2 -7 4168.31 270.181 3
-1 -2 7 3990.8 267.424 3
-1 -3 7 1656.54 221.583 6
1 3 -7 562.779 137.864 3
-1 -3 7 1068.27 181.502 3
1 3 -7 1556.33 194.991 2
-1 -3 7 815.675 186.519 1
-1 -4 7 3523.93 334.337 1
1 4 -7 2463.7 272.835 3
1 4 -7 2959.13 270.514 2
-1 -4 7 2944.25 303.887 3
1 4 -7 2967.69 285.119 6
-1 -4 7 3059.84 276.212 5
-1 -5 7 11579.9 616.683 1
1 5 -7 10866.5 532.976 2
1 5 -7 11700.8 623.419 1
-1 -5 7 11656.8 645.012 3
-1 -5 7 11354.9 548.24 5
1 5 -7 10054.8 534.901 6
-1 -6 7 1966.19 297.495 1
-1 -6 7 1751.72 316.849 3
1 6 -7 2034.17 284.433 6
-1 -7 7 2659.48 372.713 1
1 7 -7 2868.1 345.848 6
-1 -7 7 2739.28 408.803 3
-1 -8 7 2969.41 408.348 1
-1 -8 7 2763.56 443.455 3
1 8 -7 2215.08 325.373 6
-1 -9 7 163.562 185.279 1
1 9 -7 -4.43259 129.218 6
-1 -9 7 -118.113 208.263 3
1 10 -7 98.5252 149.971 6
-1 -10 7 209.711 237.843 3
-1 10 8 287.927 201.381 5
-1 9 8 93.7986 156.62 5
1 -9 -8 359.39 179.113 4
1 -9 -8 35.184 191.553 3
1 -8 -8 256.47 151.32 4
-1 8 8 209.325 167.979 5
-1 7 8 216.008 113.985 2
-1 7 8 261.057 169.03 5
1 -7 -8 340.317 144.295 4
-1 6 8 1144.84 238.736 5
1 -6 -8 1326.62 206.753 4
-1 6 8 788.646 141.156 2
1 -5 -8 1271.26 225.181 5
-1 5 8 933.45 125.249 2
1 -5 -8 1260.39 184.526 4
-1 5 8 758.709 216.306 6
-1 5 8 918.146 185.459 1
-1 5 8 933.988 193.189 5
-1 4 8 2646.08 278.68 5
-1 4 8 2657.5 323.977 6
1 -4 -8 2750.83 238.9 4
1 -4 -8 2824.02 293.885 5
-1 4 8 2383.4 149.601 2
-1 3 8 1249.13 78.0252 2
-1 3 8 1587.69 240.77 6
1 -3 -8 1930.76 195.972 4
1 -2 -8 26813.2 693.23 3
-1 2 8 23521.6 591.36 4
-1 2 8 26564.5 797.17 6
1 -1 -8 19642.9 543.358 3
-1 1 8 17941.4 503.055 4
-1 1 8 20222.4 658.937 6
1 0 -8 48572.8 941.773 3
-1 0 8 45359.6 995.733 6
1 0 -8 45804.2 556.661 2
-1 -1 8 75877.1 1145.42 3
-1 -1 8 78881.9 1344.71 1
1 1 -8 79584.7 915.333 2
-1 -1 8 82300 1387.69 6
1 1 -8 76273.3 1118.32 3
1 2 -8 18844.6 524.79 2
-1 -2 8 17539 628.293 1
1 2 -8 16747.1 548.707 3
-1 -2 8 16941.3 546.622 3
-1 -2 8 18377.1 671.908 6
-1 -3 8 17933.7 635.599 3
-1 -3 8 19281 690.977 6
1 3 -8 17285.4 627.143 3
1 3 -8 18201.4 584.922 2
-1 -3 8 17991.7 678.316 1
-1 -4 8 32845.4 967.662 1
-1 -4 8 33480.2 891.678 5
1 4 -8 31610.3 840.603 2
1 4 -8 32757.7 951.139 3
1 4 -8 29328 860.736 6
-1 -4 8 33543.3 958.332 3
1 5 -8 2193.63 278.575 6
-1 -5 8 2153.08 316.623 1
1 5 -8 2449.73 282.852 2
-1 -5 8 2244.22 315.672 3
1 5 -8 2665.11 321.312 1
1 5 -8 1909.05 281.311 3
-1 -5 8 2085.79 253.822 5
-1 -6 8 2290.48 351.361 3
1 6 -8 2663.3 323.558 6
-1 -6 8 2727.62 351.36 1
-1 -7 8 453.978 209.567 1
-1 -7 8 577.311 249.075 3
1 7 -8 558.172 196.587 6
1 8 -8 344.175 188.354 6
-1 -8 8 456.801 226.271 1
-1 -8 8 409.764 239.764 3
1 9 -8 62.9295 150.992 6
-1 -9 8 133.34 218.705 3
-1 -9 8 510.301 238.342 1
-1 -10 8 -51.1281 195.658 3
1 10 -8 -46.1481 144.742 6
-1 10 9 153.08 178.339 5
1 -9 -9 282.573 170.396 4
-1 9 9 193.325 176.83 5
1 -9 -9 249.22 230.497 3
-1 8 9 628.5 216.878 5
1 -8 -9 910.091 215.618 4
-1 7 9 88.9078 140.718 5
1 -7 -9 248.412 133.896 4
-1 7 9 -151.482 104.487 2
1 -6 -9 5595.34 384.491 4
-1 6 9 5045.55 291.387 2
-1 6 9 5817.41 457.273 5
-1 5 9 897.1 117.349 2
1 -5 -9 1148.74 182.319 4
-1 5 9 1009.28 202.649 5
-1 5 9 1268.46 258.234 6
-1 4 9 922.503 185.322 5
-1 4 9 1213.39 101.578 2
1 -4 -9 993.706 193.953 5
-1 4 9 944.246 211.942 6
1 -4 -9 1130.77 174.277 4
1 -3 -9 13272.5 474.57 4
-1 3 9 14241.4 658.028 6
1 -2 -9 7804.51 464.061 6
-1 2 9 7853.65 448.72 6
1 -2 -9 8273.58 409.014 3
-1 2 9 8158.15 362.553 4
1 -1 -9 6026.67 328.324 3
-1 1 9 6378.69 306.358 4
-1 1 9 5814.06 362.87 6
1 0 -9 5423.27 345.404 3
-1 0 9 5313.33 380.321 6
1 0 -9 5627.27 208.052 2
-1 0 9 4427.03 308.365 3
-1 -1 9 976.711 225.082 1
1 1 -9 1516.57 151.848 2
-1 -1 9 1043.85 207.065 6
1 1 -9 905.193 164.676 3
-1 -1 9 774.717 167.732 3
-1 -2 9 179.545 135.619 6
-1 -2 9 21.3282 127.934 1
1 2 -9 264.936 113.346 2
1 2 -9 -61.5635 94.0951 3
-1 -2 9 -180.346 127.594 3
-1 -3 9 4077.12 349.163 6
1 3 -9 3932.98 298.893 2
1 3 -9 2633.93 262.845 3
-1 -3 9 3048.71 292.667 3
-1 -3 9 3726.93 342.882 1
-1 -4 9 2412.22 302.243 1
1 4 -9 1731.76 238.073 3
1 4 -9 2602.98 278.835 2
-1 -4 9 2279.08 280.69 3
1 4 -9 2574.16 286.439 6
-1 -4 9 2364.91 264.654 5
-1 -5 9 3290.54 369.317 1
1 5 -9 2387.59 314.566 3
-1 -5 9 3111.77 357.833 3
-1 -5 9 3402.45 329.904 5
1 5 -9 3115.8 328.117 6
1 6 -9 6888.82 505.92 6
-1 -6 9 7875.69 574.544 1
-1 -7 9 474.423 217.756 3
-1 -7 9 857.731 247.918 1
1 7 -9 757.39 218.609 6
-1 -8 9 590.239 255.709 3
1 8 -9 584.43 203.502 6
-1 -8 9 883.38 268.315 1
-1 -9 9 994.618 328.998 3
1 9 -9 630.652 226.588 6
-1 -9 9 885.517 278.058 1
-1 -10 9 80.1345 209.338 3
1 10 -9 -89.0512 154.666 6
-1 9 10 110.158 164.962 5
1 -9 -10 137.684 156.76 4
1 -8 -10 71.1027 129.245 4
-1 8 10 171.836 160.562 5
-1 7 10 79.156 139.681 5
1 -7 -10 294.477 143.081 4
-1 7 10 57.0171 81.4843 2
1 -6 -10 495.683 156.057 4
-1 6 10 415.79 104.105 2
-1 6 10 340.374 165.688 5
1 -5 -10 424.082 145.959 4
-1 5 10 259.41 151.585 5
-1 5 10 514.655 194.455 6
-1 5 10 361.861 83.7859 2
-1 4 10 1536.57 264.028 6
-1 4 10 1242.91 213.896 5
-1 4 10 799.6 77.6736 2
1 -4 -10 1398.27 195.991 4
1 -3 -10 3078.4 302.269 3
-1 3 10 2543.71 299.191 6
-1 2 10 3785.15 330.846 6
-1 2 10 4087.34 271.002 4
1 -2 -10 3976.49 310.821 3
1 -2 -10 4370.3 381.387 6
-1 1 10 41890.7 997.962 6
1 -1 -10 40080.8 889.073 3
-1 1 10 38360 742.696 4
1 0 -10 15234 352.831 2
-1 0 10 13681.9 619.729 6
-1 0 10 13559 545.5 3
1 0 -10 15307.6 601.857 3
1 1 -10 17645.4 475.47 2
1 1 -10 16727.5 626.099 3
-1 -1 10 16381.2 616.174 3
-1 -1 10 17502 689.882 6
-1 -1 10 17234.5 717.94 1
1 2 -10 66390.4 1069.41 2
1 2 -10 60282.1 1159.3 3
-1 -2 10 61417.3 1335.81 1
-1 -2 10 62163.5 1334.63 6
-1 -2 10 62658.5 1176.77 3
-1 -3 10 12079.2 593.577 1
1 3 -10 14601.6 563.277 2
1 3 -10 13031.6 589.216 3
-1 -3 10 14043.3 659.388 6
-1 -3 10 12993.8 589.906 3
-1 -4 10 7300.23 494.633 1
1 4 -10 7642.37 491.794 3
1 4 -10 7803.46 461.123 2
-1 -4 10 7572.84 494.3 3
-1 -4 10 8701.23 496.59 5
1 4 -10 7443.11 479.284 6
1 5 -10 10933.9 603.31 6
-1 -5 10 12527.7 683.229 1
1 5 -10 11592.6 667.712 3
-1 -5 10 11602.4 663 3
1 6 -10 471.793 178.857 6
-1 -6 10 572.876 226.909 1
-1 -6 10 394.14 202.259 3
1 7 -10 1283.53 267.292 6
-1 -7 10 1235.06 283.184 1
-1 -7 10 1453.97 326.327 3
-1 -8 10 71.3858 193.143 3
-1 -8 10 248.892 188.208 1
1 8 -10 165.522 166.761 6
1 9 -10 190.77 185.339 6
-1 -9 10 64.5039 180.811 1
-1 -9 10 144.665 218.542 3
1 10 -10 -43.5676 147.927 6
-1 -10 10 254.193 262.562 3
-1 9 11 63.6096 154.22 5
1 -9 -11 44.8861 137.097 4
1 -8 -11 463.374 178.128 4
-1 8 11 338.451 197.787 5
-1 7 11 271.276 157.641 5
1 -7 -11 431.16 157.591 4
-1 6 11 155.969 136.613 5
1 -6 -11 336.338 148.977 4
-1 6 11 160.095 77.5373 2
-1 5 11 2233.16 150.964 2
1 -5 -11 3231.6 298.673 4
-1 5 11 2798.48 363.13 6
-1 5 11 2817.73 330.334 5
1 -4 -11 5352.38 338.284 4
-1 4 11 5295.35 467.211 6
-1 4 11 5705.63 407.988 5
1 -3 -11 2606.33 288.111 3
-1 3 11 2290.5 263.849 5
-1 3 11 2072.57 274.333 6
1 -2 -11 20865.8 719.929 3
-1 2 11 20891.6 591.414 4
1 -2 -11 21620.7 843.022 6
-1 2 11 20206 771.055 6
-1 1 11 2704.17 287.043 6
-1 1 11 2228.19 192.956 4
1 -1 -11 2366.73 247.197 3
1 0 -11 267.205 124.838 3
-1 0 11 341.388 139.526 3
1 0 -11 503.894 88.4429 2
-1 0 11 289.916 143.62 6
1 1 -11 4581.71 268.309 2
1 1 -11 3208.25 302.937 3
-1 -1 11 4286.35 366.577 6
-1 -1 11 2953.75 332.466 1
-1 -1 11 3010.76 291.776 3
-1 -2 11 -38.7963 153.901 1
-1 -2 11 310.925 163.018 6
-1 -2 11 -136.763 138.819 3
1 2 -11 -225.509 147.999 3
-1 -3 11 547.101 186.822 1
-1 -3 11 728.192 188.563 6
1 3 -11 757.003 180.395 2
1 3 -11 363.892 134.055 3
-1 -3 11 76.5265 125.703 3
1 4 -11 7407.76 466.406 2
1 4 -11 6818.56 485.174 3
1 4 -11 8094.9 549.736 1
-1 -4 11 6625.06 484.113 3
1 4 -11 6408.6 466.379 6
-1 -4 11 6431.81 491.313 1
-1 -4 11 8168.09 506.446 5
-1 -5 11 3711.46 403.861 1
1 5 -11 3136.53 369.299 3
-1 -5 11 3534.81 386.451 3
1 5 -11 3622.28 371.191 6
1 6 -11 2147.85 316.186 6
-1 -6 11 2735.46 380.524 1
-1 -6 11 2549.92 368.418 3
-1 -7 11 2702.46 391.921 1
-1 -7 11 2673.96 410.285 3
1 7 -11 2554.97 356.987 6
1 8 -11 239.34 183.369 6
-1 -8 11 273.371 190.816 1
-1 -8 11 -196.135 213.38 3
-1 -9 11 845.668 282.561 1
1 9 -11 627.748 229.27 6
-1 -9 11 1174.11 339.515 3
-1 -10 11 454.797 269.981 3
1 -9 -12 -103.271 144.611 4
-1 9 12 14.4541 157.014 5
1 -8 -12 -53.3206 132.62 4
-1 8 12 47.6626 155.278 5
1 -7 -12 -67.4792 123.127 4
-1 7 12 -133.103 167.092 5
-1 6 12 -3.03596 121.776 5
1 -6 -12 -13.8159 110.484 4
-1 6 12 17.0299 62.4121 2
-1 5 12 33.491 132.942 6
1 -5 -12 124.871 115.761 4
-1 5 12 30.5913 117.96 5
-1 4 12 584.019 184.545 5
1 -4 -12 448.016 178.48 3
-1 4 12 125.88 148.849 6
1 -4 -12 451.693 158.447 4
-1 3 12 6274.72 434.776 5
-1 3 12 6138.05 463.381 6
1 -3 -12 6246.07 452.784 3
1 -3 -12 6448.79 491.19 6
-1 2 12 6739.59 459.806 6
-1 2 12 7047.56 352.969 4
1 -2 -12 6024.24 412.709 3
1 -2 -12 6798.68 510.337 6
1 -1 -12 7972.34 540.355 6
-1 1 12 6271.7 313.965 4
1 -1 -12 6241.61 415.638 3
-1 1 12 7158.7 473.702 6
-1 0 12 33612.1 941.088 3
1 0 -12 35232.2 996.518 3
-1 0 12 32948.1 1027.65 6
1 0 -12 32140.6 568.05 2
1 1 -12 22299.6 596.4 2
-1 -1 12 22076.2 771.36 3
1 1 -12 20230.5 775.909 3
-1 -1 12 22311.6 817.594 6
-1 -1 12 20192.4 843.277 1
-1 -2 12 10278.6 548.495 3
-1 -2 12 10957.6 605.504 6
1 2 -12 11035.2 493.858 2
1 2 -12 10241 541.911 3
-1 -2 12 10246.7 620.307 1
-1 -3 12 42006.3 1186.39 1
1 3 -12 41472.8 1040.02 2
1 3 -12 43320.3 1159.9 3
-1 -3 12 41237.4 1214.07 6
-1 -3 12 42346.4 1114.42 3
1 4 -12 4177.76 395.185 6
1 4 -12 4206.69 397.588 3
-1 -4 12 3751.11 395.707 1
1 4 -12 4555.81 384.051 2
-1 -4 12 3975.57 390.314 3
-1 -5 12 5497.25 488.717 1
1 5 -12 4983.55 462.065 3
-1 -5 12 5150.14 477.389 3
1 5 -12 5431.39 465.958 6
-1 -6 12 3339.41 427.767 1
1 6 -12 3203.01 383.742 6
-1 -6 12 3486.86 437.32 3
-1 -7 12 33.045 156.147 1
-1 -7 12 -294.738 229.656 3
-1 -8 12 538.205 232.623 1
1 8 -12 300.365 198.495 6
-1 -8 12 279.755 238.492 3
-1 -9 12 629.017 263.135 1
1 9 -12 309.128 191.509 6
-1 -9 12 297.68 229.636 3
-1 9 13 221.972 192.309 5
1 -9 -13 127.508 150.509 4
1 -8 -13 166.208 136.556 4
-1 8 13 24.8897 142.81 5
-1 7 13 643.141 203.928 5
1 -7 -13 643.609 186.367 4
-1 6 13 948.359 230.299 5
1 -6 -13 836.225 191.021 4
1 -5 -13 -33.4862 100.078 4
-1 5 13 -68.2707 129.695 5
-1 4 13 10596.5 581.489 5
-1 4 13 10464.3 635.269 6
-1 3 13 2670.29 332.584 6
-1 3 13 2726.53 308.555 5
1 -3 -13 3274.45 382.827 6
1 -3 -13 3347.98 360.697 3
-1 2 13 1175.7 213.901 5
1 -2 -13 950.282 195.413 3
-1 2 13 1027.69 208.369 6
1 -2 -13 1408.11 274.761 6
-1 2 13 1672.54 186.222 4
-1 1 13 9999.9 581.856 6
1 -1 -13 10191.8 631.736 6
-1 1 13 9768.19 398.782 4
1 -1 -13 9452.9 536.435 3
-1 0 13 5472.21 410.858 3
1 0 -13 5267.96 247.818 2
1 0 -13 5361.69 417.021 3
1 0 -13 5630.73 472.227 6
-1 0 13 5119.71 428.179 6
-1 -1 13 774.205 195.215 3
-1 -1 13 664.955 223.084 1
-1 -1 13 667.509 190.582 6
1 1 -13 894.75 158.649 2
1 1 -13 481.514 162.865 3
-1 -2 13 -77.1772 182.001 3
1 2 -13 145.66 128.102 3
-1 -2 13 34.1211 193.266 1
-1 -2 13 731.634 209.447 6
1 2 -13 998.275 206.133 2
1 3 -13 2089.92 321.144 6
-1 -3 13 2027.66 300.136 1
1 3 -13 2326.96 282.637 2
-1 -3 13 2096.95 304.648 6
1 3 -13 1597.37 252.362 3
-1 -3 13 1550.78 255.561 3
-1 -4 13 2643.21 352.945 1
1 4 -13 2113.35 303.27 3
1 4 -13 2565.42 318.308 2
1 4 -13 2381.01 337.631 6
-1 -4 13 2225.2 309.978 3
-1 -5 13 2079.75 328.597 1
-1 -5 13 1992.98 326.694 3
1 5 -13 2097.35 315.913 6
-1 -6 13 1027.64 269.728 1
1 6 -13 1245.22 275.381 6
-1 -6 13 715.342 234.534 3
-1 -7 13 1150.14 292.239 1
1 7 -13 935.371 260.101 6
-1 -7 13 875.586 283.986 3
-1 -8 13 3072.97 449.48 1
1 8 -13 2253.48 380.258 6
-1 -8 13 3095.61 487.618 3
1 9 -13 167.872 203.488 6
-1 -9 13 69.0996 210.294 3
-1 9 14 83.9649 168.659 5
1 -9 -14 -219.148 170.011 4
-1 8 14 106.346 150.783 5
1 -8 -14 -101.131 139.221 4
-1 7 14 -75.7988 137.012 5
1 -7 -14 -121.57 145.035 4
-1 6 14 42.2814 147.521 5
1 -6 -14 -41.9492 116.226 4
-1 5 14 118.596 144.43 5
1 -5 -14 28.2652 110.286 4
-1 4 14 1729.89 270.718 5
-1 4 14 1207.87 248.363 6
-1 3 14 931.302 220.625 6
1 -3 -14 751.157 207.411 3
1 -3 -14 1356.74 289.402 6
-1 3 14 1105.3 225.622 5
1 -2 -14 6813.03 480.955 3
-1 2 14 8139.56 381.526 4
-1 2 14 7431.31 522.938 6
-1 2 14 6569.17 473.327 5
1 -2 -14 7349.38 573.453 6
-1 1 14 5038.01 299.878 4
1 -1 -14 6647.54 543.155 6
1 -1 -14 5839.19 456.341 3
-1 1 14 5251.01 454.792 6
1 0 -14 3016.33 331.038 3
-1 0 14 2799.25 326.776 6
-1 0 14 2712.03 307.65 3
1 0 -14 2618.12 190.081 2
1 0 -14 3168.83 371.959 6
-1 -1 14 46343.7 1193.26 3
1 1 -14 43162.9 1249.17 3
-1 -1 14 46940.3 1231.91 6
-1 -1 14 44932.7 1342.47 1
1 1 -14 46552 1325.75 6
-1 -2 14 10303.4 624.268 6
-1 -2 14 8089.72 546.87 3
1 2 -14 6071.96 408.64 2
1 2 -14 8099.12 547.2 3
-1 -2 14 8016.59 599.712 1
1 2 -14 9454.22 631.396 6
-1 -3 14 5300.91 478.234 1
1 3 -14 5677.01 470.113 3
1 3 -14 4972.84 485.634 6
-1 -3 14 5714.2 478.42 3
-1 -4 14 16562.8 853.68 1
1 4 -14 16071.2 813.455 3
-1 -4 14 17184.9 816.625 3
1 4 -14 15195.9 837.922 6
-1 -5 14 1504.24 286.873 3
1 5 -14 1489.24 282.005 6
-1 -5 14 1789.22 305.679 1
-1 -6 14 1751.18 338.494 1
1 6 -14 1595.87 306.294 6
-1 -6 14 981.143 281.498 3
1 7 -14 1497.84 317.412 6
-1 -7 14 1773.58 356.503 1
-1 -7 14 1794.07 380.446 3
-1 -8 14 132.12 200.29 1
-1 -8 14 -140.75 220.13 3
1 8 -14 361.257 218.745 6
-1 -9 14 14.8079 221.257 3
-1 9 15 79.1712 168.647 5
1 -9 -15 0.20192 131.814 4
1 -8 -15 -3.19359 120.066 4
-1 8 15 121.268 161.928 5
-1 7 15 54.6579 149.172 5
1 -7 -15 -90.3257 144.053 4
-1 6 15 1138.72 272.393 5
1 -6 -15 1122.22 223.566 4
-1 5 15 1279.15 264.159 5
-1 4 15 731.54 198.349 5
-1 3 15 4259.97 430.849 6
-1 3 15 5433.53 458.43 5
1 -3 -15 5453.73 521.893 6
1 -2 -15 5465.13 454.949 3
-1 2 15 6223.09 507.757 6
1 -2 -15 4796.42 483.775 6
-1 2 15 4791.55 428.134 5
-1 2 15 6451.38 340.414 4
1 -1 -15 234.595 138.994 3
1 -1 -15 516.601 221.04 6
1 -1 -15 249.895 45.5338 2
-1 1 15 182.531 83.2738 4
-1 1 15 303.089 162.715 6
1 0 -15 6011.4 521.722 6
1 0 -15 4016.6 240.909 2
-1 0 15 5522.63 447.535 6
-1 0 15 5758.4 454.748 3
1 0 -15 5850.96 472.651 3
-1 -1 15 302.36 199.828 1
1 1 -15 555.456 225.116 6
1 1 -15 527.56 162.726 2
-1 -1 15 385.14 177.561 6
1 1 -15 -9.94877 120.717 3
-1 -1 15 36.8318 135.373 3
-1 -2 15 554.245 181.974 3
1 2 -15 782.129 204.693 3
1 2 -15 1193.7 273.907 6
1 2 -15 1096.22 211.906 2
-1 -2 15 754.133 249.891 1
-1 -3 15 -52.9154 194.799 3
-1 -3 15 89.6768 165.962 1
1 3 -15 583.244 237.231 6
1 3 -15 795.761 218.31 2
1 3 -15 -126.73 179.059 3
-1 -4 15 1293.38 276.271 1
1 4 -15 1317.93 288.589 6
-1 -4 15 1830.66 305.933 3
-1 -5 15 566.503 233.339 1
1 5 -15 804.131 242.153 6
-1 -5 15 472.653 198.497 3
-1 -6 15 6650.64 612.824 1
-1 -6 15 6450.93 608.359 3
1 6 -15 4975.12 530.86 6
-1 -7 15 1229.54 312.577 1
-1 -7 15 925.092 308.642 3
1 7 -15 785.832 268.339 6
-1 -8 15 543.017 262.599 3
1 8 -15 825.814 273.956 6
-1 -8 15 587.747 242.89 1
-1 -9 15 859.073 330.905 3
1 -9 -16 -228.638 168.915 4
1 -8 -16 -286.163 165.317 4
-1 8 16 85.5084 159.86 5
-1 7 16 159.079 160.254 5
1 -7 -16 -55.964 129.973 4
-1 6 16 100.879 150.072 5
-1 5 16 87.9454 160.369 5
-1 4 16 818.067 224.388 5
-1 3 16 7.39751 133.496 5
1 -3 -16 140.292 181.015 6
-1 2 16 142.697 151.834 5
1 -2 -16 107.162 191.807 6
-1 2 16 520.116 197.437 6
1 -1 -16 12063 685.099 3
-1 1 16 12156 711.692 6
1 -1 -16 13394.8 801.898 6
-1 1 16 12294.4 465.164 4
1 0 -16 7575.28 333.529 2
1 0 -16 9105.82 596.276 3
-1 0 16 8695.21 561.826 6
1 0 -16 9199.72 639.848 6
-1 0 16 8786.6 562.489 3
1 1 -16 3473.61 424.993 6
1 1 -16 3337.72 291.499 2
1 1 -16 2875.89 378.864 3
-1 -1 16 3060.99 354.368 3
-1 -1 16 2866.18 387.218 1
1 2 -16 25206.6 1063.3 6
1 2 -16 25172.7 849.766 2
1 2 -16 24556.7 1036.46 3
-1 -2 16 24015.3 1092.96 1
-1 -2 16 24117.2 987.328 3
-1 -3 16 4354.01 457.136 3
1 3 -16 4376.56 401.54 2
-1 -3 16 4144.44 459.197 1
1 3 -16 3870.87 428.747 3
1 3 -16 4198 474.125 6
1 4 -16 3269.68 457.971 6
-1 -4 16 3710.37 458.693 1
-1 -4 16 3726.46 442.385 3
1 5 -16 9657.45 754.885 6
-1 -5 16 10810.8 771.226 1
-1 -5 16 11155.3 751.189 3
1 6 -16 942.799 267.183 6
-1 -6 16 973.187 279.468 1
-1 -6 16 419.618 224.56 3
1 7 -16 563.393 226.789 6
-1 -7 16 1024.84 315.101 1
-1 -7 16 552.155 266.213 3
1 8 -16 444.79 228.789 6
-1 -8 16 339.777 225.547 1
-1 -8 16 556.648 286.105 3
-1 -9 16 255.911 245.925 3
1 -9 -17 -209.835 171.67 4
-1 8 17 59.5684 163.411 5
1 -8 -17 -0.19156 137.71 4
-1 7 17 734.478 243.049 5
-1 6 17 34.9566 153.174 5
-1 5 17 1651.1 302.179 5
-1 4 17 1474.12 287.562 5
-1 3 17 -66.6394 148.232 5
1 -3 -17 -258.04 204.477 6
1 -2 -17 7671.57 643.682 6
-1 2 17 6243.12 524.052 5
-1 1 17 2450.61 218.06 4
1 -1 -17 2872.37 412.283 6
-1 0 17 104.618 133.422 3
1 0 -17 20.6583 125.476 3
1 0 -17 380.327 199.043 6
1 0 -17 336.896 108.806 2
1 1 -17 2175.03 352.953 3
-1 -1 17 1824.04 345.904 1
1 1 -17 3160.05 291.856 2
-1 -1 17 2660.3 346.401 3
1 1 -17 3291.98 422.102 6
-1 -2 17 -139.705 180.393 3
-1 -2 17 -13.3009 180.934 1
1 2 -17 595.135 185.176 2
1 2 -17 434.815 213.279 6
-1 -3 17 -3.70265 159.423 1
-1 -3 17 -73.2384 186.076 3
1 3 -17 143.443 178.85 6
1 3 -17 240.476 151.707 2
-1 -4 17 2575.38 393.936 3
1 4 -17 3106.92 449.67 6
-1 -4 17 3081.83 437.57 1
-1 -5 17 1292.08 324.58 1
-1 -5 17 1240.31 302.255 3
1 5 -17 1223.03 313.675 6
-1 -6 17 607.469 247.363 1
1 6 -17 819.59 290.524 6
-1 -6 17 550.92 232.46 3
1 7 -17 2690.88 456.418 6
-1 -7 17 2214.89 434.434 1
-1 -7 17 2034.81 393.362 3
-1 -8 17 435.228 247.838 3
-1 8 18 18.0629 171.044 5
-1 7 18 213.129 182.105 5
-1 6 18 95.5164 163.792 5
-1 5 18 -132.047 165.246 5
-1 4 18 224.566 183.393 5
1 -3 -18 708.574 261.302 6
-1 3 18 661.112 223.128 5
1 -2 -18 2529.9 403.749 6
-1 2 18 2222.53 337.602 5
1 -1 -18 391.118 55.7042 2
-1 1 18 273.051 96.0396 4
-1 0 18 15861.6 793.816 3
-1 0 18 11961.6 449.573 4
1 0 -18 12384.4 439.33 2
1 0 -18 15707.6 871.885 6
-1 -1 18 1217.45 253.573 3
1 1 -18 2059.12 345.828 6
1 1 -18 2067.58 240.29 2
-1 -1 18 1933.36 346.158 1
-1 -2 18 1938.41 321.284 3
1 2 -18 2348.85 292.595 2
-1 -2 18 1676.12 348.617 1
1 2 -18 1780.76 329.115 6
1 3 -18 19692.7 840.345 2
-1 -3 18 17702.7 985.266 1
-1 -3 18 19951.5 1034.09 3
1 3 -18 18944.7 1020.31 6
-1 -4 18 4275.9 508.016 3
-1 -4 18 3530.94 483.44 1
1 4 -18 3833.43 502.776 6
-1 -5 18 1151.51 311.578 3
-1 -5 18 1398.95 337.584 1
1 5 -18 1850.41 390.148 6
-1 -6 18 3628.66 502.275 3
1 6 -18 3076.71 494.539 6
-1 -6 18 3562.44 502.182 1
1 7 -18 515.724 263.717 6
-1 -7 18 73.0767 200.88 3
-1 -7 18 -284.772 248.619 1
-1 -8 18 135.672 211.505 3
-1 7 19 509.44 241.582 5
-1 6 19 115.286 168.126 5
-1 5 19 54.629 146.978 5
-1 4 19 1977.98 348.528 5
1 -3 -19 1739.99 372.199 6
-1 3 19 1921.56 340.51 5
-1 2 19 365.918 180.225 5
1 -2 -19 348.38 213.005 6
-1 1 19 2150.04 205.039 4
1 -1 -19 3338.87 465.106 6
-1 0 19 1535.89 291.222 3
-1 0 19 776.109 126.12 4
1 0 -19 1584.63 170.068 2
1 0 -19 1798.45 334.515 6
-1 -1 19 1.71917 144.72 3
1 1 -19 252.814 210.234 6
1 1 -19 454.275 151.648 2
-1 -2 19 459.055 216.424 3
1 2 -19 1155.58 237.218 2
-1 -2 19 71.112 233.296 1
1 2 -19 1015.59 297.049 6
1 3 -19 120.576 175.728 6
-1 -3 19 -589.399 278.948 3
-1 -4 19 -34.2967 215.232 3
-1 -4 19 97.9425 208.449 1
1 4 -19 277.124 199.914 6
-1 -5 19 1347.73 347.851 3
-1 -5 19 1741.55 383.022 1
1 5 -19 1587.47 387.26 6
-1 -6 19 932.006 314.341 1
1 6 -19 500.671 248.065 6
-1 -6 19 979.532 311.188 3
-1 -7 19 -134.957 220.377 1
1 7 -19 279.448 216.843 6
-1 -7 19 -250.69 228.254 3
-1 -8 19 1186.54 350.845 3
-1 7 20 -315.452 218.136 5
-1 6 20 -174.298 182.933 5
-1 5 20 -105.621 167.463 5
-1 4 20 -10.8848 143.826 5
-1 3 20 -113.283 167.055 5
1 -3 -20 -129.825 203.463 6
-1 2 20 2524.26 387.714 5
1 -2 -20 2711.9 446.861 6
-1 1 20 -3.56096 68.5717 4
1 -1 -20 136.319 37.5284 2
-1 0 20 70.8714 147.398 3
-1 0 20 110.97 75.6786 4
1 0 -20 286.85 94.8658 2
1 0 -20 305.372 185.879 6
1 1 -20 12403.1 834.104 6
-1 -1 20 11568.8 812.327 1
1 1 -20 11082.7 518.473 2
-1 -1 20 12632.6 778.796 3
1 2 -20 7279.67 644.072 6
1 2 -20 7675.63 494.119 2
-1 -2 20 7160.17 680.761 1
-1 -2 20 6923.11 597.399 3
-1 -3 20 1815.72 359.322 3
1 3 -20 1904.71 373.039 6
-1 -3 20 1427.02 337.538 1
-1 -4 20 9202.07 790.429 1
-1 -4 20 9088.46 788.734 3
1 4 -20 8860.37 781.285 6
-1 -5 20 1912.22 407.271 1
-1 -5 20 1756.47 382.662 3
1 5 -20 2063.81 426.263 6
-1 -6 20 396.705 252.456 3
1 6 -20 584.65 276.949 6
-1 -6 20 454.719 247.913 1
-1 -7 20 1150.93 342.986 3
-1 6 21 -117.995 185.34 5
-1 5 21 716.222 263.033 5
-1 4 21 -137.556 175.48 5
-1 3 21 1152.77 301.874 5
1 -3 -21 1473.43 357.081 6
-1 2 21 1333.83 302.484 5
1 -2 -21 1243.62 347.657 6
1 -1 -21 193.483 203.133 6
1 0 -21 3457.82 472.889 6
-1 0 21 2644.29 229.379 4
-1 0 21 3432.42 427.591 3
-1 0 21 3028.28 449.606 1
-1 -1 21 390.078 199.54 3
-1 -1 21 750.73 268.721 1
1 1 -21 709.526 273.566 6
-1 -2 21 89.1366 169.039 3
-1 -2 21 -49.8987 206.922 1
1 2 -21 -88.4487 160.397 6
-1 -3 21 -201.172 243.006 3
-1 -3 21 -265.325 254.648 1
-1 -4 21 -27.3083 223.906 1
1 4 -21 122.066 217.75 6
-1 -5 21 -4.43522 211.788 3
-1 -5 21 32.0761 210.042 1
1 5 -21 -136.72 214.512 6
-1 -6 21 1155.63 357.185 3
1 6 -21 1194.08 367.772 6
-1 -6 21 1242.25 363.856 1
-1 -7 21 520.587 259.248 3
-1 6 22 -286.553 223.607 5
-1 5 22 247.986 199.442 5
-1 4 22 41.3559 164.68 5
-1 3 22 -121.041 179.971 5
1 -3 -22 59.4375 198.246 6
-1 2 22 113.882 175.602 5
1 -2 -22 292.736 230.209 6
1 -1 -22 2926.46 479.138 6
-1 0 22 3621 451.816 3
-1 0 22 3215.27 463.664 1
1 0 -22 2998.88 449.292 6
-1 -1 22 577.001 219.952 3
-1 -1 22 539.665 239.451 1
1 1 -22 995.611 299.731 6
-1 -2 22 9163.31 728.358 3
1 2 -22 9572.19 786.384 6
-1 -2 22 9431.55 812.214 1
-1 -3 22 3167.87 463.102 3
-1 -3 22 2472.57 434.453 1
1 3 -22 2999.6 468.734 6
-1 -4 22 270.546 202.491 3
-1 -4 22 503.323 265.672 1
1 4 -22 516.151 253.808 6
-1 -5 22 3886.67 582.117 1
-1 -5 22 3733.42 567.587 3
1 5 -22 3638.82 561.633 6
-1 -6 22 138.605 211.305 3
-1 -7 22 -204.123 249.818 3
-1 5 23 358.055 216.713 5
-1 4 23 247.63 202.783 5
-1 3 23 286.27 219.726 5
1 -3 -23 315.142 255.637 6
1 -2 -23 2033.36 423.923 6
-1 2 23 1596.32 342.713 5
1 -1 -23 2295.02 437.523 6
-1 0 23 86.4448 165.719 3
-1 0 23 -341.729 269.154 1
1 0 -23 40.4607 176.927 6
-1 -1 23 565.231 235.663 3
-1 -1 23 568.464 274.998 1
1 1 -23 968.65 314.255 6
-1 -2 23 183.413 222.443 1
-1 -2 23 373.164 224.898 3
1 2 -23 776.696 290.849 6
-1 -3 23 68.3297 184.348 3
1 3 -23 -46.8111 170.61 6
-1 -4 23 -93.0975 225.562 3
1 4 -23 635.793 293.185 6
-1 -4 23 32.3407 206.104 1
-1 -5 23 259.513 252.038 1
1 5 -23 647.962 291.678 6
-1 -5 23 59.665 223.882 3
-1 -6 23 16.6052 214.087 3
-1 5 24 244.968 224.203 5
-1 4 24 74.9383 179.511 5
1 -3 -24 454.487 263.267 6
-1 3 24 458.498 239.361 5
-1 2 24 164.693 184.665 5
1 -2 -24 505.263 264.112 6
1 -1 -24 87.6004 200.286 6
-1 0 24 3672.61 517.809 1
-1 0 24 3902.35 488.326 3
1 0 -24 3713.53 522.206 6
-1 -1 24 1788.42 392.85 1
-1 -1 24 1480.39 322.922 3
1 1 -24 1410.04 350.431 6
-1 -2 24 109.407 165.064 3
-1 -2 24 -127.956 226.595 1
1 2 -24 198.365 203.226 6
-1 -3 24 4103.16 548.895 3
-1 -3 24 4800.05 611.933 1
1 3 -24 4143.93 569.177 6
-1 -4 24 1263.29 364.07 1
1 4 -24 1656.61 392.17 6
-1 -4 24 1442.84 375.098 3
-1 -5 24 136.705 207.889 3
-1 4 25 18.8699 166.418 5
-1 3 25 668.942 285.568 5
1 -3 -25 710.423 298.031 6
-1 2 25 86.4034 169.139 5
1 -2 -25 220.628 209.087 6
1 -1 -25 1172.11 346.259 6
-1 0 25 757.265 253.269 3
-1 0 25 981.23 311.285 1
1 0 -25 927.893 302.787 6
-1 -1 25 181.965 188.618 3
-1 -1 25 -425.397 277.009 1
1 1 -25 -1.16432 183.939 6
-1 -2 25 355.3 247.887 1
-1 -2 25 402.934 228.57 3
1 2 -25 664.41 290.575 6
-1 -3 25 -308.261 249.212 3
-1 -3 25 -56.9663 227.961 1
1 3 -25 252.634 252.044 6
-1 -4 25 60.295 185.577 3
-1 -5 25 750.057 326.584 3
1 -3 -26 174.38 232.054 6
-1 2 26 302.257 243.217 5
1 -2 -26 453.98 286.048 6
1 -1 -26 672.902 290.41 6
-1 1 26 -98.1367 229.364 1
1 0 -26 6.64298 186.537 6
-1 0 26 -64.0701 197.022 1
1 1 -26 1653.3 381.871 6
-1 -1 26 1670.23 364.282 3
-1 -1 26 2048.08 423.951 1
-1 -2 26 1687.97 394.64 1
-1 -2 26 1512.93 363.379 3
1 2 -26 1894.33 407.752 6
-1 -3 26 139.875 166.703 3
-1 -4 26 3532.11 553.005 3
1 -3 -27 811.977 338.017 6
1 -2 -27 548.003 304.217 6
1 -1 -27 203.748 203.547 6
1 0 -27 947.9 308.465 6
-1 -1 27 634.237 261.239 3
1 1 -27 522.843 259.694 6
-1 -2 27 118.077 161.777 3
-1 -3 27 265.455 250.846 3
1 -2 -28 84.5275 182.437 6
1 -1 -28 493.103 260.026 6
-2 3 -25 768.192 286.792 6
-2 4 -24 290.692 266.443 6
-2 3 -24 596.934 258 6
-2 2 -24 -26.0289 160.275 6
-2 4 -23 482.084 265.698 6
-2 3 -23 144.94 193.415 6
2 -2 23 465.785 270.744 3
2 -2 23 286.043 185.92 1
-2 2 -23 537.586 243.693 6
2 -1 23 185.677 220.205 3
2 -1 23 -158.406 181.504 1
-2 1 -23 208.962 158.342 6
2 0 23 275.36 213.098 3
2 0 23 169.25 188.614 1
2 1 23 219.099 191.039 3
2 1 23 -113.505 149.822 1
2 2 23 158.236 129.896 5
-2 5 -22 550.455 259.332 6
2 -4 22 78.1209 157.058 1
-2 4 -22 197.362 196.328 6
2 -3 22 544.144 226.038 1
2 -3 22 435.167 269.905 3
-2 3 -22 469.89 243.098 6
2 -2 22 1274.96 293.066 1
-2 2 -22 1097.18 289.753 6
2 -2 22 1787.69 408.911 3
2 -1 22 -284.566 237.187 3
2 -1 22 -496.356 240.798 1
-2 1 -22 68.1829 153.056 6
2 0 22 1046.29 262.587 1
2 0 22 1173.31 316.185 3
-2 0 -22 1115.24 244.576 6
2 1 22 470.64 229.838 3
2 1 22 365.666 185.653 1
2 2 22 198.279 143.206 5
-2 -2 -22 13.6034 125.707 2
-2 5 -21 -5.154 148.612 6
2 -5 21 119.243 153.109 1
2 -4 21 909.039 363.728 3
-2 4 -21 1129.96 307.891 6
2 -4 21 991.017 266.203 1
2 -3 21 52.9136 219.308 3
-2 3 -21 708.705 272.062 6
2 -3 21 617.135 213.875 1
2 -2 21 -60.0257 200.088 3
2 -2 21 148.482 159.557 1
-2 2 -21 270.645 212.058 6
2 -1 21 212.496 170.441 1
2 -1 21 79.9349 167.342 3
-2 1 -21 561.993 214.301 6
2 0 21 255.02 222.774 3
-2 0 -21 142.65 144.793 6
2 0 21 221.851 173.355 1
2 1 21 33.8206 122.354 1
2 1 21 142.282 181.471 3
2 2 21 296.21 144.726 5
-2 -2 -21 130.869 136.144 2
-2 -3 -21 139.616 129.563 2
2 3 21 -32.3401 119.954 5
-2 6 -20 411.989 225.358 6
2 -6 20 652.482 221.934 1
2 -5 20 378.67 258.483 3
2 -5 20 178.718 179.665 1
-2 5 -20 270.355 192.102 6
2 -4 20 385.157 270.158 3
2 -4 20 1080.7 266.227 1
-2 4 -20 1248.15 300.498 6
2 -3 20 111.387 206.501 3
-2 3 -20 236.474 185.569 6
2 -3 20 401.288 175.73 1
2 -2 20 1114.41 324.599 3
2 -2 20 822.554 223.683 1
-2 2 -20 1074.54 282.397 6
2 -1 20 2423.95 414.653 3
2 -1 20 1646.74 296.27 1
-2 1 -20 1802.73 309.15 6
2 0 20 -245.015 190.774 1
2 0 20 130.721 167.88 3
-2 0 -20 169.639 146.056 6
2 1 20 1601.35 274.689 1
2 1 20 1819.76 359.27 3
-2 -1 -20 1650.98 254.139 6
2 2 20 920.089 212.86 5
2 3 20 100.158 115.128 5
-2 -3 -20 -134.16 133.472 2
2 -7 19 -264.49 178.127 1
-2 6 -19 1091.05 303.728 6
2 -6 19 989.19 261.068 1
2 -5 19 609.791 306.294 3
2 -5 19 897.575 245.132 1
-2 5 -19 821.408 249.029 6
2 -4 19 -148.822 220.459 3
-2 4 -19 22.2052 150.345 6
2 -4 19 262.744 170.949 1
2 -3 19 1188.62 341.655 3
-2 3 -19 1381.74 286.946 6
2 -3 19 1190.99 264.655 1
2 -2 19 -277.929 243.402 3
2 -2 19 -264.264 192.611 1
-2 2 -19 259.906 191.915 6
2 -1 19 -9.10329 161.47 3
-2 1 -19 42.4249 134.34 6
2 -1 19 -217.005 183.156 1
2 0 19 293.666 217.533 3
-2 0 -19 171.926 138.097 6
2 0 19 173.131 168.066 1
2 1 19 432.674 227.664 3
-2 -1 -19 194.108 130.542 6
2 2 19 38.3988 99.385 5
2 3 19 275.78 155.273 5
-2 -3 -19 326.766 162.463 2
2 4 19 531.591 182.144 5
-2 -4 -19 430.642 156.194 2
2 -7 18 31.8962 137.238 1
2 -6 18 345.53 186.599 1
-2 6 -18 181.424 179.869 6
2 -6 18 32.2178 211.192 3
2 -5 18 629.75 216.505 1
-2 5 -18 214.514 179.624 6
2 -5 18 372.041 269.215 3
2 -4 18 -151.756 244.285 3
-2 4 -18 -122.29 160.476 6
2 -4 18 475.124 190.556 1
2 -3 18 2637.24 353.144 1
2 -3 18 2653.81 477.536 3
-2 3 -18 2469.03 345.811 6
2 -2 18 -280.193 244.458 3
2 -2 18 -163.784 162.476 1
-2 2 -18 12.6386 140.65 6
2 -1 18 3055.56 437.734 3
2 -1 18 2250.43 317.548 1
-2 1 -18 3007.72 370.954 6
2 0 18 2630.23 404.086 3
2 0 18 2118.29 306.393 1
-2 0 -18 2628.54 306.295 6
2 1 18 -64.1907 175.74 3
-2 -1 -18 -87.481 98.4363 6
-2 -2 -18 1319.15 212.415 6
2 3 18 629.072 187.127 5
-2 -3 -18 407.795 167.215 2
-2 -4 -18 140.006 135.456 2
2 4 18 117.675 119.725 5
-2 -5 -18 -14.2599 128.918 2
2 -8 17 518.156 226.244 1
2 -7 17 746.57 242.693 1
-2 7 -17 876.846 277.165 6
2 -6 17 -7.15413 131.707 1
2 -6 17 -66.497 211.298 3
-2 6 -17 116.625 166.572 6
2 -5 17 1300.45 360.049 3
-2 5 -17 1235.47 278.634 6
2 -5 17 917.357 221.789 1
2 -4 17 1256.32 343.674 3
-2 4 -17 789.148 233.013 6
2 -4 17 1353.69 253.961 1
2 -3 17 467.033 260.028 3
-2 3 -17 471.971 174.664 6
2 -3 17 488.125 174.949 1
2 -2 17 645.692 260.033 3
2 -2 17 1112.16 234.066 1
-2 2 -17 1319.53 258.796 6
-2 1 -17 516.707 201.191 6
2 -1 17 477.822 223.768 3
2 -1 17 158.845 145.743 1
2 0 17 -10.9543 132.292 1
2 0 17 -90.8948 145.849 3
-2 0 -17 354.106 160.229 6
2 1 17 363.832 197.308 3
-2 -1 -17 142.814 115.791 6
2 2 17 579.465 243.419 3
-2 -2 -17 565.699 147.495 6
2 3 17 150.756 127.325 5
-2 -3 -17 -53.0616 132.98 2
2 4 17 385.573 150.949 5
-2 -4 -17 477.923 164.765 2
2 5 17 648.61 176.583 5
-2 -5 -17 392.222 160.87 2
-2 -6 -17 16.5334 109.873 2
2 -8 16 179.276 160.403 1
2 -7 16 280.619 162.246 1
-2 7 -16 498.684 237.591 6
2 -7 16 215.113 127.117 4
2 -7 16 174.921 209.474 3
2 -6 16 -27.3818 168.6 3
2 -6 16 273.078 129.393 4
-2 6 -16 219.549 190.395 6
2 -6 16 113.051 134.333 1
2 -5 16 983.711 186.834 4
2 -5 16 992.969 224.325 1
-2 5 -16 1045.92 261.204 6
2 -5 16 809.991 291.735 3
2 -4 16 1090.97 320.296 3
2 -4 16 869.511 159.209 4
2 -4 16 1122.72 225.088 1
-2 4 -16 1101.3 245.642 6
-2 3 -16 1669.01 278.096 6
2 -3 16 1454.81 349.812 3
2 -3 16 1665.38 264.189 1
2 -2 16 3079.87 451.018 3
-2 2 -16 3890.56 378.896 6
2 -2 16 3520.92 353.225 1
2 -1 16 142.79 167.283 3
2 -1 16 105.731 112.379 5
-2 1 -16 261.311 158.903 6
2 -1 16 -181.208 170.32 1
-2 0 -16 5102.37 398.061 6
2 0 16 4802.43 405.127 1
2 0 16 4529.29 487.915 3
2 1 16 4451.26 480.294 3
-2 -1 -16 4526.02 336.833 6
2 2 16 85.8982 151.318 3
-2 -2 -16 -52.7297 107.904 6
-2 -3 -16 2283.07 307.611 2
2 3 16 2887.59 313.557 5
2 4 16 396.305 143.639 5
-2 -4 -16 253.287 138.728 2
2 5 16 -38.166 98.0749 5
-2 -5 -16 -18.2948 118.748 2
-2 -6 -16 108.978 133.641 2
2 -9 15 207.434 194.617 1
2 -8 15 138.826 152.641 1
2 -8 15 74.8127 101.876 4
2 -7 15 334.605 132.235 4
2 -7 15 369.406 169.651 1
-2 7 -15 532.326 227.742 6
2 -7 15 -119.256 205.399 3
2 -6 15 1383.24 253.897 1
2 -6 15 1489.25 225.115 4
2 -6 15 1903.49 398.448 3
-2 6 -15 1553.88 312.873 6
2 -5 15 158.387 123.423 4
2 -5 15 94.085 119.133 1
-2 5 -15 54.0796 144.668 6
2 -5 15 -173.792 212.183 3
2 -4 15 3778.49 365.733 1
2 -4 15 3620.32 304.128 4
2 -4 15 3551.31 489.051 3
-2 4 -15 3250.93 380.105 6
2 -3 15 1075.46 304.236 3
2 -3 15 1348.53 222.61 1
-2 3 -15 1627.89 266.713 6
2 -2 15 75.5962 172.646 3
2 -2 15 163.129 120.912 1
-2 2 -15 56.4004 124.153 6
2 -1 15 1096.79 281.648 3
-2 1 -15 1226.85 220.02 6
2 -1 15 517.989 158.628 1
2 -1 15 1333.65 223.49 5
2 0 15 372.447 211.652 3
2 0 15 226.618 149.73 1
-2 0 -15 569.496 176.526 6
2 1 15 577.993 221.776 3
-2 -1 -15 387.501 132.907 6
2 2 15 602.485 221.51 3
-2 -2 -15 360.727 115.557 6
-2 -3 -15 809.175 74.1426 4
2 3 15 1421.97 218.413 1
-2 -3 -15 1176.92 235.116 2
2 3 15 1680.33 235.004 5
2 4 15 186.906 117.094 5
-2 -4 -15 226.208 149.192 2
2 5 15 415.604 131.963 5
-2 -5 -15 105.908 128.124 2
2 6 15 290.806 128.764 5
-2 -6 -15 181.19 141.422 2
-2 -7 -15 279.233 156.784 2
2 -9 14 316.535 179.219 4
2 -9 14 195.41 171.483 1
2 -8 14 116.994 159.867 1
2 -8 14 307.457 169.764 4
-2 8 -14 337.127 205.02 6
2 -7 14 293.874 141.399 4
-2 7 -14 27.0853 158.368 6
2 -7 14 130.852 196.092 3
2 -7 14 213.374 160.892 1
2 -6 14 1033.68 227.395 1
2 -6 14 1130.73 199.857 4
-2 6 -14 1066.49 267.467 6
2 -6 14 1067.45 303.974 3
2 -5 14 226.604 121.879 4
2 -5 14 113.817 120.681 1
-2 5 -14 328.945 189.765 6
2 -5 14 35.7798 162.566 3
2 -4 14 3448.28 339.143 1
2 -4 14 2107.92 383.705 3
-2 4 -14 2769.06 348.181 6
2 -4 14 2834.7 285.419 4
2 -3 14 781.666 245.548 3
2 -3 14 390.401 142.927 1
-2 3 -14 392.754 156.185 6
-2 2 -14 3521.63 334.013 6
2 -2 14 2907.29 414.178 3
2 -2 14 3514.71 317.181 1
2 -2 14 3736.26 343.109 5
2 -1 14 10796 537.442 1
-2 1 -14 10733.6 532.135 6
2 -1 14 9032.47 661.873 3
2 -1 14 10879.6 544.937 5
2 0 14 -251.016 184.709 3
-2 0 -14 -37.8384 108.306 6
2 0 14 -277.764 157.255 1
2 1 14 7477.44 586.254 3
-2 -1 -14 6972.61 383.884 6
-2 -2 -14 2400.64 209.445 6
2 2 14 2936.7 387.844 3
2 3 14 165.836 109.533 5
2 3 14 -26.0473 83.6145 1
-2 -3 -14 -198.208 141.272 2
2 4 14 1096.18 178.966 5
-2 -4 -14 1040.19 210.908 2
2 4 14 1054.04 197.432 1
2 5 14 289.31 113.899 5
-2 -5 -14 184.347 135.935 2
2 6 14 -153.686 115.821 5
-2 -6 -14 112.014 133.553 2
-2 -7 -14 241.996 155.01 2
2 -9 13 165.177 161.654 4
2 -9 13 295.018 194.206 1
-2 8 -13 449.882 220.587 6
2 -8 13 577.053 200.307 4
2 -8 13 595.722 292.256 3
2 -8 13 525.855 198.032 1
-2 7 -13 101.648 158.555 6
2 -7 13 193.764 143.347 1
2 -7 13 296.731 139.706 4
2 -7 13 -7.00844 184.801 3
2 -6 13 1978.7 281.468 1
2 -6 13 1749.83 239.562 4
-2 6 -13 2140.82 351.134 6
2 -6 13 2013.26 403.377 3
2 -5 13 2449.52 289.449 1
-2 5 -13 2674.72 353.048 1
2 -5 13 2512.93 269.047 4
-2 5 -13 2587.13 352.296 6
2 -5 13 2479.38 404.069 3
2 -4 13 121.376 114.557 4
2 -4 13 113.771 112.725 1
-2 4 -13 303.417 155.39 6
-2 3 -13 3279.66 331.989 6
2 -3 13 3346.02 437.134 3
2 -3 13 3245.45 288.608 1
2 -2 13 893.291 266.82 3
2 -2 13 1195.86 198.815 1
-2 2 -13 1806.26 247.81 6
2 -2 13 1717.42 232.676 5
2 -1 13 793.217 238.635 3
-2 1 -13 1201.2 195.09 6
2 -1 13 722.466 162.933 1
2 -1 13 1041.56 180.499 5
2 0 13 139.544 165.267 3
-2 0 -13 192.702 120.059 6
2 0 13 111.463 118.779 1
-2 -1 -13 604.32 141.429 6
2 1 13 719.6 235.369 3
2 2 13 9.92767 152.032 3
-2 -2 -13 138.789 78.8039 6
2 3 13 369.924 123.349 5
2 3 13 307.3 121.571 1
-2 -3 -13 109.93 126.169 2
-2 -4 -13 1527.41 245.119 2
2 4 13 1294.23 183.282 5
2 4 13 1141.85 199.311 1
2 5 13 -61.6401 91.3661 5
-2 -5 -13 -245.387 156.616 2
2 6 13 585.98 147.649 5
-2 -6 -13 521.274 181.633 2
-2 -7 -13 501.115 187.968 2
2 -9 12 304.763 188.036 4
2 -9 12 32.4391 137.675 1
2 -8 12 282.45 171.268 1
2 -8 12 435.408 183.907 4
-2 8 -12 204.269 184.173 6
2 -8 12 -53.6502 185.968 3
2 -7 12 360.199 238.356 3
2 -7 12 597.923 183.403 4
2 -7 12 685.091 204.133 1
-2 7 -12 804.161 250.419 6
2 -6 12 812.898 210.438 1
2 -6 12 688.408 174.726 4
-2 6 -12 507.415 209.516 6
2 -6 12 631.818 269.547 3
2 -5 12 434.445 154.883 1
2 -5 12 739.735 165.819 4
-2 5 -12 547.094 191.847 1
2 -5 12 497.007 230.367 3
-2 5 -12 809.7 218.343 6
2 -4 12 454.237 202.693 3
2 -4 12 762.941 176.961 4
-2 4 -12 946.674 220.625 6
2 -4 12 537.667 152.037 1
2 -3 12 7212.94 404.003 1
-2 3 -12 7469.15 485.844 6
2 -3 12 7155.88 589.328 3
2 -3 12 6880.61 433.186 5
2 -2 12 1233.61 272.012 3
2 -2 12 1283.32 179.455 1
-2 2 -12 1397.12 209.131 6
2 -2 12 1428.08 198.04 5
2 -1 12 7985.54 406.112 1
-2 1 -12 8082.58 624.286 3
-2 1 -12 8095.71 417.876 6
2 -1 12 7165.39 568.856 3
2 -1 12 8434.25 430.788 5
-2 0 -12 10333.7 665.995 3
2 0 12 11510.7 674.95 3
-2 0 -12 9883.46 442.377 6
2 0 12 9269.73 458.823 1
-2 -1 -12 924.523 234.187 3
2 1 12 806.208 222.218 3
-2 -1 -12 1141.85 150.304 6
2 2 12 8739.05 593.975 3
-2 -2 -12 7446.41 274.157 6
-2 -3 -12 2670.82 312.898 2
2 3 12 2573.3 242.947 1
2 3 12 2947.33 242.214 5
2 4 12 48.2655 80.499 5
-2 -4 -12 125.496 128.445 2
2 4 12 6.54587 81.788 1
2 5 12 808.865 145.232 5
-2 -5 -12 850.341 205.425 2
2 6 12 157.927 93.8149 5
-2 -6 -12 -86.1952 125.261 2
2 7 12 -87.9792 88.3488 5
-2 -7 -12 257.223 165.164 2
2 -9 11 183.397 202.902 4
2 -9 11 41.8934 145.049 1
2 -8 11 312.49 181.842 4
-2 8 -11 224.183 179.412 6
2 -8 11 104.472 197.522 3
2 -8 11 145.364 142.688 1
2 -7 11 1514.77 266.483 4
-2 7 -11 1667.69 334.058 6
2 -7 11 1243.48 343.617 3
2 -7 11 1478.99 270.51 1
2 -6 11 16.2435 113.945 1
2 -6 11 245.062 135.927 4
-2 6 -11 -85.5633 163.094 6
2 -6 11 -182.702 193.808 3
2 -5 11 2208.09 263.372 1
2 -5 11 2396.07 261.6 4
2 -5 11 2295.12 378.613 3
-2 5 -11 2808.44 348.803 6
-2 5 -11 2629.38 332.637 1
2 -4 11 5007 347.537 1
2 -4 11 4786.06 497.238 3
2 -4 11 5875.74 392.05 4
-2 4 -11 5345.14 417.264 1
-2 4 -11 4895.6 415.643 6
2 -3 11 397.015 124.953 5
2 -3 11 658.577 170.646 4
-2 3 -11 438.094 157.551 6
2 -3 11 181.366 113.953 1
-2 2 -11 5425.42 367.612 6
2 -2 11 4559.73 290.591 1
-2 2 -11 5433.38 495.213 3
2 -2 11 4630.32 449.155 3
2 -2 11 5343.03 347.734 5
2 -1 11 651.624 224.911 3
-2 1 -11 1152.91 269.857 3
-2 1 -11 1737.3 210.251 6
2 -1 11 1052.7 160.555 1
2 -1 11 1532.14 194.084 5
2 0 11 739.831 221.497 3
-2 0 -11 596.541 135.359 6
-2 0 -11 374.716 171.305 3
-2 -1 -11 678.137 220.133 3
2 1 11 680.644 215.612 3
-2 -1 -11 846.07 131.226 6
2 2 11 2419.08 327.211 3
-2 -2 -11 2651.82 358.331 3
2 2 11 2442.7 221.703 5
-2 -3 -11 -131.917 142.662 2
2 3 11 34.7538 72.6757 1
2 3 11 72.0753 73.6219 5
-2 -4 -11 1808.84 256.367 2
2 4 11 1547.1 175.18 5
2 4 11 1424.19 199.314 1
2 5 11 886.81 145.997 5
-2 -5 -11 1156 227.886 2
2 6 11 130.423 88.4736 5
-2 -6 -11 216.155 145.464 2
2 7 11 668.602 144.814 5
-2 -7 -11 1098.94 248.318 2
2 -9 10 462.937 243.488 4
2 -9 10 304.784 195.253 1
2 -8 10 288.28 183.142 4
2 -8 10 86.3714 142.699 1
2 -8 10 343.039 253.041 3
2 -7 10 620.971 196.419 4
2 -7 10 324.122 216.523 3
2 -7 10 486.623 183.082 1
2 -6 10 445.772 161.64 1
2 -6 10 298.279 148.011 4
2 -6 10 39.9809 166.313 3
2 -5 10 1528 227.88 1
-2 5 -10 1428.99 256.636 1
2 -5 10 1441.03 220.557 4
2 -5 10 1120.49 288.971 3
2 -4 10 3026.38 268.131 1
2 -4 10 3404.21 303.768 4
2 -4 10 2741.79 378.782 3
-2 4 -10 3367.45 322.916 1
2 -3 10 1487.58 277.47 3
2 -3 10 2993.5 295.895 4
-2 3 -10 1522.81 289.334 3
-2 3 -10 2681.13 288.472 6
2 -3 10 1864.28 198.083 1
2 -3 10 2607.92 259.35 5
2 -2 10 15260.4 482.435 1
-2 2 -10 17322.1 820.855 3
2 -2 10 15955.6 777.514 3
-2 2 -10 15663.4 588.605 6
2 -2 10 15977.1 568.415 5
2 -1 10 2316.14 190.642 1
-2 1 -10 2570.86 338.9 3
-2 1 -10 3056.16 245.819 6
2 -1 10 2196.35 314.151 3
2 -1 10 2582.42 218.931 5
-2 0 -10 17876.9 497.249 6
2 0 10 17347.9 541.323 1
-2 0 -10 17751.6 818.845 3
2 0 10 20491.7 844.311 3
2 0 10 19006.5 537.267 5
-2 -1 -10 8894.64 326.602 6
2 1 10 8802.23 564.198 3
-2 -1 -10 10330.8 627.632 3
2 2 10 -53.8761 73.6451 5
-2 -2 -10 -67.0331 124.475 3
2 2 10 224.834 153.078 3
2 2 10 7.29111 62.2751 1
-2 -3 -10 4607.29 375.32 2
-2 -3 -10 4678.75 436.19 3
2 3 10 4791.01 260.804 5
2 3 10 4197.72 284.093 1
-2 -4 -10 2856.31 299.82 2
2 4 10 2647.64 207.709 5
2 4 10 2517.44 250.642 1
2 5 10 -2.25618 105.667 1
2 5 10 -29.7636 77.7118 5
-2 -5 -10 126.938 134.95 2
2 6 10 425.437 115.911 5
-2 -6 -10 360.647 167.453 2
2 6 10 59.4264 43.1559 6
-2 -7 -10 276.245 170.76 2
2 7 10 -49.6597 75.2074 5
2 -9 9 503.935 240.484 4
2 -9 9 395.181 195.172 1
2 -9 9 413.906 252.455 3
2 -8 9 258.924 170.858 4
2 -8 9 349.034 243.213 3
2 -8 9 282.816 174.413 1
2 -7 9 892.908 219.239 4
2 -7 9 928.671 295.187 3
2 -7 9 819.026 210.84 1
2 -6 9 3021.46 321.371 4
2 -6 9 3761.09 480.871 3
2 -6 9 3658.47 355.64 1
2 -5 9 338.904 133.629 1
2 -5 9 421.488 151.169 4
-2 5 -9 89.6105 130.492 1
2 -4 9 7453.17 398.059 1
2 -4 9 7918.02 445.909 4
2 -4 9 7562.08 584.607 3
-2 4 -9 8631.59 500.513 1
2 -4 9 7455.15 465.195 5
2 -3 9 6014.57 321.379 1
2 -3 9 7530.3 443.89 4
-2 3 -9 6004.8 505.34 3
2 -3 9 6083.85 495.451 3
-2 3 -9 6951.77 397.892 1
2 -3 9 6114.73 377.005 5
-2 2 -9 533.458 181.48 3
2 -2 9 684.445 120.859 1
2 -2 9 816.208 147.374 5
2 -2 9 623.911 197.114 3
2 -1 9 3033.2 201.738 1
-2 1 -9 3005.05 344.076 3
2 -1 9 3075.27 351.179 3
-2 1 -9 3494.03 253.891 6
2 -1 9 3314.64 235.465 5
2 0 9 293.528 180.43 3
2 0 9 -354.295 140.554 1
-2 0 -9 163.038 54.7 4
-2 0 -9 32.9954 134.811 3
-2 0 -9 602.35 119.873 6
2 0 9 600.443 121.982 5
2 1 9 632.01 192.685 3
-2 -1 -9 834.461 108.898 6
-2 -1 -9 860.166 213.445 3
2 2 9 586.747 102.078 5
-2 -2 -9 876.691 211.421 3
2 2 9 583.299 110.38 1
-2 -3 -9 1177.99 213.427 2
-2 -3 -9 1400.03 256.704 3
2 3 9 1205.23 159.684 1
2 3 9 1079.89 126.951 5
2 4 9 243.235 108.896 1
2 4 9 16.971 64.8902 5
2 5 9 2743.81 285.818 1
2 5 9 2644.58 216.055 5
-2 -5 -9 2980.83 325.672 2
2 6 9 878.431 143.085 5
2 6 9 473.755 95.3529 6
2 6 9 457.437 77.6097 6
-2 -7 -9 487.104 189.679 2
2 7 9 -48.5643 73.6352 5
2 8 9 130.893 92.4227 5
2 -10 8 318.108 202.987 1
2 -9 8 410.637 224.2 4
2 -9 8 186.379 168.675 1
2 -9 8 489.184 278.265 3
2 -8 8 691.181 217.573 1
2 -8 8 437.456 204.402 4
2 -8 8 672.954 298.024 3
-2 7 -8 396.02 188.549 5
2 -7 8 223.95 156.001 4
2 -7 8 111.444 140.957 1
2 -7 8 476.717 237.359 3
2 -6 8 890.758 203.449 4
2 -6 8 1226.41 300.123 3
2 -6 8 1078.25 214.79 1
-2 6 -8 1834.69 302.992 5
2 -5 8 402.526 150.904 4
-2 5 -8 211.829 143.854 1
2 -5 8 341.818 139.274 1
2 -5 8 -106.874 191.3 3
2 -4 8 6231.96 358.25 1
2 -4 8 5774.79 384.345 4
-2 4 -8 6335.1 404.424 1
2 -4 8 5801.41 506.991 3
2 -4 8 6385.32 439.713 5
2 -3 8 2527.08 206.334 1
2 -3 8 3915.51 323.812 4
-2 3 -8 2910.43 350.051 3
2 -3 8 2684.17 337.638 3
-2 3 -8 3102.19 266.029 1
2 -3 8 3035.55 268.876 5
2 -2 8 9123.54 339.777 1
-2 2 -8 8337.15 534.837 3
2 -2 8 8802.8 531.294 3
2 -2 8 9222.08 407.074 5
2 -1 8 10995.3 323.589 1
-2 1 -8 12983.7 648.972 3
2 -1 8 11693 410.884 5
2 -1 8 11348.5 597.775 3
-2 0 -8 2183.59 134.744 4
-2 0 -8 2673.79 181.654 6
2 0 8 2447.74 170.271 1
-2 0 -8 2439.22 294.851 3
2 0 8 2713.18 305.532 3
2 0 8 2827.99 186.529 5
2 1 8 11422.9 589.97 3
-2 -1 -8 9587.2 285.863 6
-2 -2 -8 13449.1 612.591 2
-2 -2 -8 13937.6 680.948 3
2 2 8 13261.3 350.588 5
2 2 8 12539 394.68 1
2 3 8 -63.8306 56.9981 5
-2 -3 -8 -31.5659 112.666 2
-2 -3 -8 8.31414 113.621 3
2 3 8 37.2336 65.9663 1
2 4 8 7293.71 299.818 5
-2 -4 -8 8117.66 474.256 2
-2 -4 -8 8019.19 535.988 3
2 4 8 6862.63 386.015 1
2 5 8 1485.28 223.499 1
-2 -5 -8 1203.88 230.088 2
2 5 8 589.022 65.4463 6
2 5 8 1100.84 145.442 5
2 6 8 48.1809 58.8257 6
2 6 8 32.2389 72.2577 5
2 6 8 59.9139 75.15 6
-2 -7 -8 599.455 207.148 2
2 7 8 382.452 120.74 6
2 8 8 74.7892 87.5084 5
2 -10 7 174.782 190.907 1
-2 9 -7 157.687 167.629 5
2 -9 7 326.165 212.676 4
2 -9 7 180.537 165.616 1
2 -9 7 285.637 243.751 3
2 -8 7 1283.4 294.593 4
2 -8 7 1186.12 257.087 1
2 -8 7 1733.33 386.709 3
-2 8 -7 1652.73 319.674 5
-2 7 -7 299.952 176.978 5
2 -7 7 368.077 174.731 4
2 -7 7 195.387 144.48 1
2 -7 7 260.289 202.918 3
-2 6 -7 1811.46 278.969 1
2 -6 7 1167.6 221.229 4
2 -6 7 2055.96 359.597 3
2 -6 7 1530.93 235.959 1
-2 6 -7 2044.36 303.224 5
-2 5 -7 7221.49 473.264 1
2 -5 7 6633.74 557.464 3
-2 5 -7 7148.09 491.678 5
2 -5 7 6582.25 406.72 1
2 -4 7 225.054 111.054 1
2 -4 7 80.0097 107.408 5
-2 4 -7 215.922 139.253 5
2 -4 7 360.771 140.815 4
-2 4 -7 -98.7621 159.987 3
-2 4 -7 31.4408 97.6265 1
2 -4 7 -211.59 193.761 3
2 -3 7 5387.53 284.545 1
2 -3 7 6002.44 393.777 4
-2 3 -7 5495.57 453.914 3
-2 3 -7 6003.09 340.674 1
2 -3 7 4914.55 428.597 3
2 -3 7 5700.08 359.929 5
2 -2 7 10832.3 336.099 1
-2 2 -7 11451 597.097 3
2 -2 7 10950.9 568.874 3
2 -2 7 11325.8 435.879 5
2 -1 7 1662.64 115.799 1
-2 1 -7 2004.98 261.419 3
2 -1 7 1943.59 256.783 3
2 -1 7 2023.97 168.625 5
-2 0 -7 1776.12 245.786 3
2 0 7 1606.41 121.475 1
2 0 7 1816.05 257.438 3
-2 0 -7 2051.81 159.96 6
2 0 7 1849.06 144.142 5
-2 -1 -7 196.088 173.462 3
2 1 7 126.158 144.983 3
2 1 7 305.39 76.1254 1
-2 -1 -7 180.724 53.9268 6
2 2 7 104.55 46.9159 5
-2 -2 -7 347.533 162.036 3
-2 -2 -7 29.6533 133.687 2
2 2 7 141.637 74.6198 1
-2 -3 -7 1518.55 229.582 2
-2 -3 -7 1438.02 227.901 3
2 3 7 1284.28 108.679 5
2 3 7 1651.61 178.59 1
2 4 7 3340.43 275.755 1
-2 -4 -7 4278.02 353.46 2
-2 -4 -7 3915.83 368.131 3
2 4 7 3115.15 190.987 5
-2 -5 -7 -24.4156 118.902 2
2 5 7 -25.1217 64.2692 5
2 5 7 -19.9012 87.5519 1
2 5 7 -70.1487 50.9193 6
2 5 7 -19.9917 40.0332 6
2 6 7 1855.03 197.618 6
-2 -6 -7 2256.01 294.257 2
2 6 7 1179.62 147.873 6
2 6 7 1866.64 185.223 5
2 7 7 1187.2 185.371 6
-2 -7 -7 1520.01 274.217 2
2 8 7 -128.781 91.0472 5
2 -10 6 363.747 213.231 1
-2 9 -6 247.677 173.54 5
2 -9 6 317.625 232.523 4
2 -9 6 135.799 155.186 1
2 -9 6 -77.696 183.732 3
-2 8 -6 259.129 183.705 5
2 -8 6 398.725 222.392 4
2 -8 6 376.721 188.238 1
2 -8 6 -81.9027 174.872 3
-2 7 -6 531.939 207.932 5
2 -7 6 917.545 235.934 4
2 -7 6 579.841 253.255 3
2 -7 6 396.729 166.849 1
-2 6 -6 64.9287 132.866 1
-2 6 -6 251.208 167.292 5
2 -6 6 447.009 169.974 4
2 -6 6 219.872 200.477 3
2 -6 6 189.454 133.065 1
2 -5 6 2074.54 257.814 4
-2 5 -6 2417.77 286.678 1
2 -5 6 2293.48 346.089 3
2 -5 6 2025.07 241.25 1
-2 5 -6 2875.05 324.914 5
2 -4 6 408.118 160.325 5
-2 4 -6 250.254 134.867 1
2 -4 6 622.526 167.243 4
-2 4 -6 881.463 202.778 5
-2 4 -6 341.25 187.738 3
2 -4 6 285.011 186.426 3
2 -4 6 399.483 131.263 1
2 -3 6 7690.62 323.862 1
2 -3 6 7138.18 422.95 4
-2 3 -6 7921.88 366.566 1
-2 3 -6 6695.15 489.68 3
2 -3 6 7143.27 494.175 3
2 -3 6 8409.31 433.47 5
-2 3 -6 8139.02 426.586 5
2 -2 6 7923.28 268.701 1
-2 2 -6 8766.73 502.998 3
2 -2 6 7942.63 470.953 3
-2 2 -6 8533.64 321.738 1
2 -2 6 8356.49 374.228 5
2 -1 6 10786.1 238.841 1
-2 1 -6 13016.2 348.838 4
-2 1 -6 14277.6 600.367 3
2 -1 6 12907.5 569.875 3
2 -1 6 12072.1 378.83 5
-2 0 -6 29364.2 855.024 3
2 0 6 27445.4 846.126 3
2 0 6 26205 458.748 5
-2 -1 -6 239.963 132.314 3
2 1 6 324.134 139.736 3
-2 -1 -6 368.989 47.0635 6
2 1 6 366.127 56.9728 5
2 1 6 360.838 61.6556 1
-2 -2 -6 25293.1 785.947 2
2 2 6 23688.9 502.891 1
-2 -2 -6 26451.5 829.172 3
2 3 6 16280.8 503.253 1
-2 -3 -6 16838.3 636.077 2
-2 -3 -6 18159.8 689.805 3
2 4 6 -75.6353 63.5195 5
-2 -4 -6 64.9165 109.359 3
2 4 6 31.7529 80.1775 1
2 5 6 1238.04 200.651 1
-2 -5 -6 1284.83 239.645 3
2 5 6 835.614 115.067 6
-2 -5 -6 1130.6 216.218 2
2 5 6 680.347 95.5618 6
-2 -5 -6 1114.56 159.301 5
2 5 6 1055.31 127.046 5
-2 -6 -6 396.28 127.816 5
2 6 6 474.999 113.616 5
2 6 6 515.125 137.548 6
-2 -7 -6 39.5077 117.169 5
2 7 6 78.6657 80.6217 5
2 7 6 184.649 137.352 6
2 8 6 115.615 91.4019 5
2 8 6 132.889 128.472 6
2 9 6 21.957 102.444 5
2 -9 5 301.062 248.991 3
-2 9 -5 242.897 174.097 5
2 -9 5 428.356 237.343 4
2 -9 5 352.587 187.197 1
-2 8 -5 -23.4875 139.71 5
2 -8 5 124.549 144.286 1
2 -8 5 299.891 197.861 4
2 -8 5 312.004 211.547 3
2 -7 5 2108.94 317.557 4
2 -7 5 1809.17 368.392 3
2 -7 5 2086.55 296.118 1
-2 7 -5 2426.72 342.67 5
-2 6 -5 999.483 221.732 5
2 -6 5 1249.03 230.675 4
2 -6 5 1284.79 290.932 3
2 -6 5 925.463 192.653 1
-2 6 -5 832.855 203.748 1
-2 5 -5 3721.28 334.951 1
2 -5 5 3893.55 330.861 4
-2 5 -5 4477.7 385.031 5
2 -5 5 4133.25 434.277 3
2 -5 5 3444.64 296.36 1
-2 4 -5 16098 594.83 1
-2 4 -5 15226.7 749.311 3
2 -4 5 15079.2 725.497 3
-2 4 -5 15694.2 641.549 5
2 -4 5 15230.1 637.947 5
2 -4 5 13422.2 559.023 4
2 -4 5 14104.3 498.776 1
2 -3 5 695.104 140.321 5
-2 3 -5 809.738 136.345 1
-2 3 -5 858.153 162.583 5
2 -3 5 711.634 165.054 4
2 -3 5 453.778 153.424 3
-2 3 -5 435.085 140.754 3
2 -3 5 760.848 118.212 1
-2 2 -5 7856.72 461.686 3
-2 2 -5 8192.05 293.312 1
2 -2 5 7501.4 446.471 3
2 -2 5 7407.01 351.577 5
2 -2 5 7149.32 243.612 1
-2 2 -5 7627.89 358.864 5
-2 1 -5 1980.11 161.539 4
-2 1 -5 1876.97 232.552 3
2 -1 5 1747.43 224.693 3
2 -1 5 2303.77 178.52 5
2 -1 5 1629.87 79.5089 1
2 0 5 196.146 138.274 3
2 0 5 238.682 65.6561 5
-2 0 -5 246.497 133.03 3
2 1 5 925.399 80.3048 1
2 1 5 1631.29 217.883 3
-2 -1 -5 815.349 71.2817 6
-2 -1 -5 1704 246.311 3
-2 -1 -5 964.69 63.6507 6
2 1 5 1171.34 66.9627 5
2 2 5 1356.45 141.124 1
-2 -2 -5 1789.59 247.77 2
-2 -2 -5 1577.23 237.999 3
2 3 5 940.906 144.919 1
-2 -3 -5 1284.47 211.042 2
-2 -3 -5 1233.89 200.488 3
2 4 5 6693.03 370.921 1
-2 -4 -5 6911.77 421.065 2
-2 -4 -5 6951.88 436.811 3
2 4 5 5777.84 222.418 5
2 5 5 2822.82 283.613 1
2 5 5 2873.71 318.12 2
-2 -5 -5 2797.78 305.587 2
2 5 5 2470.22 198.252 6
-2 -5 -5 2589.86 222.555 5
2 5 5 2710.58 193.418 5
2 6 5 -56.4074 83.324 5
2 6 5 193.29 116.324 6
-2 -6 -5 103.798 95.6882 5
2 7 5 1672.77 244.52 6
-2 -7 -5 1358.96 222.557 5
2 7 5 1402.71 187.96 5
2 8 5 443.349 135.862 5
2 8 5 481.66 167.098 6
2 9 5 124.873 107.72 5
-2 -10 -5 0.34619 189.156 3
-2 9 -4 519.537 218.827 5
2 -9 4 512.62 257.661 4
2 -9 4 474.473 269.341 3
-2 8 -4 415.201 191.607 5
2 -8 4 399.413 218.391 4
2 -8 4 162.958 151.303 1
2 -8 4 246.746 213.075 3
-2 7 -4 526.497 194.213 5
2 -7 4 757.338 222.241 4
2 -7 4 403.927 172.858 1
2 -7 4 390.408 237.481 3
-2 6 -4 1439.95 248.599 1
2 -6 4 1757.97 265.715 4
2 -6 4 1629.41 326.015 3
2 -6 4 1356.67 226.226 1
-2 6 -4 1587.17 284.494 5
-2 5 -4 2012.79 251.033 1
2 -5 4 2176.62 255.96 4
-2 5 -4 1824.3 310.631 3
2 -5 4 1735.55 303.366 3
2 -5 4 1802.44 227.291 1
-2 5 -4 2062.37 278.051 5
-2 4 -4 4350.07 313.854 1
2 -4 4 4212.58 322.921 4
-2 4 -4 3660.3 382.229 3
2 -4 4 3923.19 382.278 3
2 -4 4 3994.41 336.352 5
2 -4 4 3815.08 271.03 1
-2 4 -4 4534.79 348.893 5
-2 3 -4 2621.84 211.52 1
2 -3 4 2745.01 266.638 4
-2 3 -4 2138.57 279.815 3
2 -3 4 2119.76 276.595 3
2 -3 4 2311.42 182.006 1
2 -3 4 2458.46 244.663 5
-2 3 -4 2833.54 260.315 5
-2 2 -4 19048.9 425.136 1
-2 2 -4 18085.1 674.247 3
2 -2 4 17453.6 652.003 3
2 -2 4 17050.1 363.295 1
2 -2 4 18814.8 545.609 5
-2 2 -4 18641.3 542.373 5
-2 1 -4 2003.2 170.367 4
-2 1 -4 2135.57 232.17 3
2 -1 4 1862.52 210.509 3
2 -1 4 2158.58 169.744 5
-2 1 -4 1859.94 163.001 5
-2 0 -4 28002.1 734.187 3
2 0 4 26291.8 756.118 3
2 0 4 27162.3 428.912 5
2 1 4 46459 495.388 1
-2 -1 -4 50667.8 1067.56 3
2 1 4 48540.1 903.214 3
-2 -2 -4 117.007 108.108 3
2 2 4 36.1459 55.5042 1
2 3 4 9579.34 385.881 1
-2 -3 -4 9267.68 454.344 2
-2 -3 -4 9789.3 450.746 3
2 3 4 7695.39 185.895 5
-2 -4 -4 6673.53 412.365 3
2 4 4 6689.83 377.386 1
-2 -4 -4 6113.81 400.759 2
2 4 4 5560.91 238.801 6
-2 -4 -4 5800.58 261.861 5
-2 -4 -4 6938.74 383.46 1
2 4 4 5564.05 224.508 5
-2 -5 -4 -27.6827 81.2988 5
2 5 4 -62.4711 69.0708 5
2 5 4 69.699 84.6661 6
2 5 4 163.947 129.89 2
2 5 4 92.6626 107.338 1
-2 -5 -4 176.786 124.756 1
-2 -5 -4 211.018 142.584 2
-2 -6 -4 1703.95 211.344 5
-2 -6 -4 2011.77 276.327 2
2 6 4 2142.55 249.158 6
-2 -6 -4 2197.92 292.807 1
2 6 4 1688.65 183.784 5
-2 -7 -4 51.764 112.307 5
2 7 4 259.901 113.79 5
2 7 4 342.644 164.905 6
2 8 4 148.77 102.856 5
2 8 4 49.9275 126.423 6
2 9 4 181.274 114.502 5
-2 -9 -4 -204.855 215.361 3
-2 -10 -4 -280.853 221.231 3
-2 9 -3 426.853 206.765 5
2 -9 3 422.46 246.839 4
2 -9 3 423.454 245.311 3
2 -8 3 381.601 238.571 3
-2 8 -3 437.793 193.256 5
2 -8 3 785.525 246.644 4
2 -7 3 701.013 193.18 1
-2 7 -3 370.91 167.125 5
2 -7 3 864.615 231.747 4
2 -7 3 228.255 193.186 3
-2 6 -3 6672.02 472.653 1
2 -6 3 7370.72 485.775 4
2 -6 3 7132.2 607.103 3
-2 6 -3 7215.27 501.458 5
2 -6 3 6323.94 431.718 1
2 -5 3 255.137 134.385 5
-2 5 -3 149.567 128.074 5
2 -5 3 358.891 150.845 4
-2 5 -3 -33.9511 129.306 3
-2 5 -3 20.9571 100.235 1
2 -5 3 24.9126 89.2204 1
2 -5 3 -61.5958 166.701 3
-2 4 -3 4559.18 319.32 1
2 -4 3 4428.5 326.427 4
2 -4 3 3652.97 259.837 1
-2 4 -3 4369.38 410.328 3
2 -4 3 4009.7 384.775 3
-2 4 -3 4668.55 338.422 5
2 -4 3 4300.02 342.497 5
-2 3 -3 9673.35 388.856 1
2 -3 3 9803.79 464.248 4
-2 3 -3 9175.13 514.046 3
2 -3 3 8965.5 495.241 3
2 -3 3 8889.79 430.539 5
2 -3 3 8504.51 329.755 1
-2 3 -3 9547.4 433.673 5
2 -2 3 272.123 110.688 5
-2 2 -3 304.603 117.18 5
2 -2 3 -74.8351 128.995 3
-2 2 -3 373.616 106.777 4
-2 2 -3 -133.957 134.143 3
-2 2 -3 43.9484 66.641 1
-2 1 -3 13382.7 416.85 4
2 -1 3 13435.6 385.209 5
-2 1 -3 13261 495.68 3
2 -1 3 12300 460.925 3
-2 1 -3 13415.5 383.59 5
-2 0 -3 6198.95 329.529 3
2 0 3 5373.23 331.753 3
2 0 3 6617.06 208.581 5
-2 0 -3 6250.74 202.068 5
2 1 3 1779.99 176.059 3
2 1 3 1543.37 100.894 1
-2 -1 -3 1615.76 107.411 6
-2 -1 -3 1661.82 208.437 3
2 2 3 2916.09 189.792 1
-2 -2 -3 2792.15 233.189 3
-2 -2 -3 2258.17 160.288 1
-2 -3 -3 4261.35 294.82 3
2 3 3 4620.37 283.596 1
-2 -3 -3 3336.46 142.539 5
-2 -3 -3 4417.31 272.76 1
-2 -4 -3 554.626 95.5605 5
2 4 3 1084.84 174.567 1
-2 -4 -3 681.247 153.342 1
2 4 3 344.392 73.2401 5
-2 -4 -3 1104.3 201.697 2
2 4 3 1034.5 200.736 2
2 4 3 726.61 122.272 6
2 5 3 1724.16 205.723 6
2 5 3 1858.07 254.483 1
2 5 3 1385.47 237.264 2
-2 -5 -3 1546.46 231.328 2
2 5 3 1185.31 138.895 5
-2 -5 -3 991.098 145.775 5
-2 -5 -3 1382.68 224.111 1
-2 -6 -3 4143.24 376.238 2
2 6 3 5110.27 378.742 6
-2 -6 -3 3711.81 297.259 5
-2 -6 -3 3945.58 384.016 1
2 6 3 3592.93 262.204 5
-2 -7 -3 -3.83636 97.8273 5
2 7 3 82.6497 111.183 6
2 7 3 -68.0104 91.9701 5
-2 -7 -3 -10.3549 135.182 1
2 8 3 857.027 169.421 5
-2 -8 -3 1175.31 266.695 1
2 8 3 815.072 205.34 6
-2 -9 -3 437.57 261.027 3
2 9 3 333.009 163.478 6
-2 -10 -3 146.3 210.508 3
-2 9 -2 -58.0409 142.864 5
2 -9 2 496.472 250.291 4
2 -9 2 82.3474 219.435 3
-2 8 -2 348.582 186.546 5
2 -8 2 760.839 236.694 4
2 -8 2 302.103 243.309 3
-2 7 -2 279.096 156.132 5
2 -7 2 601.207 202.874 4
2 -7 2 137.448 191.038 3
2 -6 2 1071.4 277.088 3
2 -6 2 1736.13 268.738 4
2 -6 2 989.063 202.903 1
-2 6 -2 1083.92 215.117 1
-2 6 -2 1370.53 241.957 5
2 -5 2 285.536 149.643 5
-2 5 -2 783.53 191.629 5
2 -5 2 738.032 179.666 4
-2 5 -2 250.428 133.154 1
2 -5 2 368.42 141.877 1
2 -5 2 260.08 187.858 3
-2 4 -2 2906.31 250.124 1
2 -4 2 3646.53 303.49 4
-2 4 -2 3088.38 341.484 3
2 -4 2 3151.56 342.766 3
2 -4 2 3231.63 248.743 1
2 -4 2 3094.64 300.097 5
-2 4 -2 3319.91 290.086 5
-2 3 -2 3483.43 229.014 1
2 -3 2 4488.35 322.471 4
-2 3 -2 3503.24 321.423 3
2 -3 2 3201.45 302.12 3
2 -3 2 3530.86 280.095 5
-2 3 -2 3499.66 267.742 5
-2 2 -2 5133.19 219.679 1
-2 2 -2 6313.92 299.953 4
-2 2 -2 5224.43 349.264 3
2 -2 2 5725.22 355.955 3
2 -2 2 5592.6 304.878 5
-2 2 -2 5785.86 300.962 5
-2 1 -2 42908.3 756.466 4
-2 1 -2 44233.6 857.368 3
2 -1 2 42251.1 805.796 3
2 -1 2 44529.5 694.117 5
-2 1 -2 44077 664.63 5
2 0 2 4005.95 265.219 3
-2 0 -2 4281.85 249.687 3
-2 0 -2 4644.77 233.86 6
2 0 2 4259.31 163.133 5
-2 0 -2 3936.89 150.755 5
-2 -1 -2 26527.5 451.619 6
2 1 2 26062.7 392.818 1
-2 -1 -2 25206.6 652.574 3
2 1 2 24824.7 522.967 3
-2 -1 -2 25529.6 362.478 1
-2 -2 -2 37251.3 745.662 3
2 2 2 36989.5 639.479 1
-2 -2 -2 32000.5 390.861 6
2 2 2 30682.7 454.372 6
-2 -2 -2 36219.3 611.136 1
2 3 2 1548.63 121.913 6
2 3 2 1583.34 173.809 1
-2 -3 -2 1441.26 170.234 3
-2 -3 -2 1207.79 91.1178 5
-2 -3 -2 1491.82 166.33 1
2 4 2 8784.91 374.333 6
2 4 2 10569.8 480.374 1
2 4 2 9928.16 523.308 2
-2 -4 -2 9285.99 474.687 2
-2 -4 -2 9367.42 329.463 5
-2 -4 -2 9957.14 463.342 1
2 5 2 8745.76 490.03 1
2 5 2 8085.67 500.01 2
-2 -5 -2 7850.77 457.672 2
2 5 2 9591.62 458.649 6
-2 -5 -2 8189.95 380.04 5
-2 -5 -2 8337.1 483.493 1
2 5 2 7570.82 328.81 5
-2 -6 -2 -12.9628 107.322 5
2 6 2 618.305 140.643 5
-2 -6 -2 1256.66 251.117 2
2 6 2 1198.47 227.026 6
-2 -6 -2 379.833 180.718 1
-2 -7 -2 8.77066 100.875 5
2 7 2 467.94 126.694 5
2 7 2 285.537 143.923 6
-2 -7 -2 35.9884 142.56 1
-2 -8 -2 109.315 175.354 3
-2 -8 -2 114.523 157.84 1
2 8 2 -78.7221 140.822 6
2 9 2 5.88351 130.909 6
-2 -9 -2 134.711 190.74 1
-2 -9 -2 282.464 230.827 3
-2 -10 -2 4.98305 201.12 3
-2 9 -1 87.9134 158.224 5
2 -9 1 273.574 213.509 4
2 -9 1 -257.859 229.414 3
-2 8 -1 661.888 213.157 5
2 -8 1 944.36 266.454 4
2 -8 1 658.621 280.258 3
-2 7 -1 735.622 204.737 5
2 -7 1 1035.38 232.297 4
2 -7 1 616.428 255.72 3
-2 6 -1 1123.3 214.111 5
2 -6 1 1415.22 237.44 4
-2 6 -1 960.57 194.861 1
2 -6 1 1097.81 277.265 3
2 -5 1 6116.6 439.544 5
-2 5 -1 6056.91 388.887 1
2 -5 1 6490.31 411.721 4
2 -5 1 6108.62 506.486 3
-2 5 -1 5995.37 414.708 5
2 -4 1 475.909 141.692 5
-2 4 -1 436.27 143.682 5
-2 4 -1 574.387 134.326 1
2 -4 1 815.315 176.273 4
2 -4 1 461.369 178.8 3
-2 3 -1 13743.4 436.3 1
2 -3 1 14933.6 550.589 4
-2 3 -1 13707.4 595.095 3
2 -3 1 14138 598.978 3
2 -3 1 13926.5 532.55 5
-2 3 -1 14165.6 529.57 5
-2 2 -1 22518.9 443.398 1
-2 2 -1 24054.8 594.529 4
-2 2 -1 23041.1 671.866 3
2 -2 1 24389.2 676.886 3
2 -2 1 23936.5 618.277 5
-2 2 -1 24535.7 614.681 5
2 -1 1 85.9734 74.3995 5
-2 1 -1 32.4466 74.6191 5
-2 1 -1 273.93 112.1 4
-2 1 -1 13.2066 103.415 3
-2 1 -1 158.831 44.9986 1
2 -1 1 62.3628 88.7417 3
-2 0 -1 4047.95 215.529 3
2 0 1 4453.8 259.737 3
-2 0 -1 4654.09 252.778 6
2 0 1 4087 166.905 5
-2 0 -1 4443.72 174.546 5
-2 -1 -1 1482.45 112.039 1
2 1 1 1600.18 123.787 1
-2 -1 -1 1196 155.599 3
-2 -1 -1 1122.56 118.772 6
-2 -2 -1 1927.66 162.179 1
2 2 1 2130.52 170.426 1
-2 -2 -1 1864.6 120.216 6
-2 -2 -1 1875.41 169.728 3
2 2 1 1909.52 136.709 6
-2 -3 -1 323.44 122.525 1
-2 -3 -1 214.005 61.7982 5
2 3 1 362.1 148.469 2
2 3 1 455.471 112.321 6
2 3 1 192.465 99.7516 1
2 4 1 6382.54 418.312 2
2 4 1 6660.27 390.492 1
-2 -4 -1 6438.62 399.719 2
2 4 1 6305.69 353.329 6
-2 -4 -1 6198.03 277.218 5
-2 -4 -1 6577.16 385.941 1
2 5 1 1074.1 207.764 6
-2 -5 -1 380.129 161.461 1
-2 -5 -1 1129.23 219.493 2
2 5 1 664.803 183.758 2
-2 -5 -1 224.713 101.105 5
2 5 1 575.427 171.739 1
-2 -6 -1 5654.05 432.034 2
2 6 1 7261.66 477.942 6
-2 -6 -1 5701.18 366.31 5
-2 -6 -1 5650.57 443.592 1
-2 -7 -1 999.967 266.591 3
-2 -7 -1 893.134 187.283 5
-2 -7 -1 940.825 236.809 1
2 7 1 694.904 197.389 6
-2 -8 -1 29.1348 163.209 3
2 8 1 -198.382 138.883 6
-2 -8 -1 81.7567 143.41 1
-2 -9 -1 625.281 279.574 3
2 9 1 276.795 160.21 6
-2 -9 -1 618.77 241.795 1
-2 -10 -1 142.074 210.29 3
-2 9 0 348.866 205.778 5
2 -9 0 537.3 232.962 4
2 -9 0 223.193 245.4 3
-2 8 0 283.63 170.146 5
2 -8 0 386.217 197.455 4
2 -8 0 146.369 198.125 3
2 -7 0 1443.56 265.646 4
2 -7 0 1489.43 338.278 3
-2 7 0 1398.68 257.538 5
-2 6 0 391.387 147.784 5
-2 6 0 153.838 130.735 1
2 -6 0 539.273 177.968 4
2 -6 0 242.832 194.41 3
-2 5 0 1134.16 190.044 1
2 -5 0 1203.12 225.044 5
2 -5 0 1668.02 236.851 4
2 -5 0 1387.22 278.993 3
-2 5 0 1195.48 221.191 5
-2 4 0 894.553 171.608 1
2 -4 0 551.209 180.212 5
-2 4 0 681.36 184.318 5
2 -4 0 987.141 261.504 3
-2 3 0 10487.6 386.405 1
2 -3 0 11489.1 482.23 4
2 -3 0 10929.7 525.252 3
2 -3 0 10488.8 481.068 5
-2 3 0 11101.4 473.434 5
-2 2 0 6472.01 355.595 3
2 -2 0 7114.53 362.446 3
2 -2 0 7808.14 361.396 5
-2 2 0 7646.32 347.229 5
-2 2 0 6957.66 254.99 1
-2 1 0 18255.9 577.435 6
-2 1 0 16769.3 467.924 3
2 -1 0 17488.8 465.884 3
2 -1 0 16739.4 446.521 5
-2 1 0 17412.5 439.863 5
-2 0 0 69634.8 777.916 3
-2 0 0 70011.9 646.64 1
2 0 0 71755.7 859.007 3
-2 0 0 73373.7 998.11 6
2 0 0 68573.2 712.744 5
-2 0 0 69767 694.501 5
2 1 0 5990.07 268.438 6
-2 -1 0 5600.29 253.011 6
-2 -1 0 5923.75 220.823 1
-2 -1 0 6160.21 252.675 3
2 1 0 5728.77 223.059 1
-2 -1 0 5747.67 158.361 5
-2 -2 0 15421 430.579 1
2 2 0 16043.9 454.865 1
-2 -2 0 15386.7 386.18 6
-2 -2 0 14892.9 389.073 3
2 2 0 14933.6 392.119 6
-2 -2 0 13276.3 240.683 5
-2 -3 0 39522.4 806.778 1
2 3 0 40491.2 964.391 2
2 3 0 40857 859.772 1
2 3 0 42790.4 831.448 6
-2 -3 0 39172 563.227 5
-2 -4 0 85.0723 111.506 1
-2 -4 0 9.71468 68.9715 5
2 4 0 -15.6831 100.263 1
2 4 0 225.771 120.133 2
2 4 0 321.096 136.543 6
2 5 0 6203.7 406.351 6
2 5 0 4957.12 390.044 2
2 5 0 5325.66 394.875 1
-2 -5 0 4890.51 364.103 2
-2 -5 0 4986.96 302.043 5
-2 -5 0 4953.28 381.373 1
-2 -6 0 531.197 147.744 5
-2 -6 0 747.821 215.769 1
-2 -7 0 386.16 189.649 1
-2 -7 0 435.333 146.701 5
-2 -7 0 138.598 174.198 3
2 7 0 738.475 208.281 6
-2 -8 0 303.67 213.014 3
2 8 0 360.699 180.071 6
-2 -8 0 334.522 192.959 1
2 9 0 -41.5364 143.467 6
-2 -9 0 227.443 212.934 3
-2 -9 0 104.795 164.37 1
-2 -10 0 240.695 219.444 3
-2 9 1 497.773 214.941 5
2 -9 -1 436.035 229.444 4
2 -9 -1 773.37 328.295 3
-2 8 1 -53.1711 126.916 5
2 -8 -1 203.071 160.392 4
2 -8 -1 338.709 216.436 3
2 -7 -1 2055.51 305.276 4
2 -7 -1 2136.75 378.211 3
-2 7 1 1827.4 286.354 5
-2 6 1 394.868 161.72 5
-2 6 1 342.586 141.384 1
2 -6 -1 484.078 170.024 4
2 -6 -1 152.501 172.89 3
-2 5 1 2516.45 261.724 1
2 -5 -1 2769.47 279.383 4
2 -5 -1 2646.89 307.465 5
2 -5 -1 2709.75 347.182 3
-2 5 1 2883.03 314.435 5
-2 4 1 18151.7 588.973 1
2 -4 -1 18140.6 631.771 4
2 -4 -1 20043.5 780.557 3
2 -4 -1 18325.3 703.54 5
-2 4 1 19750.8 692.849 5
2 -3 -1 1459.18 205.258 4
2 -3 -1 1071.87 182.733 5
2 -3 -1 870.651 181.074 3
-2 3 1 1058.21 182.938 5
-2 3 1 1112.66 149.842 1
2 -2 -1 17057.4 537.024 3
-2 2 1 16288.2 408.489 1
2 -2 -1 16841.1 526.874 5
-2 2 1 16438.6 508.024 5
-2 1 1 2633.72 248.281 6
-2 1 1 2298.18 180.972 3
2 -1 -1 2788.44 190.576 3
2 -1 -1 2615.83 194.976 5
-2 1 1 2437.54 186.446 5
-2 0 1 525.245 79.8302 5
-2 0 1 710.039 97.2196 1
2 0 -1 775.952 92.4267 3
-2 0 1 550.158 74.5172 3
-2 0 1 697.934 127.758 6
-2 -1 1 2608.83 175.706 1
-2 -1 1 2233.52 129.832 3
-2 -1 1 2721.12 208.569 6
2 1 -1 2424.27 187.802 6
2 1 -1 2661.47 175.546 1
-2 -1 1 2568.11 132.137 5
2 2 -1 632.194 138.183 1
2 2 -1 418.353 155.668 2
-2 -2 1 294.119 117.81 6
-2 -2 1 273.296 125.723 1
2 2 -1 455.783 132.422 6
2 3 -1 1076.93 191.403 2
2 3 -1 854.599 161.274 1
-2 -3 1 692.887 144.67 1
2 3 -1 1386.31 213.467 6
-2 -3 1 985.027 139.258 6
-2 -3 1 777.066 97.4425 5
-2 -4 1 6065.7 377.214 1
2 4 -1 5549.32 379.792 2
2 4 -1 6319.31 398.31 1
2 4 -1 6145.93 390.833 6
-2 -4 1 5736.64 283.237 5
-2 -5 1 3361.4 322.087 1
2 5 -1 3292.05 318.89 2
2 5 -1 3651.33 343.664 1
-2 -5 1 3377.62 341.558 3
-2 -5 1 3734.34 330.336 2
2 5 -1 4942.37 382.591 6
-2 -5 1 3259.49 253.788 5
-2 -6 1 127.063 133.278 1
-2 -6 1 127.979 105.469 5
-2 -6 1 -185.795 171.617 3
2 6 -1 252.126 154.773 6
-2 -7 1 2089.36 339.161 3
2 7 -1 1888.09 297.633 6
-2 -7 1 2014.21 260.061 5
-2 -7 1 2081.3 318.78 1
2 8 -1 1666.81 296.205 6
-2 -8 1 1361.46 322.214 3
-2 -8 1 2048 344.678 1
2 9 -1 68.3489 136.83 6
-2 -9 1 -80.3168 164.612 3
-2 -9 1 -45.9001 160.807 1
-2 -10 1 342.272 237.129 3
2 10 -1 208.413 157.259 6
-2 9 2 572.802 215.04 5
2 -9 -2 495.661 223.685 4
2 -9 -2 524.223 278.634 3
-2 8 2 -130.817 134.231 5
2 -8 -2 -112.457 144.031 4
2 -8 -2 -44.8152 192.384 3
-2 7 2 298.27 166.788 5
2 -7 -2 387.413 173.138 4
2 -7 -2 59.3911 184.95 3
2 -6 -2 1213.84 290.21 3
-2 6 2 997.57 232.404 5
2 -6 -2 954.705 205.736 4
2 -5 -2 241.875 155.815 5
-2 5 2 507.99 156.429 1
-2 5 2 437.33 172.105 5
2 -5 -2 506.975 216.27 3
2 -5 -2 858.96 191.375 4
2 -4 -2 4470.15 361.477 5
2 -4 -2 4851.83 344.047 4
2 -4 -2 4544.88 391.231 3
-2 4 2 4495.8 312.16 1
2 -3 -2 2585.69 257.76 4
2 -3 -2 2238.85 251.889 3
2 -3 -2 1921.13 223.334 5
-2 3 2 2069.9 195.411 1
-2 3 2 2105.46 231.84 5
2 -2 -2 36271.6 760.446 3
-2 2 2 36839.3 938.288 6
2 -2 -2 34925.6 773.432 5
-2 2 2 36619.5 775.502 5
2 -1 -2 6250.1 290.428 5
2 -1 -2 6134.83 251.315 3
-2 1 2 6968.22 383.399 6
-2 1 2 6691.28 303.002 5
-2 0 2 5486.53 303.83 6
2 0 -2 4757.15 152.227 3
2 0 -2 5393.33 315.432 6
-2 0 2 5159.33 238.206 5
2 1 -2 58512.3 930.245 6
-2 -1 2 56999.8 817.137 1
-2 -1 2 58009.1 960.356 6
2 2 -2 7812.94 403.178 2
-2 -2 2 7958.32 352.832 1
2 2 -2 8505.05 377.346 1
-2 -2 2 8030.82 357.88 6
2 2 -2 8762.92 384.462 6
-2 -3 2 24113.2 671.508 1
2 3 -2 23438 713.757 2
2 3 -2 24591.6 698.934 1
-2 -3 2 22510 571.932 6
2 3 -2 23197.2 740.708 6
-2 -3 2 23076.4 496.127 5
-2 -4 2 14634 582.418 1
2 4 -2 14004.6 583.035 2
2 4 -2 15275.7 620.253 1
-2 -4 2 14940.8 582.27 3
2 4 -2 16116.1 651.566 6
-2 -4 2 13656.1 429.899 5
2 5 -2 660.69 184.406 1
-2 -5 2 329.309 109.201 5
-2 -5 2 480.813 162.614 1
-2 -5 2 1280.17 221.008 2
2 5 -2 1141 220.839 6
2 5 -2 680.883 178.901 2
-2 -5 2 167.007 129.729 3
-2 -6 2 3095.72 344.824 1
-2 -6 2 3020.99 361.224 3
2 6 -2 3822.53 381.597 6
-2 -6 2 3222.58 290.682 5
-2 -7 2 962.986 202.193 5
2 7 -2 1295.43 262.051 6
-2 -7 2 1016.43 267.448 3
-2 -7 2 899.271 242.628 1
2 8 -2 725.816 229.385 6
-2 -8 2 306.595 222.973 3
-2 -8 2 578.693 227.4 1
-2 -9 2 314.232 195.197 1
2 9 -2 51.4881 141.621 6
-2 -9 2 197.689 200.599 3
-2 -10 2 65.387 193.439 3
2 10 -2 159.646 166.231 6
-2 9 3 267.72 176.879 5
2 -9 -3 481.376 225.642 4
2 -9 -3 242.269 239.421 3
-2 8 3 255.013 155.911 5
2 -8 -3 44.636 138.192 4
2 -8 -3 135.578 191.279 3
-2 7 3 192.295 153.197 5
2 -7 -3 285.991 162.196 4
2 -7 -3 81.3267 165.525 3
2 -6 -3 3879.67 356.953 4
2 -6 -3 3410.64 422.235 3
-2 6 3 3981.62 396.795 5
2 -5 -3 2459.39 266.62 4
2 -5 -3 1912.15 303.076 3
2 -5 -3 2447.38 299.807 5
-2 5 3 2496.48 293.889 5
-2 5 3 2302.96 263.444 1
2 -4 -3 9381.31 455.966 4
2 -4 -3 10242.5 571.052 3
2 -4 -3 9531.64 512.032 5
-2 4 3 9842.52 458.357 1
2 -3 -3 7667.78 411.656 4
2 -3 -3 7885.05 442.613 3
2 -3 -3 7051.3 403.854 5
-2 3 3 7427.45 352.284 1
2 -2 -3 1609.63 183.813 3
-2 2 3 1397.33 215.65 6
2 -2 -3 1197.15 167.757 5
-2 2 3 1347.89 179.04 5
2 -1 -3 5251.3 228.776 3
-2 1 3 5812.83 364.046 6
2 -1 -3 5414.01 285.028 5
-2 1 3 5466.66 289.054 5
-2 0 3 14195.9 465.355 2
-2 0 3 12880.4 468.268 6
2 0 -3 13402.6 505.754 6
-2 0 3 12892.4 385.189 5
-2 -1 3 270.393 144.08 6
-2 -1 3 27.0547 91.0052 1
2 1 -3 257.628 119.584 6
-2 -2 3 144.275 116.192 1
-2 -2 3 180.294 76.3265 3
2 2 -3 546.601 172.768 6
2 2 -3 342.453 139.707 2
-2 -2 3 540.565 164.421 6
2 2 -3 235.828 115.621 1
-2 -3 3 3676.43 302.83 1
2 3 -3 3222.04 284.357 2
-2 -3 3 3040.65 233.968 3
2 3 -3 3633.17 298.119 1
-2 -3 3 3136.92 248.727 6
2 3 -3 3064.64 310.666 6
-2 -3 3 3062.79 205.925 5
-2 -4 3 540.053 162.922 1
2 4 -3 1019.64 192.349 1
2 4 -3 1482.35 251.667 6
2 4 -3 901.842 170.666 2
-2 -4 3 374.455 132.049 3
-2 -4 3 925.499 135.849 5
-2 -5 3 5842.58 429.271 1
2 5 -3 6352.76 459.24 1
-2 -5 3 5830.06 429.131 3
-2 -5 3 5794.56 401.25 2
2 5 -3 7295.39 483.738 6
-2 -5 3 5573.37 333.649 5
-2 -6 3 4834.51 426.408 1
-2 -6 3 5070.38 450.317 3
2 6 -3 5756.23 462.011 6
-2 -6 3 4596.64 349.492 5
-2 -7 3 400.038 192.828 1
-2 -7 3 592.816 167.616 5
2 7 -3 390.877 187.794 6
-2 -7 3 32.8931 147.609 3
-2 -8 3 2097.28 367.78 3
2 8 -3 2239.08 348.612 6
-2 -8 3 1956.88 343.942 1
2 9 -3 429.075 208.799 6
-2 -9 3 720.337 280.651 3
-2 -9 3 483.27 241.155 1
2 10 -3 -2.08771 145.521 6
-2 -10 3 185.36 216.178 3
-2 9 4 17.1112 129.059 5
2 -9 -4 -108.729 163.22 4
2 -9 -4 17.9075 184.774 3
-2 8 4 305.001 181.479 5
2 -8 -4 216.83 172.001 4
2 -8 -4 251.557 226.557 3
-2 7 4 518.423 205.479 5
2 -7 -4 567.628 195.737 4
2 -7 -4 513.805 252.666 3
-2 6 4 484.162 189.298 5
2 -6 -4 521.591 171.812 4
2 -6 -4 490.765 221.349 3
2 -5 -4 1345.72 216.187 4
2 -5 -4 1068.88 269.053 3
-2 5 4 649.706 163.718 1
-2 5 4 1111.22 231.174 5
2 -4 -4 5123.59 343.736 4
2 -4 -4 5300.63 425.561 3
2 -4 -4 5208.78 393.314 5
-2 4 4 4752.73 329.461 1
-2 3 4 2650.55 315.764 6
2 -3 -4 2959.55 278.47 3
2 -3 -4 2818.96 266.229 5
2 -2 -4 -118.278 110.848 5
-2 2 4 -45.4206 108.618 5
2 -2 -4 15.6537 91.4546 3
-2 2 4 99.7588 124.255 6
2 -1 -4 26854.5 518.783 3
-2 1 4 27814.1 790.229 6
-2 1 4 27115.5 639.671 5
-2 0 4 18518.9 519.956 2
-2 0 4 17549.8 561.047 6
2 0 -4 17619.4 596.585 6
-2 0 4 17856.7 470.768 5
2 1 -4 31622.4 774.995 6
-2 -1 4 33447.9 717.504 2
-2 -1 4 32359.2 828.735 6
-2 -1 4 31274.1 706.964 1
2 2 -4 59610.5 1062.67 1
2 2 -4 58970.2 1060.51 2
-2 -2 4 60023.4 1047.55 1
-2 -2 4 56041.1 664.421 3
-2 -2 4 55755.7 1072.92 6
2 2 -4 62833.8 1179.9 6
2 3 -4 307.064 132.352 1
2 3 -4 437.986 174.665 6
2 3 -4 311.392 122.657 2
-2 -3 4 411.531 119.982 6
-2 -3 4 -68.4761 119.955 3
-2 -3 4 173.254 116.772 1
-2 -4 4 10832.5 541.57 1
2 4 -4 10295.7 501.197 2
-2 -4 4 10322.5 489.091 3
2 4 -4 11363.7 562.151 1
2 4 -4 12081.6 621.708 6
-2 -4 4 10681.4 430.769 5
2 5 -4 12106.5 627.598 6
-2 -5 4 10593 575.82 1
2 5 -4 10855 599.789 1
-2 -5 4 10562.5 568.702 3
-2 -5 4 10102.8 451.399 5
-2 -6 4 267.32 132.097 5
-2 -6 4 194.639 157.099 1
-2 -6 4 382.709 198.634 3
-2 -7 4 1490.92 290.383 1
2 7 -4 1905.5 313.969 6
-2 -7 4 1311.1 293.479 3
-2 -8 4 164.072 194.821 1
2 8 -4 359.132 196.022 6
-2 -8 4 490.183 237.802 3
2 9 -4 287.02 177.68 6
-2 -9 4 160.811 207.687 3
-2 -9 4 157.006 181.805 1
2 10 -4 468.908 198.095 6
-2 -10 4 42.8663 209.212 3
-2 9 5 162.965 161.544 5
2 -9 -5 2.74103 146.783 4
2 -9 -5 -34.1327 191.772 3
-2 8 5 307.605 169.978 5
2 -8 -5 350.838 180.221 4
2 -8 -5 172.283 198.918 3
-2 7 5 1092.78 253.053 5
2 -7 -5 1238.57 247.207 4
2 -7 -5 997.549 286.863 3
-2 6 5 909.201 226.616 5
2 -6 -5 900.299 198.907 4
2 -6 -5 948.677 261.425 3
2 -5 -5 6993.45 426.508 4
2 -5 -5 7493.85 552.911 3
-2 5 5 7694.74 496.467 5
-2 5 5 6897.18 441.029 1
2 -4 -5 2408.31 247.8 4
2 -4 -5 2168.71 284.292 3
-2 4 5 2419.3 331.151 6
2 -4 -5 2394.72 280.429 5
-2 4 5 2336.39 242.578 1
2 -3 -5 3901.96 326.955 5
-2 3 5 3762.29 372.487 6
2 -2 -5 19308.5 634.87 5
-2 2 5 20316.5 765.939 6
-2 2 5 20361.8 634.877 5
-2 1 5 957.349 148.73 5
-2 1 5 1019.19 182.414 6
-2 0 5 7710.8 411.113 6
-2 0 5 7682.08 340.326 2
-2 0 5 6958.89 319.067 5
-2 -1 5 1070 209.085 6
2 1 -5 1032.94 181.092 2
-2 -1 5 1214.28 177.22 2
-2 -1 5 482.89 147.578 1
2 1 -5 1258.08 215.689 6
2 2 -5 1460.42 188.704 2
-2 -2 5 1515.43 184.977 2
-2 -2 5 1365.6 191.79 1
-2 -2 5 1280.71 117.013 3
-2 -2 5 1494.05 214.973 6
2 2 -5 1506.44 198.854 1
2 2 -5 1901.56 258.094 6
-2 -3 5 6894.65 419.147 1
2 3 -5 6735.63 390.478 2
-2 -3 5 6877.32 334.741 3
2 3 -5 7466.86 449.965 1
-2 -3 5 7147.22 404.698 6
2 3 -5 7502.15 499.387 6
-2 -4 5 2479.74 301.549 1
2 4 -5 2101.44 248.071 2
-2 -4 5 1856.52 236.257 3
2 4 -5 2053.83 274.33 1
2 4 -5 2806.02 343.632 6
-2 -4 5 1869.55 202.796 5
-2 -5 5 2001.04 289.461 1
-2 -5 5 1683.38 259.799 3
2 5 -5 2369.16 310.838 1
-2 -5 5 2122.17 228.683 5
-2 -6 5 3592.19 385.861 1
-2 -6 5 3567.04 392.302 3
2 6 -5 3945.82 412.269 6
-2 -6 5 2977 289.931 5
-2 -7 5 4550.99 463.149 1
2 7 -5 4743.99 472.104 6
-2 -7 5 4077.5 466.88 3
-2 -8 5 86.9138 169.306 1
2 8 -5 -77.0569 154.846 6
-2 -8 5 21.9687 176.576 3
-2 -9 5 247.621 208.666 3
2 9 -5 552.042 203.931 6
-2 -9 5 82.8242 167.658 1
2 10 -5 109.301 171.981 6
-2 -10 5 159.961 216.094 3
-2 9 6 108.939 150.46 5
2 -9 -6 95.982 181.806 4
2 -9 -6 328.358 236.714 3
2 -8 -6 147.68 193.378 3
-2 8 6 -18.1383 133.452 5
2 -8 -6 -51.1833 141.077 4
-2 7 6 698.202 232.182 5
2 -7 -6 1048.66 239.659 4
2 -7 -6 814.637 292.053 3
-2 6 6 92.1831 142.851 5
2 -6 -6 216.942 137.999 4
2 -6 -6 67.7073 167.453 3
2 -5 -6 1776.94 233.435 4
-2 5 6 2189.51 284.894 5
-2 5 6 1585.51 235.856 1
2 -4 -6 46.9315 107.867 5
2 -4 -6 317.649 134.91 4
-2 4 6 220.461 113.362 1
-2 4 6 -41.4601 143.117 6
-2 3 6 3175.65 360.686 6
2 -3 -6 3347.18 307.898 5
-2 2 6 7919.46 487.786 6
-2 1 6 9404.74 488.199 6
-2 1 6 9133 353.421 2
-2 1 6 9334.23 410.312 5
-2 0 6 52437.8 1067.91 6
-2 0 6 55095.1 848.424 2
2 1 -6 573.175 62.5961 3
2 1 -6 696.104 135.035 2
-2 -1 6 543.11 59.9156 3
-2 -1 6 832.592 134.575 2
-2 -1 6 723.537 179.646 6
2 1 -6 701.297 171.349 6
-2 -1 6 625.289 149.125 1
2 2 -6 14116.3 637.905 6
2 2 -6 13654.1 520.362 2
-2 -2 6 14946.1 501.42 2
-2 -2 6 14766.5 564.981 1
-2 -2 6 13709.2 366.705 3
-2 -2 6 13639 592.886 6
2 3 -6 45814.6 1107.53 1
2 3 -6 42283 948.435 2
-2 -3 6 43193 1038.72 1
-2 -3 6 38716.7 845.777 2
-2 -3 6 41373.3 802.937 3
-2 -3 6 41317.3 998.284 6
2 3 -6 43468.2 1187.34 6
-2 -4 6 3179.89 325.517 1
2 4 -6 3267.3 297.858 2
-2 -4 6 2727.57 262.617 3
2 4 -6 3393.85 345.766 1
-2 -4 6 3140.57 287.498 6
2 4 -6 3430.24 372.77 6
-2 -4 6 2927.41 251.515 5
-2 -5 6 8727.52 555.681 1
-2 -5 6 8486.04 525.171 3
2 5 -6 8638.69 563.508 1
2 5 -6 9577.17 596.284 6
-2 -5 6 8745.47 462.98 5
2 6 -6 5453.5 484.093 6
-2 -6 6 4917.66 452.839 1
-2 -6 6 5029.65 464.739 3
-2 -6 6 4412.95 355.742 5
-2 -7 6 160.06 168.829 1
2 7 -6 813.109 243.116 6
-2 -7 6 345.854 209.694 3
-2 -8 6 -5.3028 160.082 1
2 8 -6 276.268 190.086 6
-2 -8 6 40.9822 172.018 3
-2 -9 6 52.1775 183.599 1
2 9 -6 113.927 154.479 6
-2 -9 6 -48.5125 183.472 3
2 10 -6 171.599 189.981 6
-2 -10 6 -102.353 209.183 3
-2 9 7 238.723 175.437 5
2 -9 -7 56.8398 158.679 4
2 -9 -7 69.9612 183.915 3
-2 8 7 -50.3948 133.906 5
2 -8 -7 80.0215 145.902 4
2 -8 -7 113.248 211.095 3
2 -7 -7 1939.46 290.894 4
2 -7 -7 1929.87 372.897 3
-2 7 7 2104.88 331.431 5
-2 6 7 1050.38 227.453 5
2 -6 -7 1131.65 207.98 4
-2 5 7 1286.63 231.251 5
2 -5 -7 1153.41 189.889 4
2 -4 -7 4296.11 332.248 4
-2 4 7 4402.66 446.148 6
2 -4 -7 4405.46 382.366 5
-2 4 7 4697.11 385.559 5
-2 3 7 3492.72 373.147 6
2 -3 -7 3650.37 324.914 5
-2 2 7 7459.45 499.717 6
-2 1 7 9420.67 491.619 6
-2 1 7 9111.22 333.695 2
2 -1 -7 8372.5 303.041 3
-2 1 7 9035.6 423.897 5
-2 0 7 63.9168 82.0013 2
-2 0 7 123.101 104.537 6
2 0 -7 82.3759 71.3248 3
-2 -1 7 71.7848 146.874 1
-2 -1 7 178.053 73.783 3
-2 -1 7 230.391 167.256 6
-2 -1 7 533.195 143.243 2
2 1 -7 391.421 140.194 2
2 1 -7 -15.0317 61.3048 3
-2 -2 7 1744.45 152.024 3
2 2 -7 2354.42 239.492 2
2 2 -7 1745.45 151.147 3
-2 -2 7 2607.1 227.544 2
-2 -2 7 2127.91 253.119 1
-2 -2 7 2573.08 288.734 6
2 2 -7 2317.67 307.46 6
-2 -3 7 2507.9 280.287 6
2 3 -7 2569.66 255.237 2
-2 -3 7 2424.85 283.733 1
-2 -3 7 2793.09 262.288 2
-2 -3 7 1945.71 195.47 3
2 3 -7 3067.01 357.698 6
2 3 -7 2509.45 293.392 1
2 4 -7 1361.33 225.395 2
2 4 -7 892.861 210.284 1
-2 -4 7 947.692 226.158 1
-2 -4 7 686.272 167.841 3
2 4 -7 1081.19 258.505 6
-2 -4 7 934.339 172.659 5
-2 -4 7 1148.89 209.974 6
-2 -5 7 9168.75 592.576 1
-2 -5 7 8520.91 528.004 3
2 5 -7 8987.57 597.936 6
-2 -5 7 8081.36 458.086 5
-2 -6 7 324.498 139.135 5
-2 -6 7 263.458 178.727 1
-2 -6 7 95.9513 161.961 3
-2 -7 7 1321.66 288.911 1
2 7 -7 1789.73 319.234 6
-2 -7 7 1224.37 288.907 3
-2 -8 7 1006.11 278.737 1
-2 -8 7 1046.8 293.596 3
2 8 -7 1125.83 278.813 6
-2 -9 7 86.8488 170.008 1
2 9 -7 40.1871 161.701 6
-2 -9 7 276.84 213.867 3
2 10 -7 896.789 256.048 6
-2 -10 7 744.479 311.31 3
-2 9 8 -84.5531 171.523 5
2 -9 -8 103.656 154.513 4
2 -9 -8 40.3497 219.137 3
-2 8 8 78.0519 154.759 5
2 -8 -8 402.754 183.609 4
2 -8 -8 188.097 207.236 3
-2 7 8 360.325 189.028 5
2 -7 -8 199.497 157.371 4
2 -7 -8 162.992 193.162 3
-2 7 8 627.622 146.57 2
-2 6 8 82.3668 126.478 5
2 -6 -8 -131.526 123.601 4
-2 5 8 -24.6265 112.672 5
2 -5 -8 142.544 122.014 4
2 -4 -8 197.8 124.558 5
-2 4 8 61.0283 121.718 5
-2 4 8 -13.8809 147.417 6
-2 3 8 404.682 140.089 4
-2 3 8 45.9304 144.405 6
-2 2 8 13549 568.642 4
-2 2 8 15126.9 690.282 6
-2 1 8 1990.3 153.847 2
2 -1 -8 1811.11 158.322 3
-2 1 8 2127.49 252.271 6
-2 0 8 6182.09 280.065 2
2 0 -8 6420.05 310.331 3
-2 0 8 6123.99 405.72 6
2 1 -8 62628.2 1053.88 2
-2 -1 8 65204.2 930.218 2
2 1 -8 63270 803.592 3
-2 -1 8 65925.2 1302.86 1
-2 -1 8 59880.5 1350.13 6
2 2 -8 7298.2 384.107 2
2 2 -8 6801.71 300.241 3
-2 -2 8 7295.12 349.26 2
-2 -2 8 6798.22 423.999 1
-2 -2 8 6903.43 310.287 3
-2 -2 8 7103.87 460.574 6
2 2 -8 6479.95 472.365 6
2 3 -8 15752.1 701.132 1
2 3 -8 14994.3 589.062 2
-2 -3 8 14662.3 651.396 1
2 3 -8 14120.3 505.766 3
-2 -3 8 14535.3 522.847 3
-2 -3 8 15419.4 678.952 6
2 3 -8 15546.6 756.765 6
-2 -4 8 29559.6 967.281 1
2 4 -8 28027.4 870.667 2
-2 -4 8 29052 830.393 3
2 4 -8 30514.2 1030.35 1
2 4 -8 27468.1 1051.36 6
-2 -4 8 28748.7 920.385 6
-2 -4 8 27459.1 806.963 5
-2 -5 8 841.672 180.28 5
-2 -5 8 1040.07 242.334 1
-2 -5 8 551.43 173.569 3
-2 -6 8 1890.64 311.847 1
2 6 -8 2249.05 336.51 6
-2 -6 8 1550.74 280.807 3
-2 -7 8 1237.69 281.607 1
2 7 -8 1508.31 309.77 6
-2 -7 8 1357.37 301.833 3
-2 -8 8 189.82 178.042 1
2 8 -8 226.598 169.454 6
-2 -8 8 63.1937 186.079 3
-2 -9 8 200.72 203.148 1
2 9 -8 291.186 196.219 6
-2 -9 8 163.644 209.172 3
2 10 -8 46.4289 166.57 6
-2 -10 8 284.004 250.367 3
-2 9 9 159.54 193.462 5
2 -9 -9 -27.8076 145.105 4
2 -9 -9 291.22 227.406 3
-2 8 9 438.846 198.531 5
2 -8 -9 268.156 163.143 4
2 -8 -9 369.762 249.033 3
-2 7 9 163.293 162.897 5
2 -7 -9 -26.4815 130.548 4
-2 6 9 364.589 161.307 5
2 -6 -9 200.2 136.419 4
2 -5 -9 1860.05 243.706 4
-2 5 9 1996.89 281.689 5
-2 4 9 1009.37 204.357 5
-2 4 9 966.642 245.047 6
-2 3 9 11644.5 517.574 4
-2 3 9 13857.4 734.359 6
-2 2 9 890.457 173.817 4
-2 2 9 620.255 85.8147 2
2 -2 -9 862.255 146.712 3
-2 2 9 738.188 193.225 6
-2 1 9 3629.33 188.158 2
2 -1 -9 3221.85 232.798 3
-2 1 9 3314.76 341.806 6
-2 0 9 11521.3 573.629 6
-2 0 9 11792.7 361.884 2
2 0 -9 11332.8 446.142 3
-2 -1 9 27.7077 96.5333 3
2 1 -9 263.148 125.275 2
-2 -1 9 292.773 175.525 6
-2 -1 9 503.119 124.367 2
2 1 -9 80.1395 77.7656 3
-2 -1 9 321.507 194.213 1
-2 -2 9 875.953 211.496 1
-2 -2 9 685.187 142.728 3
2 2 -9 1116.07 184.268 2
-2 -2 9 1019.58 219.089 6
2 2 -9 1376.76 279.039 6
2 2 -9 602.39 127.978 3
2 3 -9 2434.9 271.689 2
-2 -3 9 1855.93 274.282 1
-2 -3 9 1849.75 270.892 6
2 3 -9 2692.05 363.546 6
2 3 -9 2101.45 299.393 1
2 3 -9 1047.54 166.843 3
-2 -3 9 1144.63 182.704 3
2 4 -9 966.366 261.106 6
-2 -4 9 773.927 208.585 6
2 4 -9 951.691 202.974 2
2 4 -9 685.426 211.796 1
-2 -4 9 652.506 180.589 3
-2 -4 9 864.063 231.898 1
-2 -5 9 2741.15 351.095 1
-2 -5 9 2455.04 301.091 3
2 5 -9 2491.56 362.458 6
-2 -5 9 2170.46 267.892 5
-2 -6 9 3331.61 404.81 1
-2 -6 9 3177.39 377.082 3
2 6 -9 3034.72 393.925 6
-2 -7 9 159.823 182.957 1
2 7 -9 505.882 209.833 6
-2 -7 9 -94.315 177.19 3
-2 -8 9 835.447 268.511 1
2 8 -9 851.947 280.79 6
-2 -8 9 1257.44 319.979 3
-2 -9 9 898.789 289.262 1
2 9 -9 702.228 266.409 6
-2 -9 9 1462.37 366.232 3
2 10 -9 41.2422 160.311 6
-2 -10 9 54.3881 200.387 3
-2 9 10 45.1955 145.736 5
2 -9 -10 -14.3659 143.898 4
2 -9 -10 55.8768 199.798 3
-2 8 10 145.741 154.985 5
2 -8 -10 -36.0294 134.652 4
2 -8 -10 57.9238 192.985 3
-2 7 10 243.703 163.625 5
2 -7 -10 26.1536 121.206 4
-2 6 10 -149.562 144.196 5
2 -6 -10 -113.961 135.391 4
-2 6 10 177.061 80.6865 2
-2 5 10 475.343 176.967 5
-2 4 10 805.73 198.765 5
-2 3 10 1469.76 104.285 2
-2 3 10 2421.1 256.661 4
-2 3 10 1963.33 309.957 6
-2 3 10 2248.61 263.534 5
-2 2 10 1696.59 225.542 4
-2 2 10 1377.1 95.4522 2
-2 2 10 1564.14 256.796 6
2 -2 -10 1458.01 188.945 3
-2 1 10 23133.5 848.126 6
-2 1 10 22208.2 406.4 2
2 -1 -10 20638.4 605.824 3
-2 0 10 6301.93 449.479 6
-2 0 10 5685.31 245.442 2
2 0 -10 5529.33 338.835 3
2 1 -10 7664.27 381.985 2
2 1 -10 7285.01 352.667 3
-2 -1 10 7682.29 534.264 6
-2 -1 10 7671.26 512.371 1
-2 -1 10 6708.46 348.818 3
-2 -2 10 45466.1 945.227 3
2 2 -10 46505.1 999.5 2
2 2 -10 47573.6 932.76 3
-2 -2 10 46576.9 1218.45 1
-2 -2 10 47318.3 1223.68 6
2 2 -10 45753.1 1296.59 6
2 3 -10 7677.46 453.148 2
-2 -3 10 5760.45 440.521 1
2 3 -10 5973.48 362.253 3
-2 -3 10 6042.24 463.574 6
2 3 -10 7305.65 547.216 6
-2 -3 10 5694.33 350.425 3
-2 -4 10 7847.42 543.072 1
2 4 -10 8134.02 502.677 2
2 4 -10 7601.91 464.196 3
-2 -4 10 7939.98 476.126 3
-2 -4 10 8358.79 550.66 6
2 4 -10 7462.3 590.56 6
-2 -5 10 9851.48 636.568 1
-2 -5 10 8970.83 554.824 3
2 5 -10 9182.08 671.454 6
-2 -6 10 -51.1195 157.009 1
2 6 -10 107.609 176.108 6
-2 -6 10 -10.1321 145.573 3
-2 -7 10 1073.28 286.292 1
2 7 -10 1087.56 286.265 6
-2 -7 10 991.735 268.036 3
-2 -8 10 895.194 276.656 1
2 8 -10 571.707 226.318 6
-2 -8 10 604.36 254.637 3
-2 -9 10 443.418 245.44 1
2 9 -10 97.7928 170.728 6
-2 -9 10 231.332 211.715 3
2 10 -10 -320.229 216.676 6
-2 -10 10 -743.869 321.336 3
-2 9 11 -14.5987 147.061 5
2 -9 -11 6.80174 139.606 4
2 -9 -11 -40.7522 198.309 3
-2 8 11 -26.3395 143.95 5
2 -8 -11 -149.45 147.735 4
-2 7 11 263.922 163.675 5
2 -7 -11 45.2732 119.336 4
-2 6 11 59.2132 124.533 5
2 -6 -11 -44.9536 118.952 4
-2 6 11 0.8552 62.3988 2
-2 5 11 2601.84 146.883 2
-2 5 11 4125.31 405.445 5
-2 4 11 920.336 202.918 5
-2 4 11 530.345 52.9323 2
-2 3 11 3652.29 306.541 4
-2 3 11 3073.09 367.172 6
2 -3 -11 3546.02 314.471 3
-2 3 11 3383.89 329.787 5
2 -2 -11 8068.57 429.056 3
-2 2 11 8481.03 457.892 4
2 -2 -11 9329.79 610.326 6
-2 2 11 8660.7 559.962 6
2 -1 -11 3670.44 286.159 3
-2 1 11 3568.13 349.737 6
2 0 -11 4601.25 282.464 2
2 0 -11 5008 351.194 3
-2 0 11 5198.9 436.574 6
-2 -1 11 2936.87 259.458 3
2 1 -11 3962.39 287.54 2
2 1 -11 3437.14 274.438 3
-2 -1 11 3643.54 383.367 6
-2 -1 11 2543 320.922 1
-2 -2 11 123.026 119.922 3
-2 -2 11 343.25 197.088 1
2 2 -11 966.306 187.882 2
2 2 -11 1182.82 278.801 6
-2 -2 11 801.766 216.301 6
2 2 -11 216.01 109.27 3
-2 -3 11 317.004 175.734 1
2 3 -11 770.221 178.291 2
-2 -3 11 567.885 183.348 6
2 3 -11 298.757 115.185 3
2 3 -11 740.55 239.589 6
-2 -3 11 123.464 117.742 3
-2 -4 11 1471.33 283.347 1
2 4 -11 2092.74 282.02 2
2 4 -11 1488.16 242.296 3
-2 -4 11 1665.66 248.755 3
2 4 -11 2064.04 341.507 6
-2 -5 11 -66.8269 159.713 3
2 5 -11 547.404 236.244 6
-2 -5 11 282.579 174.369 1
-2 -6 11 813.179 266.263 1
2 6 -11 798.024 270.259 6
-2 -6 11 374.547 188.683 3
-2 -7 11 3488.2 453.494 1
-2 -7 11 2968.2 413.873 3
2 7 -11 3036.24 445.176 6
-2 -8 11 71.7873 189.568 1
2 8 -11 98.3646 178.749 6
-2 -8 11 45.359 193.314 3
2 9 -11 370.146 232.068 6
-2 -9 11 933.908 304.26 3
-2 -10 11 229.328 212.072 3
2 -9 -12 -1.23546 146.531 4
2 -9 -12 37.3408 191.021 3
-2 8 12 95.5587 151.862 5
2 -8 -12 -25.5947 138.905 4
-2 7 12 -246.379 165.575 5
2 -7 -12 -73.339 139.338 4
-2 6 12 52.312 118.457 5
-2 5 12 213.678 38.6222 2
-2 5 12 367.859 166.037 5
-2 4 12 -45.4057 126.252 5
2 -4 -12 192.627 127.964 3
2 -3 -12 2662.82 291.949 3
-2 3 12 2924.84 278.901 4
-2 3 12 2806.26 315.574 5
-2 2 12 950.473 194.158 5
2 -2 -12 1001.11 179.274 3
-2 2 12 1044.15 180 4
-2 2 12 739.253 203.872 6
2 -2 -12 847.369 235.696 6
2 -1 -12 248.149 116.35 3
-2 1 12 464.985 173.867 6
-2 1 12 238.876 151.973 5
-2 0 12 25704.4 960.087 6
2 0 -12 25671 645.796 2
2 1 -12 8402.57 405.617 2
2 1 -12 7897.69 435.694 3
-2 -1 12 8578.59 568.574 6
-2 -1 12 8020.65 572.848 1
-2 -1 12 8039.09 434.736 3
2 2 -12 10069.4 493.854 2
2 2 -12 9332.22 472.587 3
-2 -2 12 9721.44 628.78 1
-2 -2 12 9239.83 572.835 6
-2 -2 12 9545.7 492.669 3
2 2 -12 9710.61 637.556 6
2 3 -12 25539.2 865.221 2
-2 -3 12 23605.2 934.926 1
2 3 -12 24762.4 825.706 3
-2 -3 12 25411.5 823.899 3
2 3 -12 23695 1011.66 6
-2 -4 12 1185.73 250.576 1
2 4 -12 1065.02 207.814 3
2 4 -12 1374.11 287.459 6
-2 -4 12 705.727 170.396 3
-2 -5 12 3736.62 431.287 1
2 5 -12 3337.94 371.509 3
-2 -5 12 3687.7 390.62 3
2 5 -12 3548.73 460.309 6
-2 -6 12 6638.86 590.21 1
-2 -6 12 5749.89 519.15 3
2 6 -12 5775.51 596.308 6
-2 -7 12 263.124 206.6 1
2 7 -12 270.039 229.522 6
-2 -7 12 -136.053 189.97 3
-2 -8 12 494.913 241.106 1
2 8 -12 525.731 254.854 6
-2 -8 12 125.686 183.14 3
2 9 -12 290.654 231.332 6
-2 -9 12 34.1315 205.026 3
-2 -10 12 463.914 265.302 3
-2 8 13 -33.9061 137.889 5
2 -8 -13 -204.48 162.385 4
-2 7 13 101.944 140.142 5
-2 6 13 514.835 186.417 5
-2 5 13 502.452 188.042 5
-2 4 13 2652.43 321.123 5
-2 3 13 4005.14 319.23 4
2 -3 -13 3749.84 354.113 3
2 -3 -13 3748.69 436.303 6
-2 3 13 3559.99 362.951 5
-2 2 13 2128.56 246.337 4
2 -2 -13 1893.77 245.254 3
2 -2 -13 2416.04 368.394 6
-2 2 13 2028.72 285.416 5
2 -1 -13 11766.1 746.758 6
-2 1 13 11812.8 680.18 6
2 -1 -13 10314.9 541.109 3
2 0 -13 2106.61 204.435 2
2 0 -13 1934.43 246.89 3
-2 0 13 2152.97 325.184 6
2 0 -13 2631.44 378.059 6
-2 -1 13 293.788 170.294 6
2 1 -13 323.849 127.851 2
-2 -1 13 153.697 125.576 3
-2 -1 13 -115.834 195.161 1
2 1 -13 560.322 222.164 6
2 1 -13 47.61 102.154 3
-2 -2 13 272.578 136.693 3
2 2 -13 1480.33 228.908 2
-2 -2 13 362.792 207.755 1
2 2 -13 1429.22 291.341 6
2 2 -13 265.891 131.817 3
-2 -3 13 6.16135 119.953 3
-2 -3 13 297.221 190.333 1
2 3 -13 -64.4846 122.879 2
2 3 -13 -111.895 108.911 3
-2 -4 13 192.95 177.365 1
2 4 -13 171.073 130.995 3
2 4 -13 346.892 208.503 6
-2 -4 13 -78.5481 156.824 3
-2 -5 13 3313.21 417.804 1
2 5 -13 3527.47 408.21 3
-2 -5 13 3548.04 391.628 3
2 5 -13 3147.46 449.207 6
-2 -6 13 537.424 238.897 1
2 6 -13 759.854 281.35 6
-2 -6 13 -3.50511 166.176 3
-2 -7 13 1656.85 354.008 1
2 7 -13 1500.54 368.766 6
-2 -7 13 1523.64 333.96 3
2 8 -13 1779.38 392.11 6
-2 -8 13 1931.88 379.978 1
-2 -8 13 1311.37 332.914 3
2 9 -13 171.672 196.161 6
-2 -9 13 -54.0603 194.931 3
-2 8 14 -5.58149 139.445 5
-2 7 14 -121.69 141.524 5
-2 6 14 110.75 149.75 5
-2 5 14 -1.05698 125.743 5
-2 4 14 168.629 134.049 5
-2 3 14 338.499 172.687 5
2 -3 -14 389.053 161.964 3
-2 3 14 564.886 153.116 4
2 -3 -14 297.645 210.619 6
-2 2 14 3766.72 314.607 4
2 -2 -14 3899.67 355.359 3
2 -2 -14 4232.05 492.121 6
-2 2 14 3576.42 381.408 5
2 -1 -14 3937.9 361.886 3
2 -1 -14 4069.19 478.74 6
2 0 -14 3705.48 255.996 2
2 0 -14 3769.86 352.345 3
2 0 -14 4021.33 460.958 6
-2 -1 14 20086.1 740.44 3
2 1 -14 17735.7 605.582 2
2 1 -14 18203 754.034 3
2 1 -14 20184.3 965.522 6
-2 -1 14 18804.4 928.724 1
2 2 -14 5127.76 380.982 2
2 2 -14 4689.05 382.276 3
-2 -2 14 4312.93 486.12 1
-2 -2 14 4318.87 364.079 3
2 2 -14 4510.69 463.628 6
2 3 -14 7398.18 595.708 6
2 3 -14 7753.17 519.139 2
2 3 -14 7250.45 503.731 3
-2 -3 14 7534.35 597.176 1
-2 -3 14 7514.44 517.786 3
-2 -4 14 15415.5 858.365 1
2 4 -14 15897.5 779.342 3
-2 -4 14 16117.2 771.181 3
2 4 -14 13819.5 844.814 6
2 5 -14 1380.5 273.152 3
2 5 -14 1128.88 302.13 6
-2 -5 14 1106.79 242.235 3
-2 -5 14 1406.25 317.052 1
-2 -6 14 2797.38 426.984 1
2 6 -14 1954.81 388.353 6
-2 -6 14 1841.91 333.092 3
-2 -7 14 1605.58 354.227 1
2 7 -14 1357.68 364.583 6
-2 -7 14 1563.05 329.546 3
-2 -8 14 402.368 257.725 1
2 8 -14 430.159 284.698 6
-2 -8 14 111.014 194.9 3
-2 -9 14 140.662 210.019 3
-2 8 15 247.284 184.416 5
-2 7 15 -26.4167 144.868 5
-2 6 15 725.427 225.134 5
-2 5 15 768.677 219.115 5
-2 4 15 685.613 195 5
-2 3 15 6313.9 395.323 4
2 -3 -15 5109.35 446.439 3
2 -3 -15 7193.37 631.534 6
-2 3 15 6164.54 504.172 5
-2 2 15 2767.51 276.936 4
2 -2 -15 2785.2 437.31 6
2 -2 -15 3141.11 339.954 3
-2 2 15 2878.84 360.392 5
2 -1 -15 835.764 197.418 3
-2 1 15 606.291 137.742 4
2 -1 -15 976.825 274.752 6
2 0 -15 3977.12 262.966 2
2 0 -15 5223.99 426.224 3
2 0 -15 4976.82 525.8 6
-2 -1 15 725.966 183.303 3
2 1 -15 902.703 166.449 2
-2 -1 15 1156.14 284.239 1
2 1 -15 1339.95 295.124 6
2 1 -15 629.02 168.363 3
-2 -2 15 2032.9 269.703 3
2 2 -15 2419.7 366.529 6
2 2 -15 2415.7 279.163 2
-2 -2 15 1415.8 303.016 1
2 2 -15 1500.09 244.107 3
-2 -3 15 -125.712 181.278 3
2 3 -15 1092.37 290.003 6
2 3 -15 628.84 196.817 2
-2 -3 15 414.846 232.152 1
2 3 -15 16.0964 149.111 3
-2 -4 15 54.4596 135.917 3
-2 -4 15 -40.1977 164.62 1
2 4 -15 84.831 180.849 6
2 4 -15 -20.7465 172.145 3
-2 -5 15 737.292 261.214 1
2 5 -15 1148.44 314.393 6
-2 -5 15 806.514 228.672 3
-2 -6 15 3191.85 457.028 1
-2 -6 15 2763.41 398.11 3
2 6 -15 2879.04 472.072 6
-2 -7 15 107.481 182.39 1
2 7 -15 176.63 197.134 6
-2 -7 15 243.114 208.226 3
-2 -8 15 648.419 272.773 1
2 8 -15 523.4 292.228 6
-2 -8 15 815.07 289.854 3
-2 -9 15 684.314 296.246 3
-2 7 16 187.576 176.917 5
-2 6 16 -76.5438 141.826 5
-2 5 16 47.7133 136.142 5
-2 4 16 321.037 168.863 5
-2 3 16 614.365 199.931 5
-2 3 16 907.078 172.819 4
2 -3 -16 761.63 272.1 6
-2 2 16 441.982 189.28 5
2 -2 -16 571.933 188.388 3
-2 2 16 207.694 118.468 4
2 -2 -16 423.883 229.901 6
-2 1 16 4790.11 345.429 4
2 -1 -16 6004.65 482.121 3
2 -1 -16 5837.47 603.825 6
2 0 -16 2268.71 200.38 2
2 0 -16 3054.22 342.493 3
2 0 -16 2820.29 410.604 6
2 1 -16 2898.36 262.007 2
2 1 -16 3396.85 380.373 3
2 1 -16 3991.82 472.244 6
-2 -1 16 3668.61 451.787 1
-2 -1 16 3968.03 366.88 3
2 2 -16 15578.6 891.473 6
2 2 -16 12586.3 618.415 2
2 2 -16 15497 770.038 3
-2 -2 16 14368.3 909.45 1
-2 -2 16 15599.7 721.605 3
2 3 -16 2865.53 346.53 2
2 3 -16 3536.6 396.372 3
-2 -3 16 3529.21 455.228 1
-2 -3 16 2860.97 354.255 3
2 3 -16 3372.97 431.842 6
2 4 -16 3749.86 471.722 6
-2 -4 16 4107.01 502.293 1
2 4 -16 3658.96 428.023 3
-2 -4 16 3999.37 444.281 3
-2 -5 16 10130.3 773.76 1
-2 -5 16 10051 702.552 3
2 5 -16 8502.05 734.655 6
-2 -6 16 350.143 240.558 1
2 6 -16 450.634 256.053 6
-2 -6 16 179.564 176.222 3
-2 -7 16 718.743 287.895 1
2 7 -16 857.807 319.364 6
-2 -7 16 494.988 239.717 3
2 8 -16 454.107 278.646 6
-2 -8 16 508.719 259.852 3
-2 -9 16 255.952 239.154 3
-2 7 17 416.43 215.032 5
-2 6 17 82.7007 147.402 5
-2 5 17 439.895 196.124 5
-2 4 17 1616.85 302.411 5
-2 3 17 344.409 186.188 5
2 -3 -17 647.532 266.955 6
-2 2 17 3688.68 314.722 4
2 -2 -17 3642.4 524.694 6
-2 2 17 3633.76 427.481 5
-2 1 17 1151.36 180.999 4
2 -1 -17 1717.25 290.256 3
2 -1 -17 1245.96 324.547 6
2 0 -17 1193.62 149.946 2
2 0 -17 1155.75 234.936 3
-2 -1 17 2113.17 380.563 1
2 1 -17 2987.74 429.075 6
2 1 -17 2178.7 233.808 2
2 1 -17 2369.41 340.14 3
-2 -1 17 1959.46 284.143 3
-2 -2 17 299.041 155.103 3
-2 -2 17 66.6558 220.565 1
2 2 -17 234.108 144.257 3
2 2 -17 857.214 201.11 2
2 2 -17 673.813 256.252 6
-2 -3 17 -39.2394 149.518 3
2 3 -17 -137.17 163.338 3
-2 -3 17 79.2643 198.372 1
2 3 -17 -470.974 245.612 2
2 3 -17 123.863 169.316 6
-2 -4 17 94.3854 201.168 3
-2 -4 17 766.9 296.454 1
2 4 -17 768.32 262.894 6
-2 -5 17 154.923 172.66 3
-2 -5 17 527.619 253.91 1
2 5 -17 332.663 201.139 6
2 6 -17 58.4284 196.993 6
-2 -6 17 430.184 250.451 1
-2 -6 17 -168.145 217.592 3
-2 -7 17 2341.71 449.253 1
2 7 -17 1393.84 381.667 6
-2 -7 17 1733.36 358.023 3
-2 -8 17 325.806 227.756 3
-2 7 18 133.62 174.555 5
-2 6 18 208.071 175.556 5
-2 5 18 -103.104 151.722 5
-2 4 18 489.089 209.799 5
-2 3 18 622.578 225.529 5
2 -3 -18 497.156 265.463 6
-2 2 18 327.348 186.144 5
-2 2 18 322.925 124.118 4
2 -2 -18 461.1 261.347 6
-2 1 18 388.932 127.669 4
2 -1 -18 680.501 288.633 6
2 0 -18 3018.18 226.036 2
2 0 -18 4567.21 454.366 3
2 0 -18 4525.75 554.899 6
2 1 -18 3033.75 270.165 2
2 1 -18 3166.42 402.586 3
-2 -1 18 4207.58 509.715 1
2 1 -18 3744.21 481.051 6
-2 -1 18 3367.77 358.606 3
2 2 -18 3320.67 341.128 2
2 2 -18 3078.94 397.44 3
-2 -2 18 3584.87 503.498 1
-2 -2 18 3635.26 387.815 3
2 2 -18 4054.31 503.33 6
-2 -3 18 16503.8 999.048 1
-2 -3 18 16302.5 846.426 3
2 3 -18 14772.9 898.712 6
-2 -4 18 2281.98 372.44 3
-2 -4 18 3301.68 481.865 1
2 4 -18 2823.43 428.372 6
-2 -5 18 3243.12 489.45 1
-2 -5 18 2492.65 412.216 3
2 5 -18 2626.83 437.122 6
-2 -6 18 4453.99 574.291 1
-2 -6 18 4393.74 532.709 3
2 6 -18 3361.16 522.852 6
-2 -7 18 73.6524 188.418 1
2 7 -18 169.068 226.391 6
-2 -7 18 123.01 170.964 3
-2 -8 18 100.824 194.572 3
-2 6 19 135.758 186.652 5
-2 5 19 -12.3653 150.61 5
-2 4 19 1537.4 312.504 5
-2 3 19 697.382 238.947 5
2 -3 -19 749.781 310.392 6
-2 2 19 249.43 183.268 5
-2 2 19 249.202 119.646 4
2 -2 -19 218.151 247.786 6
-2 1 19 3881.01 330.458 4
2 -1 -19 5302.71 621.661 6
2 0 -19 787.658 119.287 2
2 0 -19 1276.23 321.903 6
2 1 -19 330.341 131.277 2
-2 -1 19 151.154 151.534 3
-2 -1 19 95.2967 214.156 1
2 1 -19 457.538 230.271 6
-2 -2 19 685.654 220.129 3
2 2 -19 1349.83 244.722 2
2 2 -19 1375.1 345.206 6
-2 -3 19 -571.661 262.291 3
2 3 -19 233.367 206.997 6
-2 -3 19 -799.955 348.05 1
-2 -4 19 -150.6 218.312 3
-2 -4 19 -24.9716 184.058 1
2 4 -19 -208.968 220.95 6
-2 -5 19 805.414 292.449 3
-2 -5 19 1377.28 383.683 1
2 5 -19 1277.76 354.392 6
-2 -6 19 245.356 219.412 3
2 6 -19 415.428 235.108 6
-2 -6 19 491.138 261.996 1
-2 -7 19 -45.0779 209.626 3
-2 -8 19 1233.74 351.308 3
-2 6 20 37.5436 164.818 5
-2 5 20 -145.187 181.247 5
-2 4 20 185.282 186.17 5
-2 3 20 62.1426 166.172 5
2 -3 -20 186.497 221.258 6
-2 2 20 419.923 211.122 5
2 -2 -20 86.9765 230.135 6
-2 1 20 757.629 166.107 4
2 -1 -20 1369.58 369.106 6
-2 0 20 667.935 270.207 1
2 0 -20 1685.96 392.731 6
2 1 -20 8953.26 753.864 6
-2 -1 20 9871.06 799.335 1
-2 -1 20 8344.81 590.808 3
2 2 -20 3088.14 335.733 2
-2 -2 20 2413.48 449.825 1
2 2 -20 3036.09 455.757 6
-2 -2 20 2312.38 342.113 3
-2 -3 20 2256.63 354.751 3
2 3 -20 2007.41 376.525 6
-2 -3 20 1249.41 337.061 1
-2 -4 20 8903.71 807.014 1
-2 -4 20 8922.25 726.012 3
2 4 -20 8042.7 726.582 6
-2 -5 20 365.153 215.44 3
-2 -5 20 937.867 337.664 1
2 5 -20 458.097 234.144 6
-2 -6 20 -277.681 261.304 3
2 6 -20 219.157 213.913 6
-2 -6 20 182.483 200.831 1
-2 -7 20 1454.87 375.607 3
-2 5 21 113.239 181.871 5
-2 4 21 164.294 168.498 5
-2 3 21 1256.23 321.72 5
2 -3 -21 1751.93 428.488 6
-2 2 21 519.291 240.202 5
2 -2 -21 694.694 332.583 6
2 -1 -21 735.952 318.137 6
2 0 -21 2718.36 482.776 6
-2 0 21 2772.02 454.749 1
-2 -1 21 937.039 246.071 3
-2 -1 21 1392.96 360.742 1
2 1 -21 1120.96 320.616 6
-2 -2 21 141.505 154.963 3
-2 -2 21 -189.42 256.29 1
2 2 -21 105.615 184.829 6
-2 -3 21 -127.876 194.867 3
2 3 -21 377.608 253.678 6
-2 -3 21 -222.856 264.473 1
-2 -4 21 -38.1593 231.458 1
2 4 -21 274.319 221.132 6
-2 -5 21 -196.875 228.404 3
-2 -5 21 144.304 226.664 1
2 5 -21 3.73478 176.859 6
-2 -6 21 769.981 314.71 3
-2 -7 21 -52.6872 206.066 3
-2 5 22 97.5414 185.783 5
-2 4 22 189.246 191.461 5
-2 3 22 161.156 184.923 5
2 -3 -22 -180.419 208.383 6
-2 2 22 242.911 209.689 5
2 -2 -22 325.645 262.551 6
2 -1 -22 1802.49 425.18 6
-2 0 22 1028.86 312.439 1
2 0 -22 1077.28 352.288 6
-2 -1 22 180.929 207.597 1
-2 -1 22 462.7 191.613 3
2 1 -22 438.959 247.758 6
-2 -2 22 8073.13 802.566 1
2 2 -22 6844.47 685.557 6
-2 -2 22 6303.59 566.657 3
-2 -3 22 1634.56 319.771 3
2 3 -22 2179.88 419.427 6
-2 -3 22 1081.12 340.799 1
-2 -4 22 -61.5817 177.053 3
-2 -4 22 238.012 261.421 1
2 4 -22 686.891 262.398 6
-2 -5 22 3799.01 595.351 1
-2 -5 22 3568.84 534.168 3
2 5 -22 3505.89 535.163 6
-2 -6 22 45.8826 231.798 3
-2 4 23 484.967 246.027 5
-2 3 23 269.216 227.843 5
2 -3 -23 8.41968 227.411 6
-2 2 23 1927.19 397.061 5
2 -2 -23 1859.62 460.434 6
2 -1 -23 1275.99 363.535 6
-2 0 23 -783.661 306.295 1
2 0 -23 307.625 250.581 6
-2 -1 23 1951.08 429.219 1
-2 -1 23 1832.76 328.214 3
2 1 -23 2270.79 441.288 6
-2 -2 23 271.266 173.891 3
2 2 -23 844.132 307.083 6
-2 -3 23 150.777 151.447 3
2 3 -23 195.025 198.055 6
-2 -4 23 -382.5 240.024 3
-2 -4 23 135.441 216.228 1
2 4 -23 390.768 239.889 6
-2 -5 23 -550.956 274.279 3
-2 -6 23 -206.373 256.811 3
-2 3 24 98.5595 191.09 5
2 -3 -24 80.866 244.363 6
-2 2 24 89.3135 173.661 5
2 -2 -24 220.158 258.281 6
-2 1 24 -82.8654 175.277 5
2 -1 -24 412.102 282.453 6
2 0 -24 2425.85 494.394 6
-2 0 24 1611.97 406.25 1
-2 -1 24 1637.14 306.106 3
2 1 -24 1233.26 351.076 6
-2 -1 24 1077.66 331.63 1
-2 -2 24 329.372 252.373 1
-2 -2 24 305.646 168.927 3
2 2 -24 621.133 252.64 6
-2 -3 24 3676.45 575.512 1
2 3 -24 3476.23 539.195 6
-2 -3 24 2863.52 447.653 3
-2 -4 24 800.677 270.501 3
-2 -5 24 129.489 198.648 3
2 -3 -25 510.714 276.082 6
-2 2 25 -156.189 192.3 5
2 -2 -25 -321.626 256.701 6
-2 1 25 1398.85 357.37 5
2 -1 -25 1544.86 408.242 6
-2 0 25 509.821 264.709 1
2 0 -25 1267.97 383.819 6
-2 -1 25 -48.454 159.977 3
2 1 -25 9.97122 200.118 6
-2 -1 25 -194.739 255.071 1
-2 -2 25 143.061 238.664 1
-2 -2 25 64.112 156.641 3
2 2 -25 81.5369 201.101 6
-2 -3 25 -127.823 196.159 3
-2 -4 25 -501.087 253.065 3
-2 -5 25 -198.299 242.843 3
2 -3 -26 -51.4468 210.715 6
2 -2 -26 418.424 289.061 6
2 -1 -26 188.254 254.206 6
2 0 -26 202.267 244.772 6
-2 -2 26 952.641 275.715 3
-2 -3 26 611.78 237.018 3
-2 -4 26 3253.63 501.855 3
-2 -2 27 -67.1592 159.571 3
-2 -3 27 -384.988 221.68 3
-3 -2 -22 -522.426 213.133 2
-3 5 -21 151.064 165.395 6
-3 4 -21 538.982 228.686 6
-3 3 -21 93.3644 154.842 6
3 -2 21 -77.2481 222.224 3
3 -1 21 121.097 194.815 3
3 0 21 26.2364 184.588 3
3 1 21 330.672 237.919 3
-3 -2 -21 33.7762 151.575 2
-3 -3 -21 -0.22093 142.732 2
-3 5 -20 157.965 184.593 6
-3 4 -20 824.185 244.096 6
3 -3 20 -186.357 221.018 3
-3 3 -20 145.479 145.079 6
3 -2 20 258.931 233.551 3
-3 2 -20 429.001 202.547 6
3 -1 20 342.802 250.569 3
3 0 20 148.85 197.184 3
3 1 20 831.241 288.632 3
-3 -2 -20 108.267 149.505 2
-3 -3 -20 -107.895 147.22 2
-3 5 -19 362.364 206.795 6
3 -4 19 29.5919 219.526 3
-3 4 -19 177.604 160.259 6
3 -3 19 424.898 264.586 3
-3 3 -19 553.862 195.733 6
3 -2 19 -269.061 235.122 3
-3 2 -19 317.011 174.26 6
3 -1 19 513.467 251.797 3
3 0 19 401.725 227.576 3
3 1 19 57.7874 164.438 3
-3 -2 -19 -178.95 167.479 2
-3 -3 -19 -250.013 175.525 2
-3 -4 -19 173.611 159.097 2
-3 6 -18 79.8272 171.58 6
3 -5 18 520.074 273.297 3
-3 5 -18 233.526 180.573 6
3 -4 18 -198.496 253.713 3
-3 4 -18 -32.1347 141.053 6
3 -3 18 459.355 279.413 3
-3 3 -18 478.345 188.028 6
3 -2 18 128.101 176.797 3
-3 2 -18 155.835 147.328 6
3 -1 18 1644.35 356.529 3
-3 1 -18 1201.69 249.958 6
3 0 18 989.221 299.683 3
3 1 18 -228.387 184.087 3
-3 -2 -18 414.147 208.757 2
-3 -3 -18 82.2038 165.285 2
-3 -4 -18 187.092 160.719 2
-3 -5 -18 24.4356 125.197 2
-3 6 -17 -34.738 160.671 6
3 -5 17 774.039 318.565 3
-3 5 -17 589.363 217.553 6
3 -4 17 94.7483 208.937 3
-3 4 -17 145.748 140.59 6
3 -3 17 227.234 218.991 3
-3 3 -17 274.767 154.773 6
3 -2 17 1409.99 348.927 3
-3 2 -17 1577.41 259.66 6
3 -1 17 273.444 216.929 3
-3 1 -17 260.166 170.78 6
3 0 17 112.838 184.831 3
3 0 17 -135.774 137.019 1
-3 0 -17 18.7371 106.428 6
3 1 17 129.278 188.006 3
3 1 17 178.899 130.737 1
-3 -2 -17 -26.8824 151.93 2
-3 -3 -17 1.75638 148.183 2
-3 -4 -17 260.578 183.346 2
-3 -5 -17 18.4996 133.399 2
-3 -6 -17 -336.126 182.853 2
-3 6 -16 302.735 181.994 6
3 -6 16 170.848 219.247 3
3 -5 16 423.92 257.917 3
-3 5 -16 469.974 213.314 6
3 -4 16 196.123 226.431 3
-3 4 -16 304.602 165.826 6
3 -3 16 321.865 121.334 1
-3 3 -16 490.894 178.772 6
3 -2 16 1314.64 329.934 3
3 -2 16 1665.96 203.675 1
-3 2 -16 1452.73 240.019 6
3 -1 16 -102.122 195.092 3
-3 1 -16 6.91212 114.681 6
3 -1 16 83.3865 85.6801 1
3 0 16 1138.52 292.153 3
3 0 16 911.233 162.088 1
-3 0 -16 922.201 177.351 6
3 1 16 1434.65 317.651 3
3 1 16 1528.5 221.554 1
3 2 16 38.9842 90.1872 5
-3 -2 -16 69.2879 145.993 2
-3 -3 -16 796.988 252.587 2
-3 -4 -16 27.0389 144.278 2
-3 -5 -16 97.0911 151.074 2
-3 -6 -16 -171.916 163.501 2
-3 7 -15 381.83 215.664 6
-3 6 -15 545.454 223.967 6
3 -6 15 344.151 239.906 3
3 -5 15 61.3588 176.725 3
3 -5 15 124.17 103.33 1
-3 5 -15 218.177 172.387 6
3 -4 15 1563.46 396.435 3
3 -4 15 1945.98 236.491 1
-3 4 -15 1534.46 283.328 6
3 -3 15 443.761 262.456 3
3 -3 15 825.305 156.108 1
-3 3 -15 838.019 211.569 6
3 -2 15 107.924 179.732 3
3 -2 15 648.627 137.455 1
-3 2 -15 356.821 153.302 6
3 -1 15 506.53 232.516 3
3 -1 15 938.95 191.301 5
-3 1 -15 656.679 160.34 6
3 -1 15 452.556 112.839 1
3 0 15 284.389 204.112 3
3 0 15 398.581 144.214 5
-3 0 -15 167.888 128.388 6
3 1 15 405.499 212.502 3
-3 -1 -15 369.186 90.534 6
3 1 15 394.592 138.82 1
3 2 15 185.335 102.967 5
-3 -3 -15 -54.7459 161.546 2
-3 -4 -15 -163.704 171.663 2
-3 -5 -15 223.571 177.711 2
-3 -6 -15 -240.059 171.83 2
-3 -7 -15 -0.2051 136.388 2
-3 7 -14 161.435 170.875 6
-3 6 -14 253.083 179.657 6
3 -6 14 383.804 143.719 1
3 -6 14 431.403 245.629 3
3 -5 14 472.872 149.673 1
-3 5 -14 390.717 190.701 6
3 -5 14 220.898 205.218 3
3 -4 14 1220.85 339.397 3
3 -4 14 1144.26 182.38 1
-3 4 -14 1047.32 245.317 6
3 -3 14 333.768 228.48 3
3 -3 14 329.222 110.069 1
-3 3 -14 504.524 179.225 6
3 -2 14 498.074 236.017 3
3 -2 14 1041.43 192.221 5
3 -2 14 736.191 126.853 1
-3 2 -14 751.914 183.403 6
3 -1 14 1885.6 344.784 3
3 -1 14 1657.49 163.345 1
-3 1 -14 1962.39 233.991 6
3 -1 14 2514.26 263.552 5
3 0 14 187.922 107.421 5
-3 0 -14 61.266 99.5143 6
3 1 14 4028.03 460.541 3
3 1 14 3580.8 288.603 1
-3 -1 -14 2336.56 177.908 6
3 1 14 2646.92 193.755 1
3 1 14 3716.89 291.889 5
3 2 14 1345.33 171.24 5
3 2 14 1030.53 137.837 1
3 3 14 82.2329 57.6002 5
-3 -3 -14 -114.58 175.301 2
-3 -4 -14 303.059 180.773 2
-3 -5 -14 241.959 186.288 2
-3 -6 -14 -11.0409 138.446 2
-3 -7 -14 59.7712 152.59 2
3 -8 13 155.215 150.39 4
3 -7 13 75.3026 123.596 4
-3 7 -13 139.08 173.255 6
3 -7 13 303.492 230.118 3
-3 6 -13 883.199 255.172 6
3 -6 13 705.773 178.996 1
3 -6 13 772.994 289.868 3
-3 5 -13 1470.59 288.361 6
3 -5 13 1623.06 350.066 3
3 -5 13 1689.94 230.573 1
3 -4 13 278.444 196.903 3
3 -4 13 259.992 107.841 1
-3 4 -13 192.611 136.816 6
3 -3 13 1684.57 355.406 3
3 -3 13 1741.67 185.106 1
-3 3 -13 1871.05 274.364 6
3 -2 13 260.995 199.008 3
3 -2 13 842.173 175.095 5
3 -2 13 515.456 104.222 1
-3 2 -13 671.532 173.603 6
3 -1 13 478.89 209.402 3
3 -1 13 779.094 156.922 5
3 -1 13 320.622 78.057 1
-3 1 -13 708.832 159.645 6
3 0 13 1603.6 315.833 3
3 0 13 1256.85 139.629 1
-3 0 -13 1605.68 191.832 6
3 0 13 1799.03 200.981 5
3 1 13 246.785 114.485 1
3 1 13 455.682 217.254 3
3 1 13 587.783 127.801 5
-3 -1 -13 281.515 50.2767 4
-3 -1 -13 279.283 81.3843 6
3 1 13 283.682 75.8456 1
3 2 13 320.405 92.0238 5
3 2 13 315.658 92.8122 5
3 2 13 60.9267 64.197 1
3 3 13 325.56 110.98 1
3 3 13 130.367 57.3493 5
-3 -3 -13 248.652 176.752 2
-3 -4 -13 42.5986 153.286 2
-3 -5 -13 197.775 168.407 2
-3 -6 -13 289.745 185.391 2
-3 -7 -13 -159.395 156.349 2
-3 -8 -13 47.0776 166.645 2
3 -8 12 -86.9241 145.153 4
3 -7 12 389.787 168.872 4
-3 7 -12 701.711 236.387 6
3 -7 12 376.113 157.148 1
3 -7 12 395.301 252.157 3
3 -6 12 195.251 162.1 4
-3 6 -12 346.391 186.88 6
3 -6 12 106.804 115.552 1
3 -6 12 276.099 223.791 3
-3 5 -12 800.232 233.779 6
3 -5 12 715.739 163.576 1
3 -5 12 587.968 239.606 3
3 -4 12 150.7 91.3974 1
-3 4 -12 218.945 150.97 6
3 -4 12 92.0876 178.046 3
3 -3 12 1624.81 343.848 3
3 -3 12 1734.57 175.45 1
-3 3 -12 1724.92 258.893 6
3 -2 12 800.116 258.397 3
3 -2 12 937.435 171.954 5
3 -2 12 571.751 95.5097 1
-3 2 -12 728.208 175.645 6
3 -1 12 2232.74 151.238 1
-3 1 -12 2769.97 256.634 6
3 -1 12 2086.13 350.533 3
3 -1 12 3125.51 263.933 5
3 0 12 4569.28 214.115 1
-3 0 -12 5353.96 302.809 6
3 0 12 6272.31 544.484 3
3 0 12 6065.06 327.907 5
3 1 12 355.451 187.934 3
3 1 12 717.435 115.918 5
3 1 12 232.618 81.5543 1
-3 -1 -12 228.586 60.9909 4
-3 -1 -12 406.791 76.6326 6
3 1 12 320.504 65.4154 1
-3 -2 -12 383.388 192.505 2
3 2 12 839.707 110.872 5
3 2 12 698.982 101.713 5
3 2 12 744.705 110.086 1
3 3 12 1554.4 174.576 1
-3 -3 -12 1650.48 302.783 2
3 3 12 1155.47 93.6224 5
3 3 12 1258.16 114.657 5
3 4 12 30.3429 75.3294 1
-3 -4 -12 13.9171 146.568 2
-3 -5 -12 804.291 228.408 2
-3 -6 -12 -131.737 158.169 2
-3 -7 -12 22.7224 139.506 2
-3 -8 -12 0.22495 174.114 2
3 -9 11 0.25182 159.908 4
3 -8 11 4.04167 134.705 4
3 -8 11 323.059 163.959 1
3 -7 11 568.671 210.417 4
3 -7 11 769.123 197.262 1
3 -7 11 840.303 317.494 3
3 -6 11 -95.1224 155.132 4
3 -6 11 -8.49825 95.4185 1
3 -6 11 -22.9343 186.853 3
3 -5 11 1228.2 311.686 3
3 -5 11 1329.9 193.659 1
3 -4 11 1032.35 284.956 3
3 -4 11 1150.22 166.941 1
3 -3 11 170.882 176.322 3
3 -3 11 337.542 97.3255 1
3 -3 11 300.434 132.007 5
3 -2 11 4534.26 212.079 1
-3 2 -11 4696.66 352.38 6
3 -2 11 4324.38 484.277 3
3 -2 11 4436.12 330.882 5
3 -1 11 -17.0348 189.875 3
3 -1 11 605.423 134.541 5
3 -1 11 156.43 46.664 1
-3 1 -11 619.546 150.347 6
-3 0 -11 1295.67 155.369 6
3 0 11 1151.05 260.522 3
-3 0 -11 967.909 106.189 4
3 0 11 553.113 67.0839 1
3 0 11 626.117 61.2624 1
3 0 11 1147.88 143.205 5
3 1 11 158.29 167.851 3
3 1 11 231.762 76.3262 5
3 1 11 -52.0159 72.2247 1
-3 -1 -11 79.6258 54.9492 6
3 1 11 58.5707 47.9002 1
3 2 11 131.654 52.8149 5
3 2 11 271.659 82.2415 1
3 2 11 141.982 49.0101 5
3 3 11 93.399 23.7958 5
3 3 11 246.417 98.4007 1
3 3 11 137.129 28.8925 5
-3 -3 -11 170.904 161.813 2
3 4 11 148.336 90.623 1
-3 -4 -11 261.571 167.204 2
-3 -5 -11 508.184 204.504 2
-3 -6 -11 64.1373 150.477 2
-3 -7 -11 268.86 187.991 2
-3 -8 -11 751.923 260.337 2
3 -9 10 -0.53132 185.393 4
3 -8 10 62.157 151.441 4
3 -8 10 261.587 155.433 1
3 -8 10 4.4525 191.886 3
3 -7 10 308.955 183.317 4
3 -7 10 225.432 139.804 1
3 -7 10 217.731 231.525 3
3 -6 10 99.5786 139.809 4
3 -6 10 223.658 124.587 1
3 -6 10 75.2944 175.411 3
-3 5 -10 625.755 184.088 1
3 -5 10 542.119 144.59 1
3 -5 10 530.17 234.339 3
3 -4 10 989.584 148.637 1
3 -4 10 654.376 225.234 3
3 -3 10 437.216 148.482 5
3 -3 10 193.35 86.7533 1
3 -3 10 41.0591 165.21 3
3 -2 10 5417.88 518.273 3
3 -2 10 5944.44 372.72 5
3 -2 10 5191.31 207.228 1
3 -1 10 -150.458 175.119 3
3 -1 10 125.785 77.9294 5
-3 1 -10 152.58 106.034 6
3 0 10 1462.77 278.268 3
-3 0 -10 1254.24 130.913 4
-3 0 -10 1611.93 165.114 6
-3 0 -10 1880.07 330.198 3
3 0 10 1742.82 164.381 5
3 1 10 3710.39 159.62 1
-3 -1 -10 5426.99 511.414 3
-3 -1 -10 3007.87 160.995 6
3 1 10 3743.47 201.394 1
3 1 10 4571.38 438.822 3
-3 -1 -10 2865.27 145.424 6
3 1 10 4372.9 199.896 5
3 2 10 -21.1081 23.5339 5
3 2 10 6.22566 54.8861 1
3 2 10 41.6723 22.2394 5
3 3 10 3600.31 247.771 1
-3 -3 -10 4634.31 463.511 2
-3 -4 -10 644.36 211.21 2
3 4 10 575.192 132.093 1
3 5 10 189.31 119.247 1
-3 -5 -10 467.055 193.549 2
-3 -6 -10 114.761 152.544 2
-3 -7 -10 14.8323 136.285 2
-3 -8 -10 468.378 227.882 2
3 -9 9 328.183 246.846 4
3 -8 9 166.039 177.852 4
3 -8 9 151.182 136.336 1
3 -8 9 12.9646 219.604 3
3 -7 9 312.945 170.639 4
3 -7 9 382.076 151.913 1
3 -7 9 -73.6718 197.883 3
3 -6 9 1069.18 246.705 4
3 -6 9 1054.77 196.834 1
3 -6 9 1034.26 305.976 3
-3 5 -9 82.6283 136.469 1
3 -5 9 46.3759 89.1012 1
3 -5 9 33.3864 168.897 3
3 -4 9 2914.7 405.728 3
-3 4 -9 3290.77 297.012 1
3 -4 9 3400.34 252.017 1
3 -3 9 3062.4 392.305 3
3 -3 9 3050.2 194.749 1
3 -3 9 3269.68 300.865 5
3 -2 9 835.887 237.592 3
3 -2 9 856.954 154.479 5
-3 2 -9 658.729 211.884 3
3 -2 9 504.315 64.3828 1
-3 1 -9 2967.4 188.662 4
-3 1 -9 3470.21 391.198 3
3 -1 9 2406.15 341.986 3
3 -1 9 3158.57 235.203 5
3 0 9 451.732 184.61 3
3 0 9 585.888 104.701 5
-3 0 -9 270.27 84.6203 4
-3 0 -9 690.405 121.018 6
-3 0 -9 445.41 201.267 3
3 1 9 229.069 53.2321 5
3 1 9 335.014 171.916 3
3 1 9 158.733 37.6482 1
3 1 9 166.886 46.576 1
-3 -1 -9 164.154 49.8993 6
-3 -1 -9 221.01 53.7942 6
-3 -1 -9 375.236 170.366 3
3 2 9 496.382 89.0644 1
-3 -2 -9 209.079 158.32 2
3 3 9 950.822 145.018 1
-3 -3 -9 1386.37 285.019 2
3 4 9 61.4681 88.9456 1
-3 -4 -9 202.788 153.547 2
3 5 9 1048.58 188.55 1
-3 -5 -9 836.769 225.482 2
-3 -6 -9 160.214 165.141 2
-3 -7 -9 48.485 153.282 2
-3 -8 -9 553.953 234.453 2
3 -9 8 -3.22902 209.045 4
3 -8 8 11.091 180.184 4
3 -8 8 66.0525 213.095 3
-3 7 -8 127.832 160.285 5
3 -7 8 -109.184 171.639 4
3 -7 8 107.489 114.719 1
3 -7 8 -18.4661 180.696 3
-3 6 -8 738.172 229.178 5
3 -6 8 525.474 200.633 4
3 -6 8 837.25 180.699 1
3 -6 8 255.69 205.002 3
-3 5 -8 730.055 210.578 5
3 -5 8 801.956 250.128 4
3 -5 8 648.355 145.388 1
-3 5 -8 784.274 190.989 1
3 -5 8 351.061 215.473 3
-3 4 -8 1529.91 214.618 1
3 -4 8 1470.03 172.11 1
3 -4 8 1219.91 288.562 3
3 -3 8 2290.58 327.307 3
3 -3 8 1872.9 148.784 1
3 -3 8 2314.48 258.244 5
3 -2 8 514.633 191.653 3
-3 2 -8 270.047 168.715 3
3 -2 8 913.306 156.845 5
-3 1 -8 7321.69 312.135 4
-3 1 -8 8985.36 585.58 3
3 -1 8 7242.47 542.852 3
3 -1 8 7348.53 340.544 5
3 0 8 25.5301 135.928 3
3 0 8 237.384 70.7505 5
-3 0 -8 -53.0537 84.3055 4
-3 0 -8 172.142 160.493 3
3 1 8 2584.07 95.0917 1
-3 -1 -8 5573.59 477.81 3
-3 -1 -8 3204.85 136.892 6
3 1 8 2793.02 114.798 1
-3 -1 -8 3302.81 160.35 6
3 1 8 3667.2 139.234 5
3 1 8 4704.4 420.646 3
3 2 8 5000.69 228.127 1
-3 -2 -8 5443.26 481.266 2
-3 -3 -8 1502.55 288.869 3
3 3 8 1294.49 155.859 1
-3 -3 -8 1121.01 253.96 2
3 4 8 1636.24 200.299 1
-3 -4 -8 1549.59 274.67 2
3 5 8 922.777 187.717 1
-3 -5 -8 656.404 210.47 2
-3 -6 -8 13.6816 142.714 2
-3 -7 -8 193.036 163.664 2
-3 -8 -8 211.841 188.227 2
3 -9 7 -223.346 223.685 4
-3 8 -7 271.399 192.656 5
3 -8 7 60.091 184.185 4
3 -8 7 231.913 237.52 3
-3 7 -7 362.575 188.8 5
3 -7 7 118.653 171.398 4
3 -7 7 318.084 228.127 3
-3 6 -7 1088.62 253.593 5
3 -6 7 793.37 221.827 4
-3 6 -7 894.544 215.017 1
3 -6 7 919.907 185.608 1
3 -6 7 902.713 283.687 3
3 -5 7 3634.95 415.798 4
-3 5 -7 3638.99 334.295 1
3 -5 7 3335.81 437.726 3
3 -5 7 3108.72 270.386 1
-3 5 -7 4092.41 411.115 5
-3 4 -7 14.4141 115.229 5
3 -4 7 79.9333 79.7433 1
-3 4 -7 17.1453 90.7779 1
3 -4 7 -63.4894 151.608 3
-3 3 -7 6795.51 547.767 3
3 -3 7 6236.84 503.264 3
-3 3 -7 6541.92 316.881 1
3 -3 7 6485.79 405.077 5
-3 2 -7 796.805 216.57 3
3 -2 7 1290.02 178.776 5
3 -2 7 747.88 202.944 3
3 -1 7 134.607 141.657 3
3 -1 7 211.259 90.7009 5
-3 1 -7 6.09428 67.5215 4
-3 1 -7 399.601 163.845 3
-3 0 -7 4177.42 394.597 3
3 0 7 3828.37 374.304 3
3 0 7 3611.42 188.516 5
3 1 7 242.825 153.694 3
-3 -1 -7 125.134 45.5223 6
-3 -1 -7 145.42 63.3326 6
-3 -1 -7 105.5 155.75 3
-3 -2 -7 604.021 209.4 3
-3 -2 -7 547.773 208.289 2
3 2 7 487.135 89.9416 1
-3 -3 -7 1144.8 256.157 3
3 3 7 1095.42 154.226 1
-3 -3 -7 1008.91 239.961 2
-3 -4 -7 528.767 194.097 2
-3 -4 -7 501.687 184.191 3
3 4 7 411.712 124.84 1
3 5 7 255.295 135.264 1
-3 -5 -7 -121.043 148.452 2
-3 -6 -7 594.688 207.223 2
-3 -7 -7 414.2 194.37 2
-3 -8 -7 424.952 226.486 2
3 -9 6 -20.7805 191.259 4
-3 8 -6 99.9808 161.223 5
3 -8 6 503.771 265.523 3
-3 7 -6 723.705 237.397 5
3 -7 6 422.133 206.294 4
3 -7 6 1153.54 323.911 3
-3 6 -6 211.217 145.112 1
-3 6 -6 318.449 178.796 5
3 -6 6 191.545 163.224 4
3 -6 6 341.763 214.702 3
3 -5 6 1655.45 296.924 4
-3 5 -6 1942.48 258.484 1
3 -5 6 1331.23 296.802 3
-3 5 -6 2118.86 304.257 5
3 -4 6 200.433 125.885 5
-3 4 -6 125.186 127.869 5
-3 4 -6 108.149 106.013 1
3 -4 6 -138.535 167.992 3
-3 3 -6 3492.7 393.036 3
-3 3 -6 3722.18 244.699 1
3 -3 6 3238.43 373.075 3
3 -3 6 3882.29 316.598 5
-3 3 -6 4329.43 343.753 5
3 -2 6 489.518 121.319 5
-3 2 -6 281.356 112.147 5
-3 2 -6 474.328 103.571 4
-3 2 -6 288.288 150.573 3
3 -2 6 205.322 135.915 3
3 -1 6 976.226 215.345 3
-3 1 -6 1351.9 164.455 4
-3 1 -6 1081.37 214.808 3
3 -1 6 1521.25 157.689 5
-3 0 -6 10986 586.611 3
3 0 6 10382.2 576.756 3
3 0 6 8967.42 281.467 5
3 1 6 32.383 109.317 3
-3 -1 -6 19.1709 48.3724 6
-3 -1 -6 -98.5831 146.441 3
-3 -2 -6 11135.2 648.67 2
-3 -2 -6 11795.5 663.869 3
3 3 6 3731.45 249.307 1
-3 -3 -6 3749.55 385.046 2
-3 -3 -6 4620 431.017 3
-3 -4 -6 344.845 165.37 3
-3 -4 -6 300.628 165.068 2
3 4 6 163.837 97.2456 1
3 5 6 1980.16 245.924 1
-3 -5 -6 2171.33 304.795 2
-3 -6 -6 337.911 186.928 2
-3 -7 -6 371.87 200.232 2
-3 -8 -6 95.5969 178.494 2
3 -9 5 48.2762 244.13 4
3 -9 5 -24.7034 201.02 3
-3 8 -5 78.7838 157.381 5
3 -8 5 47.57 182.595 4
3 -8 5 324.872 259.232 3
-3 7 -5 1390.19 291.104 5
3 -7 5 945.153 251.9 4
3 -7 5 1770.51 379.32 3
-3 6 -5 371.163 161.454 1
-3 6 -5 194.2 147.63 5
3 -6 5 65.2984 142.766 4
3 -6 5 176.867 190.332 3
-3 5 -5 2206.47 266.561 1
3 -5 5 1551.79 284.738 4
3 -5 5 2114.43 343.428 3
-3 5 -5 2520.33 322.392 5
-3 4 -5 1658.57 204.703 1
3 -4 5 1075.52 249.703 3
3 -4 5 1681.74 238.922 5
-3 4 -5 1812.35 261.341 5
3 -3 5 211.789 111.058 5
-3 3 -5 195.888 125.12 5
-3 3 -5 137.475 88.8395 1
-3 3 -5 -101.373 153.153 3
3 -3 5 87.8191 135.324 3
-3 2 -5 5747.56 305.601 4
-3 2 -5 5535.73 441.159 3
3 -2 5 5224.73 405.804 3
3 -2 5 5585.69 327.267 5
-3 2 -5 5945.38 351.755 5
-3 1 -5 3846.24 262.299 4
-3 1 -5 4255.7 362.171 3
3 -1 5 3812.65 350.406 3
3 -1 5 4068.3 242.011 5
-3 0 -5 2495.14 280.983 3
3 0 5 2330.41 280.072 3
-3 0 -5 2178.71 194.825 6
3 0 5 1937.57 136.878 5
-3 -1 -5 1591.87 245.058 3
3 1 5 1272.5 208.218 3
-3 -2 -5 627.012 221.17 3
3 2 5 416.441 92.8668 1
-3 -2 -5 883.111 228.978 2
-3 -3 -5 323.173 159.432 3
-3 -3 -5 79.657 152.581 2
3 3 5 5.00525 70.4004 1
-3 -4 -5 182.811 134.811 3
-3 -4 -5 223.722 144.401 2
3 4 5 127.376 97.4915 1
3 5 5 1444.09 214.863 1
-3 -5 -5 1567.28 276.67 2
-3 -5 -5 1604.54 264.755 3
-3 -6 -5 173.13 158.702 2
-3 -7 -5 728.678 223.688 2
-3 9 -4 196.851 189.022 5
3 -9 4 235.84 241.127 4
3 -9 4 427.205 265.781 3
-3 8 -4 57.719 155.508 5
3 -8 4 42.4758 189.525 4
3 -8 4 324.421 232.106 3
-3 7 -4 412.941 193.121 5
3 -7 4 414.39 201.467 4
3 -7 4 732.521 282.496 3
-3 6 -4 618.577 202.188 5
3 -6 4 151.138 150.344 4
3 -6 4 471.317 219.416 3
-3 6 -4 322.409 147.155 1
-3 5 -4 342.267 168.893 5
3 -5 4 90.1863 149.763 4
-3 5 -4 235.785 125.639 1
3 -5 4 394.286 203.375 3
3 -4 4 1084.69 201.953 5
-3 4 -4 1147.35 218.84 5
-3 4 -4 1207.52 182.139 1
-3 4 -4 642.964 216.831 3
3 -4 4 860.252 227.076 3
-3 3 -4 125.966 92.5081 1
3 -3 4 270.935 122.264 5
-3 3 -4 339.74 142.785 5
-3 3 -4 101.385 136.986 3
3 -3 4 138.211 146.021 3
-3 2 -4 5492.58 314.199 4
-3 2 -4 4961.04 407.774 3
3 -2 4 4822.77 384.426 3
3 -2 4 5248.78 318.512 5
-3 2 -4 5521.61 336.633 5
-3 1 -4 1561.75 177.301 4
-3 1 -4 1700.47 232.838 3
3 -1 4 1780.69 239.379 3
3 -1 4 1438.38 152.647 5
-3 1 -4 1360.11 151.676 5
3 0 4 12880.8 589.881 3
-3 0 -4 14165.9 580.96 3
-3 0 -4 12924.9 466.482 6
3 0 4 12505.1 325.984 5
-3 -1 -4 14715.2 600.969 3
3 1 4 13403.3 534.594 3
-3 -2 -4 278.702 158.284 3
3 2 4 207.78 66.5869 1
-3 -2 -4 133.891 133.91 2
-3 -3 -4 4585.6 395.07 2
3 3 4 4340.26 271.035 1
-3 -3 -4 5369.65 410.418 3
-3 -4 -4 4268.12 362.606 3
3 4 4 4267.68 310.373 1
-3 -4 -4 4791.5 404.888 2
-3 -5 -4 707.538 180.526 3
-3 -5 -4 621.485 188.881 2
3 5 4 565.136 154.454 1
3 6 4 311.408 59.6649 6
-3 -6 -4 1025.82 235.374 2
-3 -7 -4 417.768 198.121 2
-3 -9 -4 -284.503 229.646 3
-3 9 -3 208.81 186.52 5
3 -9 3 47.3721 245.237 4
3 -9 3 118.818 231.663 3
-3 8 -3 383.246 193.122 5
3 -8 3 449.985 235.627 4
3 -8 3 518.806 268.717 3
-3 7 -3 367.851 189.082 5
3 -7 3 93.7303 152.826 4
3 -7 3 157.827 200.524 3
-3 6 -3 1008.52 233.609 5
3 -6 3 683.844 214.903 4
-3 6 -3 921.665 201.036 1
3 -6 3 1285.73 305.083 3
-3 5 -3 675.422 192.668 5
3 -5 3 515.84 182.43 4
-3 5 -3 786.074 175.387 1
3 -5 3 1194.24 273.732 3
-3 4 -3 4525.02 312.089 1
-3 4 -3 3992.92 422.03 3
3 -4 3 3806.66 392.636 3
3 -4 3 4152.68 356.567 5
-3 4 -3 4812.02 376.211 5
-3 3 -3 5916.61 292.42 1
-3 3 -3 5865.44 449.116 3
3 -3 3 5077.04 413.781 3
3 -3 3 5972.19 387.131 5
-3 3 -3 6233.37 385.804 5
3 -2 3 806.558 145.056 5
-3 2 -3 907.266 152.291 4
-3 2 -3 404.243 150.587 3
3 -2 3 641.838 161.954 3
-3 2 -3 963.304 159.788 5
-3 2 -3 504.186 73.2151 1
-3 1 -3 9886.59 424.066 4
-3 1 -3 11314.9 532.357 3
3 -1 3 10514.2 505.09 3
3 -1 3 11027.6 398.9 5
-3 1 -3 11245.7 402.273 5
3 0 3 352.685 138.734 3
-3 0 -3 1022.58 186.108 3
-3 0 -3 1235.51 185.841 6
3 0 3 1011.88 116.182 5
-3 0 -3 1202.85 121.398 5
3 1 3 386.798 120.88 3
-3 -1 -3 237.773 100.367 6
-3 -1 -3 333.196 118.02 3
-3 -2 -3 336.762 141.475 3
-3 -2 -3 215.312 51.1912 6
-3 -2 -3 416.222 153.791 2
3 2 3 374.335 86.6222 1
3 3 3 766.693 142.259 1
-3 -3 -3 1236.96 216.731 3
-3 -3 -3 919.49 209.903 2
-3 -3 -3 733.983 139.413 1
3 4 3 765.08 165.772 1
3 4 3 405.801 52.9495 6
-3 -4 -3 1156.29 213.576 3
-3 -4 -3 978.109 177.502 1
3 5 3 1569.4 230.797 1
3 5 3 815.757 90.3316 6
-3 -5 -3 1431.24 253.209 2
-3 -5 -3 1263.09 213.76 3
-3 -5 -3 941.49 95.2262 5
-3 -5 -3 1777.79 247.847 1
-3 -6 -3 663.713 196.889 1
3 6 3 347.005 82.9176 6
-3 -6 -3 597.153 198.034 2
-3 -7 -3 146.322 155.535 1
-3 -7 -3 306.654 174.068 2
-3 -9 -3 214.298 200.463 3
-3 -10 -3 -272.819 224.177 3
-3 9 -2 47.1028 156.853 5
3 -9 2 40.7455 219.051 4
3 -9 2 149.132 209.245 3
-3 8 -2 488.946 208.187 5
3 -8 2 271.36 233.998 4
3 -8 2 294.192 227.464 3
-3 7 -2 263.804 169.173 5
3 -7 2 75.8095 154.588 4
3 -7 2 115.918 187.452 3
-3 6 -2 831.098 216.925 5
3 -6 2 489.06 188.109 4
-3 6 -2 666.394 186.526 1
3 -6 2 538.709 233.241 3
-3 5 -2 1099.13 222.565 5
3 -5 2 875.546 220.277 4
-3 5 -2 762.214 171.131 1
3 -5 2 1021.52 260.809 3
3 -4 2 1137.94 208.989 5
-3 4 -2 871.203 156.16 1
-3 4 -2 817.11 222.597 3
3 -4 2 1188.7 240.426 3
-3 4 -2 1392.73 227.301 5
-3 3 -2 1956.27 179.513 1
-3 3 -2 2772.68 243.791 4
-3 3 -2 1697.54 257.361 3
3 -3 2 1787.71 257.028 3
3 -3 2 2106.64 250.346 5
-3 3 -2 2482.26 255.712 5
-3 2 -2 1826.98 130.231 1
-3 2 -2 2641.48 246.245 4
-3 2 -2 1844.65 244.627 3
3 -2 2 1946.16 243.581 3
3 -2 2 2774.71 249.608 5
-3 2 -2 2717.46 241.469 5
-3 1 -2 15354.9 588.488 6
-3 1 -2 14594.4 535.565 4
-3 1 -2 14810.3 583.065 3
3 -1 2 15390.6 572.116 3
3 -1 2 15597 476.102 5
-3 1 -2 15569.7 461.763 5
3 0 2 505.806 77.342 5
3 0 2 523.592 130.365 3
-3 0 -2 417.941 68.1531 5
-3 0 -2 694.649 131.899 6
-3 0 -2 637.234 132.224 3
-3 -1 -2 5146.2 311.744 3
-3 -1 -2 4855.81 278.807 6
3 1 2 4588.32 262.971 3
-3 -1 -2 3487.38 130.473 1
3 2 2 14386.5 430.229 1
-3 -2 -2 12442.1 554.813 3
-3 -2 -2 12849.9 366.18 6
-3 -2 -2 14110.5 392.137 1
-3 -3 -2 131.741 117.17 3
3 3 2 48.0233 78.6197 1
-3 -3 -2 155.119 132.952 2
-3 -3 -2 32.0699 81.5308 1
-3 -4 -2 8507.94 513.286 2
3 4 2 8347.78 440.579 1
-3 -4 -2 8230.22 449.628 3
3 4 2 6314.01 258.571 6
-3 -4 -2 8635.66 445.541 1
-3 -5 -2 1128.86 196.973 3
3 5 2 1377.1 224.133 1
3 5 2 950.796 116.196 6
-3 -5 -2 1123.9 229.492 2
-3 -5 -2 1216.75 214.032 1
-3 -5 -2 791.866 100.656 5
-3 -6 -2 -259.904 96.1788 5
-3 -6 -2 252.704 148.631 3
3 6 2 136.31 83.9939 6
-3 -6 -2 -71.6747 133.235 1
-3 -6 -2 169.553 146.762 2
3 7 2 299.667 128.711 6
-3 -7 -2 428.188 192.181 1
-3 -7 -2 847.565 227.158 2
-3 -8 -2 310.876 215.537 3
-3 -8 -2 311.183 186.209 1
-3 -9 -2 34.9789 192.17 3
-3 -10 -2 341.096 254.474 3
-3 9 -1 219.712 177.702 5
3 -9 1 -7.23458 213.46 4
3 -9 1 -44.9113 195.426 3
-3 8 -1 164.213 163.546 5
3 -8 1 326.576 222.326 4
3 -8 1 286.975 266.816 3
-3 7 -1 253.277 158.814 5
3 -7 1 149.855 170.755 4
3 -7 1 226.573 211.217 3
-3 6 -1 820.417 210.919 5
3 -6 1 466.176 185.021 4
-3 6 -1 453.094 150.552 1
3 -6 1 781.365 257.12 3
-3 5 -1 2322.45 254.69 1
3 -5 1 2403.42 315.883 4
3 -5 1 2595.16 364.042 3
-3 5 -1 2739.96 310.861 5
3 -4 1 85.5722 105.579 5
-3 4 -1 138.552 123.476 5
-3 4 -1 65.8931 88.2752 1
3 -4 1 33.1179 126.03 3
-3 3 -1 8596.44 350.824 1
-3 3 -1 9144.98 433.542 4
-3 3 -1 8991.86 528.169 3
3 -3 1 9101.21 515.725 3
3 -3 1 9188.33 485.482 5
-3 3 -1 9491.2 476.88 5
-3 2 -1 6675.6 247.176 1
-3 2 -1 7544.16 407.537 4
-3 2 -1 7021.7 424.83 3
3 -2 1 7276.48 423.798 3
3 -2 1 7245.26 387.499 5
-3 2 -1 7733.89 390.862 5
3 -1 1 137.185 86.33 5
-3 1 -1 143.499 91.1591 5
-3 1 -1 141.54 45.6767 1
-3 1 -1 32.4389 109.585 3
-3 1 -1 180.318 122.37 6
-3 1 -1 116.902 35.6584 1
3 -1 1 109.1 93.9046 3
-3 0 -1 2862.73 243.874 6
-3 0 -1 2630.64 216.303 3
3 0 1 2411.45 215.06 3
-3 0 -1 2485.52 160.913 5
-3 -1 -1 1033.05 98.5556 1
-3 -1 -1 982.183 142.795 3
-3 -1 -1 894.064 150.305 6
-3 -1 -1 642.731 56.8005 5
-3 -2 -1 3090.56 205.323 1
3 2 1 2688.26 201.165 1
-3 -2 -1 2526.89 246.367 3
-3 -2 -1 2687.79 206.209 6
-3 -3 -1 323.255 132.215 3
-3 -3 -1 651.07 180.231 2
3 3 1 320.732 121.199 1
-3 -3 -1 293.313 86.0911 6
3 3 1 199.195 85.5682 6
-3 -3 -1 348.116 123.882 1
-3 -4 -1 1652.49 264.18 2
3 4 1 1629.42 224.481 1
3 4 1 1176.19 137.21 6
-3 -4 -1 1389.29 197.725 3
-3 -4 -1 757.012 73.6032 5
-3 -4 -1 1339.38 207.135 1
-3 -5 -1 68.0921 62.7868 5
3 5 1 18.0243 112.553 1
-3 -5 -1 -27.9431 90.9035 3
3 5 1 60.7107 78.8169 6
-3 -5 -1 188.788 154.55 2
-3 -5 -1 38.0694 114.416 1
-3 -6 -1 225.414 105.44 5
3 6 1 310.741 121.972 6
-3 -6 -1 497.604 179.972 2
-3 -6 -1 195.743 147.761 1
-3 -7 -1 521.676 215.087 3
3 7 1 640.273 195.03 6
-3 -7 -1 713.642 220.514 1
-3 -7 -1 985.871 251.386 2
-3 -8 -1 12.0005 154.654 3
-3 -8 -1 337.768 197.987 1
-3 -9 -1 481.417 244.787 3
-3 -9 -1 689.607 255.875 1
-3 -10 -1 181.625 205.796 3
-3 9 0 -5.38976 132.215 5
3 -9 0 -24.1476 204.421 4
3 -9 0 296.973 261.472 3
-3 8 0 151.736 154.023 5
3 -8 0 -36.2021 182.442 4
3 -8 0 126.977 224.615 3
-3 7 0 515.929 188.05 5
3 -7 0 67.3013 149.269 4
3 -7 0 183.173 186.714 3
-3 6 0 135.742 132.379 5
3 -6 0 193.649 156.45 4
3 -6 0 40.0149 167.48 3
-3 5 0 1093.75 191.12 1
3 -5 0 1408.34 260.876 4
3 -5 0 1290.88 287.688 3
-3 5 0 1464.31 259.684 5
3 -4 0 627.346 192.499 5
-3 4 0 480.696 138.119 1
-3 4 0 745.489 197.416 5
3 -4 0 678.93 221.121 3
-3 3 0 3587.37 237.367 1
-3 3 0 4189.49 313.227 4
3 -3 0 3947.42 350.89 3
3 -3 0 4136.91 337.696 5
-3 3 0 4114.93 334.327 5
-3 2 0 2717.86 259.654 4
-3 2 0 1688.07 213.915 3
3 -2 0 1909.58 220.705 3
-3 2 0 2439.41 286.725 6
3 -2 0 2449.74 234.361 5
-3 2 0 2418.16 230.505 5
-3 2 0 2059.99 150.601 1
-3 1 0 1365.05 173.627 3
3 -1 0 1550.05 172.059 3
-3 1 0 1853.63 238.533 6
3 -1 0 1614.25 173.974 5
-3 1 0 1898.72 186.13 5
-3 0 0 12471.2 310.169 1
-3 0 0 14504.4 445.258 3
3 0 0 13302.6 446.017 3
-3 0 0 15980.6 589.378 6
-3 0 0 14537.2 394.125 5
-3 -1 0 2717.38 169.224 1
-3 -1 0 2524.11 174.793 3
-3 -1 0 2302.75 213.826 6
-3 -1 0 2125.49 119.111 5
-3 -2 0 13766.4 438.567 1
-3 -2 0 13640.6 479.337 3
-3 -2 0 13843.6 499.718 6
3 2 0 13678.5 459.679 1
3 2 0 14275.8 488.435 6
-3 -3 0 10910.6 454.007 1
-3 -3 0 10668.9 539.014 2
3 3 0 10937.2 463.545 1
-3 -3 0 9677.55 351.993 6
-3 -3 0 10966.7 446.286 3
3 3 0 10604.2 405.703 6
-3 -4 0 123.695 117.719 1
-3 -4 0 36.0277 46.9523 5
-3 -4 0 -9.89521 78.7677 3
3 4 0 21.5593 92.1277 1
-3 -4 0 -58.6377 124.875 2
3 4 0 53.8139 76.135 6
-3 -5 0 1996.35 276.904 2
3 5 0 2178.6 273.216 1
3 5 0 2284.09 223.006 6
-3 -5 0 2008.16 176.219 5
-3 -5 0 2262.06 282.467 1
-3 -6 0 2137.39 289.049 2
3 6 0 2497.53 289.553 6
-3 -6 0 1961.52 203.97 5
-3 -6 0 2356.2 311.734 1
3 7 0 668.704 221.697 6
-3 -7 0 417.335 195.786 3
-3 -7 0 429.628 192.496 1
-3 -7 0 1135.95 255.914 2
-3 -8 0 160.007 184.434 3
-3 -8 0 -23.2541 156.996 1
-3 -9 0 177.144 199.001 3
-3 -9 0 126.626 193.789 1
-3 -10 0 14.9609 169.66 3
-3 9 1 241.04 184.045 5
3 -9 -1 4.34236 215.245 4
3 -9 -1 -83.4024 193.679 3
-3 8 1 190.007 165.129 5
3 -8 -1 6.39582 174.821 4
3 -8 -1 126.425 215.965 3
-3 7 1 273.06 173.087 5
3 -7 -1 264.42 180.531 4
3 -7 -1 270.421 219.556 3
-3 6 1 613.025 197.395 5
3 -6 -1 402.131 166.754 4
3 -6 -1 344.987 213.078 3
-3 5 1 2215.52 253.811 1
3 -5 -1 2263.27 343.989 3
-3 5 1 2874.76 336.721 5
-3 4 1 6456.22 366.44 1
3 -4 -1 6658.66 490.597 3
3 -4 -1 6788.86 465.041 5
-3 4 1 6864.3 458.392 5
3 -3 -1 265.062 127.155 5
-3 3 1 159.473 120.736 5
-3 3 1 468.611 139.088 4
3 -3 -1 212.388 121.285 3
-3 3 1 321.748 98.9342 1
-3 2 1 5686.54 378.806 4
3 -2 -1 5728.13 349.002 3
-3 2 1 5482.17 428.088 6
3 -2 -1 5278.53 348.235 5
-3 2 1 5119.99 246.521 1
-3 2 1 5699.98 346.877 5
-3 1 1 4933.86 288.934 3
3 -1 -1 5279.17 280.336 3
-3 1 1 5445.86 391.796 6
3 -1 -1 5154.86 304.173 5
-3 1 1 4906.31 283.464 5
3 0 -1 721.352 102.115 3
-3 0 1 567.213 96.0767 5
-3 0 1 817.033 107.68 3
-3 0 1 527.511 93.065 1
-3 0 1 586.314 123.777 6
-3 -1 1 8026.81 317.427 1
-3 -1 1 6804.57 237.36 3
-3 -1 1 7710.95 400.04 6
-3 -1 1 7870.01 268.819 5
-3 -2 1 268.462 70.8939 5
-3 -2 1 343.542 128.226 1
-3 -2 1 475.179 125.091 3
-3 -2 1 286.502 145.88 6
3 2 -1 390.166 128.672 1
3 2 -1 396.491 144.315 6
-3 -3 1 264.324 106.13 3
-3 -3 1 224.049 54.6752 5
3 3 -1 299.133 124.648 1
-3 -3 1 155.024 111.272 1
-3 -3 1 283.249 100.712 6
3 3 -1 471.147 120.883 6
-3 -4 1 58.4382 62.6897 5
-3 -4 1 214.383 127.055 1
-3 -4 1 299.714 108.445 3
3 4 -1 288.443 137.151 1
-3 -4 1 48.3862 124.666 2
3 4 -1 235.42 105.245 6
-3 -5 1 1637.38 253.757 1
-3 -5 1 1701.29 266.882 2
3 5 -1 1682.15 248.162 1
3 5 -1 1763.31 230.487 6
-3 -5 1 1545.57 168.23 5
-3 -6 1 281.675 112.648 5
-3 -6 1 43.4214 148.007 3
3 6 -1 221.918 170.366 6
-3 -6 1 580.277 191.414 2
-3 -6 1 148.539 159.055 1
-3 -7 1 1426.45 290.203 3
3 7 -1 1575.59 326.885 6
-3 -7 1 1686.8 295.242 1
-3 -8 1 564.079 228.101 3
3 8 -1 534.842 242.653 6
-3 -8 1 301.176 188.557 1
-3 -9 1 -75.5599 165.022 3
-3 -9 1 74.9528 171.889 1
-3 -10 1 199.468 195.039 3
-3 9 2 335.298 189.994 5
3 -9 -2 -31.7126 185.187 4
3 -9 -2 -54.1312 201.136 3
-3 8 2 339.179 177.512 5
3 -8 -2 301.136 205.035 4
3 -8 -2 100.254 212.616 3
-3 7 2 320.088 177.812 5
3 -7 -2 319.355 184.403 4
3 -7 -2 205.81 207.39 3
-3 6 2 1230.09 269.055 5
3 -6 -2 979.99 223.037 4
3 -6 -2 1459.77 331.003 3
-3 5 2 421.508 147.598 1
-3 5 2 307.459 169.464 5
3 -5 -2 224.843 181.732 3
3 -4 -2 1195.94 245.897 3
3 -4 -2 1217.81 225.986 5
-3 4 2 1464.07 238.083 5
-3 4 2 1433.65 194.602 1
3 -3 -2 -92.7756 109.801 5
-3 3 2 272.348 142.224 5
-3 3 2 351.015 146.727 4
3 -3 -2 293.193 154.464 3
-3 3 2 83.272 90.0385 1
-3 3 2 86.3813 167.349 6
-3 2 2 6690 422.481 4
3 -2 -2 7086.79 376.274 3
-3 2 2 6614.19 474.649 6
3 -2 -2 6276.45 390.694 5
-3 2 2 6516.91 381.997 5
3 -1 -2 4525.69 244.69 3
-3 1 2 4784.61 374.38 6
3 -1 -2 4244.54 276.51 5
-3 1 2 4187.3 272.552 5
-3 0 2 3489.52 230.234 1
3 0 -2 2999.97 151.446 3
-3 0 2 3758.01 307.331 6
-3 0 2 3770.19 246.934 5
-3 -1 2 22696.9 753.028 2
-3 -1 2 21710.1 573.094 1
-3 -1 2 22447.4 708.915 6
3 1 -2 24168.5 726.667 6
-3 -1 2 22678.9 502.076 5
-3 -2 2 340.423 68.6005 5
-3 -2 2 480.492 126.691 1
-3 -2 2 394.743 129.688 6
3 2 -2 249.391 100.338 6
-3 -2 2 371.426 72.3198 3
-3 -3 2 8407.85 429.823 1
-3 -3 2 8552.44 485.017 2
-3 -3 2 7617.47 377.407 6
3 3 -2 8564.34 449.89 1
-3 -3 2 7942.01 323.755 3
3 3 -2 8388.29 409.419 6
-3 -3 2 7786.36 280.456 5
-3 -4 2 6704.04 426.155 1
-3 -4 2 5278.49 404.63 2
-3 -4 2 6243.13 365.935 3
3 4 -2 6761.72 434.63 1
3 4 -2 6908.09 408.554 6
-3 -4 2 5685.65 265.222 5
-3 -5 2 271.759 145.442 1
-3 -5 2 114.243 84.5968 5
3 5 -2 92.2532 131.728 1
-3 -5 2 44.6374 119.377 3
3 5 -2 326.524 147.53 6
-3 -5 2 249.99 155.056 2
-3 -6 2 1809.54 290.823 1
-3 -6 2 1865.77 284.116 2
3 6 -2 1876.84 312.034 6
-3 -6 2 1401.55 265.872 3
-3 -6 2 1273.61 188.19 5
-3 -7 2 470.909 203.698 3
3 7 -2 -20.3096 176.26 6
-3 -7 2 402.526 190.522 1
-3 -8 2 150.374 169.728 3
3 8 -2 -37.2884 191.517 6
-3 -8 2 158.529 174.999 1
-3 -9 2 65.2647 195.016 3
-3 -9 2 72.4536 179.568 1
-3 -10 2 -319.823 253.159 3
-3 9 3 53.0078 158.051 5
3 -9 -3 -290.82 220.562 4
3 -9 -3 18.9121 190.217 3
-3 8 3 261.021 170.621 5
3 -8 -3 346.401 215.029 4
3 -8 -3 273.219 225.468 3
-3 7 3 187.795 180.916 5
3 -7 -3 333.268 184.152 4
3 -7 -3 507.28 248.735 3
3 -6 -3 1821.2 288.422 4
3 -6 -3 2684.53 400.72 3
-3 6 3 2500.96 349.564 5
-3 5 3 459.432 144.683 1
-3 5 3 518.025 186.541 5
3 -5 -3 582.477 208.876 3
3 -4 -3 2049.21 289.559 3
3 -4 -3 1795.44 265.45 5
-3 4 3 1745.91 260.8 5
-3 4 3 1818.52 216.706 1
-3 3 3 7592.31 448.102 4
3 -3 -3 8117.18 467.236 3
-3 3 3 7460.55 548.752 6
3 -3 -3 7332.35 465.825 5
-3 3 3 7012 356.991 1
-3 3 3 7858.51 463.209 5
3 -2 -3 7.1754 102.976 5
-3 2 3 -173.469 132.363 5
3 -2 -3 99.7291 97.1966 3
-3 2 3 -84.8768 144.872 6
3 -1 -3 10945.9 358.514 3
-3 1 3 11867.7 591.882 6
-3 1 3 11350.7 481.356 5
-3 0 3 6615.8 428.587 2
-3 0 3 4991.53 291.179 1
-3 0 3 5747.13 382.419 6
-3 0 3 5939.57 312.691 5
-3 -1 3 723.717 115.526 5
-3 -1 3 806.715 145.489 1
-3 -1 3 801.444 170.497 2
-3 -1 3 957.754 188.238 6
3 1 -3 911.621 177.685 6
-3 -2 3 922.817 182.816 2
-3 -2 3 622.931 175.459 6
3 2 -3 813.664 172.38 6
-3 -2 3 684.882 148.623 1
3 3 -3 706.852 173.239 1
-3 -3 3 306.471 89.4319 3
-3 -3 3 414.699 100.808 5
-3 -3 3 684.443 182.255 1
-3 -3 3 201.168 90.221 3
-3 -3 3 466.472 145.068 6
-3 -3 3 489.193 168.061 2
3 3 -3 664.505 160.743 6
3 4 -3 280.424 143.388 1
-3 -4 3 117.055 80.5305 5
-3 -4 3 159.188 135.276 1
-3 -4 3 -83.5746 108.786 3
3 4 -3 315.876 147.817 6
-3 -4 3 83.3978 148.841 2
-3 -4 3 273.574 121.179 6
-3 -5 3 382.315 112.786 5
-3 -5 3 580.398 195.439 1
-3 -5 3 430.134 155.467 3
-3 -5 3 638.214 192.152 2
3 5 -3 407.782 181.513 6
3 5 -3 385.886 155.797 1
-3 -6 3 3526.36 389.445 1
-3 -6 3 2931.96 338.881 3
-3 -6 3 3146.66 359.209 2
3 6 -3 3523.04 441.146 6
-3 -6 3 2900.88 272.999 5
-3 -7 3 189.275 170.188 1
-3 -7 3 83.2873 151.239 3
3 7 -3 -166.468 234.198 6
3 8 -3 330.54 256.541 6
-3 -8 3 548.411 216.131 3
-3 -8 3 624.28 247.666 1
-3 -9 3 247.555 215.887 3
-3 -9 3 400.29 223.37 1
-3 -10 3 -32.9828 194.843 3
-3 9 4 231.166 186.994 5
3 -9 -4 86.6861 219.029 3
-3 8 4 584.955 229.497 5
3 -8 -4 371.559 208.163 4
3 -8 -4 306.469 242.814 3
-3 7 4 80.6172 143.428 5
3 -7 -4 86.7772 137.594 4
-3 6 4 143.145 152.67 5
3 -6 -4 -19.2735 141.59 4
-3 5 4 623.276 206.267 5
3 -5 -4 961.302 250.634 3
-3 5 4 458.766 149.458 1
-3 4 4 596.131 186.192 5
3 -4 -4 615.65 194.223 3
-3 4 4 480.926 138.729 1
-3 3 4 4143.56 348.807 4
3 -3 -4 4617.16 363.607 3
-3 3 4 3695.78 406.268 6
3 -3 -4 3288.42 324.467 5
-3 3 4 3251.18 316.38 5
3 -2 -4 165.037 125.043 5
-3 2 4 177.035 136.495 5
3 -2 -4 326.873 131.544 3
-3 2 4 178.716 164.06 6
3 -1 -4 8056.17 294.147 3
-3 1 4 9422.46 552.53 6
-3 1 4 8910.21 442.044 5
-3 0 4 2637.9 263.979 2
-3 0 4 2327.12 220.053 1
-3 0 4 2235.66 244.112 6
3 0 -4 2616.36 281.789 6
-3 0 4 2601.51 218.357 5
-3 -1 4 9044.79 469.058 2
-3 -1 4 8447.86 404.257 1
-3 -1 4 8893.96 498.25 6
3 1 -4 8884.68 484.828 6
-3 -1 4 8299.36 356.444 5
-3 -2 4 11435.3 535.821 2
-3 -2 4 11118.6 500.111 1
-3 -2 4 10330.3 576.491 6
3 2 -4 11768.9 547.436 6
-3 -3 4 376.724 67.6913 3
3 3 -4 717.926 176.619 2
-3 -3 4 543.742 145.713 6
-3 -3 4 446.363 152.05 1
-3 -3 4 511.832 156.509 2
-3 -3 4 393.798 86.1656 3
3 3 -4 655.886 156.05 6
3 3 -4 487.324 142.602 1
-3 -4 4 8101.98 498.728 1
-3 -4 4 7385.42 475.543 2
-3 -4 4 7850.2 396.428 3
-3 -4 4 6869.75 405.388 6
3 4 -4 8012.73 510.273 1
3 4 -4 7931.05 497.367 6
-3 -4 4 7551.61 358.51 5
-3 -5 4 6312.18 472.826 1
-3 -5 4 5104.89 416.621 2
-3 -5 4 5878.49 409.21 3
3 5 -4 6267.69 508.713 6
-3 -5 4 5465.87 328.678 5
-3 -6 4 220.373 128.351 5
-3 -6 4 465.582 202.306 1
-3 -6 4 301.354 178.267 3
3 6 -4 175.844 187.369 6
-3 -7 4 1343.44 287.636 1
3 7 -4 1180.52 352.456 6
-3 -7 4 975.211 252.066 3
-3 -8 4 451.273 221.787 1
3 8 -4 444.323 302.786 6
-3 -8 4 546.921 232.552 3
-3 -9 4 333.064 232.462 3
-3 -9 4 138.779 184.432 1
-3 9 5 165.908 178.741 5
3 -9 -5 327.229 253.476 3
-3 8 5 274.937 185.013 5
3 -8 -5 156.433 172.358 4
3 -8 -5 217.033 210.892 3
-3 7 5 458.092 200.944 5
3 -7 -5 193.929 161.699 4
3 -7 -5 545.235 245.939 3
-3 6 5 263.341 170.963 5
3 -6 -5 215.954 179.842 3
3 -5 -5 2386.58 340.756 3
-3 5 5 2945 359.842 5
-3 5 5 2172.72 271.42 1
-3 4 5 379.54 163.484 5
3 -4 -5 223.119 145.38 3
-3 4 5 346.882 128.406 1
-3 3 5 4383.21 365.221 4
3 -3 -5 4498.95 352.939 3
-3 3 5 4246.45 444.59 6
3 -3 -5 4047.85 364.156 5
-3 3 5 4109.32 360.601 5
3 -2 -5 7895.26 388.221 3
-3 2 5 7727.69 539.926 6
-3 2 5 7594.85 450.536 5
3 -1 -5 239.619 71.8801 3
-3 1 5 316.583 139.778 6
-3 0 5 5301.13 358.499 2
-3 0 5 4665.08 372.476 6
-3 0 5 3708.6 291.353 1
3 0 -5 5435.36 410.086 6
-3 0 5 5256.98 321.151 5
-3 -1 5 1707.27 233.074 2
-3 -1 5 2159.9 281.528 6
3 1 -5 1812.24 253.278 6
-3 -1 5 1480.72 178.981 5
-3 -2 5 199.807 138.472 1
-3 -2 5 324.46 154.52 2
-3 -2 5 237.155 151.475 6
3 2 -5 345.108 149.331 6
3 3 -5 1498.47 252.858 2
-3 -3 5 1399.85 227.684 1
-3 -3 5 1141.88 122.239 3
-3 -3 5 1332.75 220.308 6
3 3 -5 1644.67 248.02 6
3 3 -5 1501.61 228.891 1
-3 -3 5 1090.09 215.306 2
-3 -4 5 4857.43 428.514 1
-3 -4 5 4255.78 372.483 2
-3 -4 5 3654.76 278.466 3
-3 -4 5 4073.55 338.01 6
3 4 -5 4373.54 395.912 1
3 4 -5 4707.57 415.894 6
-3 -4 5 4079.84 284.765 5
-3 -5 5 549.89 134.981 5
-3 -5 5 216.723 171.009 1
3 5 -5 721.661 239.179 6
-3 -5 5 258.347 152.279 3
-3 -6 5 1549.49 294.07 1
3 6 -5 1204.66 309.651 6
-3 -6 5 1289.02 254.971 3
-3 -6 5 1413.37 210.203 5
-3 -7 5 1604.61 309.294 1
3 7 -5 879.772 322.243 6
-3 -7 5 1189.49 271.65 3
-3 -8 5 63.5306 174.779 1
3 8 -5 65.1071 266.414 6
-3 -8 5 154.18 181.3 3
3 9 -5 213.286 292.496 6
-3 -9 5 -9.70487 174.466 3
-3 -9 5 228.086 189.978 1
3 -9 -6 365.762 236.894 3
-3 8 6 46.2912 142.366 5
3 -8 -6 -11.9444 162.224 4
3 -8 -6 -84.8255 175.298 3
-3 7 6 403.008 198.838 5
3 -7 -6 95.4495 137.967 4
3 -7 -6 -7.9664 166.701 3
-3 6 6 376.119 186.479 5
3 -6 -6 407.217 205.094 3
-3 5 6 627.444 203.444 5
3 -5 -6 470.412 193.729 3
-3 4 6 675.806 201.064 5
3 -4 -6 996.841 235.329 3
-3 4 6 945.678 176.783 1
3 -3 -6 549.028 177.312 5
-3 3 6 437.252 169.142 5
3 -3 -6 763.536 181.451 3
-3 3 6 773.581 243.54 6
-3 2 6 1337.5 210.65 5
3 -2 -6 1723.59 192.26 3
-3 2 6 1639.74 274.85 6
-3 1 6 557.153 155.045 5
-3 1 6 289.63 133.145 2
3 -1 -6 525.981 98.7411 3
-3 1 6 515.997 172.699 6
3 -1 -6 612.229 190.607 6
-3 0 6 11515.9 510.505 2
-3 0 6 11412.7 592.41 6
3 0 -6 11682.5 612.552 6
-3 0 6 11142.6 527.035 1
-3 0 6 11268.9 478.431 5
-3 -1 6 2208.48 239.126 2
-3 -1 6 1818.9 230.491 1
-3 -1 6 2544.19 298.324 6
3 1 -6 2137.71 270.381 6
-3 -2 6 14230.1 595.94 2
-3 -2 6 14319.6 604.752 1
-3 -2 6 13912.8 697.856 6
3 2 -6 14723.4 670.466 6
3 3 -6 17333.6 746.74 2
-3 -3 6 18135.9 726.766 1
-3 -3 6 17281.3 686.255 2
-3 -3 6 16074.1 683.484 6
3 3 -6 18104.6 772.188 6
-3 -4 6 482.12 129.457 5
3 4 -6 696.921 190.691 1
-3 -4 6 434.23 152.146 6
-3 -4 6 542.478 190.389 1
3 4 -6 608.936 191.641 6
-3 -4 6 62.2359 105.345 3
-3 -4 6 742.776 196.807 2
-3 -5 6 7298.02 533.486 1
-3 -5 6 6512.87 474.7 2
-3 -5 6 6637.47 434.177 3
3 5 -6 5786.09 542.906 6
-3 -5 6 6482 397.044 5
-3 -6 6 2912.12 388.78 1
-3 -6 6 2786.31 339.376 3
3 6 -6 2755.8 450.564 6
-3 -6 6 2777.41 285.472 5
-3 -7 6 219.608 200.313 1
3 7 -6 358.566 268.579 6
-3 -7 6 20.1955 142.92 3
-3 -8 6 163.599 175.509 1
3 8 -6 413.299 294.594 6
-3 -8 6 315.895 197.319 3
-3 -9 6 27.3177 177.914 1
3 9 -6 185.057 297.694 6
-3 -9 6 -96.747 170.257 3
3 -9 -7 -75.4238 187.404 3
-3 8 7 123.155 159.541 5
3 -8 -7 -203.909 170.724 4
3 -8 -7 49.5365 185.229 3
-3 7 7 -14.9183 134.618 5
3 -7 -7 238.798 181.268 3
-3 6 7 435.118 195.014 5
3 -6 -7 476.523 218.447 3
-3 5 7 323.516 169.717 5
3 -5 -7 116.06 148.841 3
3 -4 -7 4393.23 401.95 3
-3 4 7 3875.03 380.236 5
-3 3 7 365.09 149.526 5
3 -3 -7 572.459 157.575 3
-3 2 7 3092.4 317.352 4
3 -2 -7 4194.04 298.352 3
-3 2 7 4301.4 432.34 6
-3 2 7 3370.18 311.523 5
3 -1 -7 7153.55 510.446 6
-3 1 7 7491.17 396.565 2
3 -1 -7 6822.27 279.946 3
-3 1 7 6932.33 480.26 6
3 -1 -7 5570.69 225.383 3
-3 1 7 7174.01 415.448 5
-3 0 7 109.698 116.806 5
-3 0 7 251.308 149.078 1
-3 0 7 163.92 108.279 2
-3 0 7 223.781 142.845 6
3 0 -7 367.97 182.149 6
-3 -1 7 5624.41 372.975 2
-3 -1 7 4467.68 365.214 1
-3 -1 7 4970.37 429.932 6
3 1 -7 5427.28 448.532 6
-3 -2 7 544.919 175.777 1
-3 -2 7 507.46 196.304 6
-3 -2 7 574.605 179.914 2
-3 -3 7 591.602 181.426 1
-3 -3 7 1127.4 213.603 2
3 3 -7 934.927 216.404 2
-3 -3 7 890.15 204.044 6
3 3 -7 1237.43 252.084 6
-3 -4 7 515.968 147.287 5
3 4 -7 498.991 187.315 1
-3 -4 7 309.476 162.221 6
3 4 -7 459.501 210.453 6
-3 -4 7 414.207 196.951 1
-3 -4 7 748.399 201.072 2
-3 -4 7 79.9014 115.931 3
-3 -5 7 2007.96 321.771 1
-3 -5 7 2224.34 314.992 2
-3 -5 7 1304.7 227.245 3
3 5 -7 1380.74 307.642 6
-3 -5 7 1457.06 213.563 5
-3 -6 7 156.307 106.979 5
-3 -6 7 369.658 200.746 1
3 6 -7 192.363 234.116 6
-3 -6 7 -73.4894 144.555 3
-3 -7 7 281.875 201.868 1
3 7 -7 227.859 261.795 6
-3 -7 7 132.033 156.224 3
-3 -8 7 405.269 217.64 1
-3 -8 7 247.769 182.911 3
-3 -9 7 115.237 184.935 1
3 9 -7 73.1092 241.333 6
-3 -9 7 -164.006 179.908 3
3 -9 -8 26.1732 183.851 3
-3 8 8 46.9341 154.652 5
3 -8 -8 66.6171 144.268 4
3 -8 -8 267.01 213.451 3
-3 7 8 -52.6211 134.99 5
3 -7 -8 -53.6527 160.031 3
-3 6 8 512.815 193.189 5
3 -6 -8 696.407 242.231 3
-3 5 8 220.999 158.501 5
3 -5 -8 504.246 202.658 3
-3 4 8 312.005 165.404 5
3 -4 -8 544.334 184.079 3
-3 3 8 -2.79398 121.796 5
3 -3 -8 428.383 165.756 3
-3 2 8 2287.27 228.098 2
-3 2 8 2240.43 278.497 4
-3 2 8 2512.63 332.531 6
-3 2 8 2583.24 285.15 5
-3 1 8 2976.5 250.028 2
3 -1 -8 2050.86 156.139 3
-3 1 8 2460.01 304.675 6
3 -1 -8 2705.12 342.698 6
-3 1 8 2730.36 271.263 5
-3 0 8 9843.96 461.717 2
-3 0 8 8840.82 546.762 6
3 0 -8 8946.36 586.468 6
-3 0 8 9372.98 481.189 5
-3 -1 8 13047.7 542.325 2
-3 -1 8 11353.8 584.639 1
-3 -1 8 12331.5 673.432 6
3 1 -8 13979.2 729.055 6
3 2 -8 5396.33 423.491 2
-3 -2 8 5297.38 367.495 2
-3 -2 8 5153.33 399.841 1
-3 -2 8 5427.59 452.95 6
3 2 -8 5641.94 465.374 6
3 3 -8 10974.7 603.459 2
-3 -3 8 11882.7 632.361 1
-3 -3 8 10322.8 524.99 2
-3 -3 8 9871.17 584.718 6
3 3 -8 11257.2 687.029 6
-3 -4 8 15128 751.762 1
-3 -4 8 13081.2 623.307 2
-3 -4 8 13989.9 521.557 3
-3 -4 8 13086.5 667.397 6
-3 -5 8 459.772 145.578 5
-3 -5 8 601.956 216.784 1
3 5 -8 280.988 198.11 6
-3 -5 8 387.304 146.198 3
-3 -6 8 1063.65 264.038 1
3 6 -8 1376.02 354.975 6
-3 -6 8 710.966 190.358 3
-3 -7 8 824.208 266.229 1
3 7 -8 1002.44 352.932 6
-3 -7 8 464.942 197.603 3
-3 -8 8 120.527 200.623 1
3 8 -8 221.15 280.56 6
-3 -8 8 -14.8598 165.761 3
3 9 -8 333.093 292.274 6
3 -9 -9 84.4422 195.713 3
-3 8 9 326.237 199.405 5
3 -8 -9 293.274 217.745 3
-3 7 9 28.3821 139.431 5
3 -7 -9 -33.111 166.961 3
-3 6 9 960.356 236.626 5
3 -6 -9 951.505 260.362 3
-3 5 9 43.8336 133.119 5
3 -5 -9 271.637 163.537 3
-3 4 9 695.196 197.045 5
-3 3 9 4159.05 374.593 5
-3 2 9 125.527 121.55 5
3 -2 -9 216.946 94.3132 3
-3 2 9 131.601 130.065 4
3 -1 -9 5287.86 481.874 6
-3 1 9 5667.62 335.213 2
3 -1 -9 4705.64 257.023 3
-3 1 9 4838.96 441.772 6
-3 1 9 5266.37 390.131 5
-3 0 9 3892.32 294.248 2
-3 0 9 3229.37 353.864 6
3 0 -9 3578 403.608 6
-3 0 9 3100.98 307.048 5
-3 -1 9 359.379 136.771 2
-3 -1 9 450.225 195.036 6
-3 -1 9 6.13301 141.038 1
3 1 -9 314.382 205.932 6
3 2 -9 3983.09 379.762 2
-3 -2 9 4269.88 340.313 2
-3 -2 9 3922.48 374.712 1
-3 -2 9 4122.82 415.156 6
3 2 -9 4774.94 467.343 6
-3 -3 9 720.851 224.491 1
-3 -3 9 1410.42 239.103 2
3 3 -9 987.237 236.491 2
-3 -3 9 838.178 222.999 6
3 3 -9 1286.9 299.986 6
3 4 -9 453.996 206.636 6
-3 -4 9 895.522 222.296 2
-3 -4 9 439.96 191.253 1
-3 -5 9 80.2317 115.27 5
-3 -5 9 110.1 171.167 1
3 5 -9 72.5599 180.783 6
-3 -5 9 -142.117 130.096 3
-3 -6 9 560.865 230.998 1
3 6 -9 551.014 269.357 6
-3 -6 9 480.305 181.167 3
-3 -7 9 235.581 199.836 1
3 7 -9 -86.67 224.639 6
-3 -7 9 -304.438 173.125 3
-3 -8 9 1364.21 335.958 1
3 8 -9 1646.47 464.237 6
-3 -8 9 870.913 261.326 3
3 9 -9 460.293 305.898 6
3 -9 -10 369.438 245.37 3
-3 8 10 -3.10009 138.879 5
3 -8 -10 72.9866 188.962 3
-3 7 10 200.861 153.67 5
3 -7 -10 291.617 193.771 3
-3 6 10 -22.73 128.658 5
3 -6 -10 75.2521 144.764 3
-3 5 10 -75.2353 140.304 5
-3 4 10 0.94589 128.516 5
-3 3 10 535.933 172.946 5
-3 3 10 205.005 97.2645 2
-3 2 10 749.956 192.589 5
3 -2 -10 536.155 131.806 3
-3 2 10 259.473 110.121 2
3 -2 -10 920.059 250.194 6
-3 1 10 4219.25 279.448 2
3 -1 -10 3779.67 258.528 3
-3 1 10 3897.86 415.176 6
3 -1 -10 4117.96 443.937 6
-3 1 10 4000.64 360.588 5
-3 0 10 6648.63 355.814 2
3 0 -10 5257.46 248.393 3
-3 0 10 6504.04 498.337 6
3 0 -10 6391.09 535.188 6
-3 0 10 6248.81 430.14 5
-3 -1 10 4137.02 313.717 2
3 1 -10 2739.33 146.828 3
-3 -1 10 3345.43 372.982 1
-3 -1 10 3582.25 410.518 6
3 2 -10 23787.6 879.344 2
-3 -2 10 22717.5 713.815 2
-3 -2 10 22320.9 869.012 1
-3 -2 10 23823 955.62 6
3 2 -10 23644.2 1012.92 6
-3 -3 10 845.186 125.35 3
3 3 -10 2057.4 289.193 2
-3 -3 10 1151.52 238.994 1
-3 -3 10 1964.6 250.133 2
3 3 -10 1695.07 315.416 6
-3 -4 10 3344.61 392.458 1
-3 -4 10 2753.99 243.958 3
3 4 -10 3164.86 413.149 6
-3 -5 10 3203.56 400.739 1
-3 -5 10 3405.59 328.591 3
3 5 -10 3692.57 482.826 6
-3 -6 10 106.687 178.615 1
3 6 -10 26.52 215.27 6
-3 -6 10 37.5251 143.805 3
-3 -7 10 1927.66 368.31 1
3 7 -10 1651.09 436.294 6
-3 -7 10 1116.08 253.911 3
-3 -8 10 675.772 254.573 1
3 8 -10 305.941 294.055 6
-3 -8 10 407.707 204.406 3
3 9 -10 335.065 295.667 6
-3 8 11 4.37734 142.55 5
3 -8 -11 86.9934 184.743 3
-3 7 11 -115.212 154.623 5
3 -7 -11 167.659 182.601 3
-3 6 11 -80.419 145.738 5
3 -6 -11 71.5157 137.001 3
-3 5 11 368.526 173.367 5
-3 4 11 208.334 147.428 5
-3 3 11 1265.21 148.653 2
3 -3 -11 1761.6 225.847 3
-3 3 11 1789.31 274.641 5
-3 2 11 6373.12 305.762 2
3 -2 -11 5867.85 358.045 3
3 -2 -11 6470.27 561.105 6
-3 2 11 6288.92 459.09 5
-3 1 11 264.967 140.035 5
3 -1 -11 277.107 106.011 3
-3 1 11 236.608 91.5887 2
3 -1 -11 363.908 199.719 6
-3 0 11 5650.85 330.716 2
3 0 -11 5533.61 532.865 6
-3 0 11 5086.69 417.28 5
-3 -1 11 7200.28 386.511 2
3 1 -11 5957.9 277.269 3
-3 -1 11 5531.41 485.991 1
-3 -2 11 60.2369 66.6796 3
3 2 -11 533.737 190.899 2
3 2 -11 13.4944 64.9542 3
3 2 -11 770.279 260.191 6
-3 -2 11 297.064 139.299 2
-3 -2 11 44.9388 160.722 1
-3 -3 11 56.9118 83.4432 3
-3 -3 11 204.267 154.548 1
3 3 -11 187.495 171.418 6
-3 -4 11 115.128 164.761 1
-3 -4 11 176.447 112.739 3
3 5 -11 275.679 212.074 6
-3 -5 11 58.276 166.192 1
-3 -5 11 -122.591 140.837 3
-3 -6 11 1811.11 357.7 1
3 6 -11 1717.2 404.311 6
-3 -6 11 848.499 222.545 3
-3 -7 11 2153.69 389.981 1
3 7 -11 2553.25 507.34 6
-3 -7 11 1744.62 315.489 3
-3 -8 11 275.512 222.443 1
3 8 -11 95.1037 257.163 6
-3 -8 11 6.80472 155.405 3
3 9 -11 127.44 311.998 6
-3 8 12 -11.2558 138.547 5
3 -8 -12 92.6441 161.693 3
-3 7 12 -189.035 167.627 5
3 -7 -12 -7.74876 149.825 3
-3 6 12 -36.3358 132.018 5
-3 5 12 90.2505 139.17 5
-3 4 12 395.195 187.198 5
-3 4 12 126.839 70.4681 2
-3 3 12 739.87 210.65 5
3 -3 -12 356.053 135.619 3
-3 3 12 400.918 89.1586 2
-3 2 12 2257.64 171.75 2
3 -2 -12 2395.6 245.779 3
3 -2 -12 2984.74 408.389 6
-3 2 12 2787.78 331.041 5
-3 1 12 328.049 182.859 5
3 -1 -12 199.581 121.802 3
-3 1 12 126.144 92.3295 2
3 -1 -12 617.388 268.899 6
-3 0 12 7876.44 362.266 2
3 0 -12 9026.64 695.494 6
-3 -1 12 3901.94 280.89 2
3 1 -12 4000.68 259.265 3
-3 -1 12 3751.3 421.593 1
3 1 -12 4923.33 517.758 6
3 2 -12 3720.4 365.54 2
3 2 -12 3333.82 242.984 3
-3 -2 12 3875.17 310.672 2
-3 -2 12 3395.71 395.925 1
3 2 -12 3122.39 413.349 6
-3 -2 12 2141.02 188.169 3
-3 -3 12 5343.85 478.103 1
-3 -3 12 4597.69 298.839 3
3 3 -12 5335.67 539.012 6
-3 -4 12 142.3 112.411 3
-3 -4 12 146.137 163.876 1
-3 -5 12 4574.15 493.334 1
-3 -5 12 4713.36 391.556 3
3 5 -12 5080.03 575.648 6
-3 -6 12 4840.42 540.573 1
-3 -6 12 3738.37 400.587 3
3 6 -12 4122.26 575.149 6
-3 -7 12 306.625 221.442 1
3 7 -12 430.588 298.563 6
-3 -7 12 -50.3824 163.431 3
-3 -8 12 619.757 269.708 1
3 8 -12 391.99 315.316 6
3 9 -12 207.941 283.448 6
3 -8 -13 -44.7673 162.443 3
-3 7 13 13.2369 133.84 5
-3 6 13 303.744 173.088 5
-3 5 13 125.358 154.954 5
3 -4 -13 2788.42 324.35 3
-3 4 13 3643.06 398.079 5
-3 3 13 518.034 185.573 5
3 -3 -13 444.175 142.324 3
-3 3 13 13.7794 51.3041 2
3 -2 -13 1074.85 191.379 3
-3 2 13 832.226 109.654 2
3 -2 -13 1607.26 341.259 6
-3 2 13 1604.5 279.698 5
-3 1 13 7480.19 308.777 2
3 -1 -13 8264.34 478.808 3
3 -1 -13 9146.62 736.379 6
-3 1 13 8765.81 584.797 5
-3 0 13 1417.41 170.352 2
3 0 -13 1407.83 328.631 6
3 0 -13 888.272 161.496 3
-3 -1 13 1230.03 286.865 1
3 1 -13 2039.24 368.22 6
3 1 -13 1547.77 197.096 3
-3 -2 13 51.8745 165.015 1
-3 -2 13 4.78529 88.4989 3
3 2 -13 472.168 180.574 2
3 2 -13 214.783 106.091 3
3 2 -13 673.705 249.481 6
-3 -3 13 -181.114 102.551 3
-3 -3 13 -67.106 160.856 1
3 3 -13 92.504 98.7508 3
3 3 -13 197.461 188.021 6
-3 -4 13 19.2994 115.897 3
-3 -4 13 401.474 222.671 1
3 4 -13 357.904 224.147 6
-3 -5 13 1750.89 277.232 3
3 5 -13 1879.86 388.05 6
-3 -5 13 1778.14 352.831 1
-3 -6 13 598.816 237.223 1
3 6 -13 642.056 294.804 6
-3 -6 13 182.813 168.291 3
-3 -7 13 1043.37 293.62 1
3 7 -13 909.006 364.302 6
-3 -7 13 884.652 263.247 3
3 8 -13 777.577 354.824 6
3 -8 -14 -168.455 196.876 3
-3 7 14 105.899 148.963 5
-3 6 14 360.316 182.002 5
-3 5 14 62.784 136.328 5
-3 4 14 400.189 181.084 5
-3 3 14 224.602 173.804 5
3 -3 -14 184.778 129.172 3
-3 2 14 831.674 240.565 5
3 -2 -14 560.381 168.62 3
3 -2 -14 715.277 278.911 6
3 -1 -14 1859.12 256.167 3
3 -1 -14 1822.68 372.493 6
-3 1 14 2019.33 322.69 5
3 0 -14 274.258 200.255 6
3 0 -14 349.226 124.75 3
3 1 -14 5896.49 380.694 3
-3 -1 14 4803.66 502.164 1
3 1 -14 5187.63 570.798 6
-3 -2 14 325.374 200.337 1
-3 -2 14 203.959 102.375 3
3 2 -14 304.058 138.248 2
3 2 -14 121.939 107.304 3
3 2 -14 372.412 201.094 6
3 3 -14 4506.89 371.496 3
-3 -3 14 5293.7 517.886 1
-3 -3 14 4032.77 316.904 3
3 3 -14 4433.77 521.806 6
-3 -4 14 14293.3 853.793 1
-3 -4 14 12822.6 624.194 3
3 4 -14 13407.4 885.227 6
3 5 -14 241.152 223.983 6
-3 -5 14 564.667 233.349 1
-3 -5 14 -82.1016 157.21 3
-3 -6 14 2847.2 433.408 1
-3 -6 14 2385.06 331.546 3
3 6 -14 2099.67 427.399 6
-3 -7 14 1325.44 334.845 1
3 7 -14 1728.29 433.422 6
3 8 -14 319.746 303.359 6
3 -8 -15 33.3935 188.522 3
-3 7 15 -139.118 157.362 5
-3 6 15 532.118 212.792 5
-3 5 15 7.18406 133.324 5
-3 4 15 43.1027 133.422 5
3 -3 -15 2697.73 324.031 3
-3 3 15 3705.35 413.759 5
3 -2 -15 1867.55 267.826 3
3 -2 -15 1998.96 388.781 6
-3 2 15 1897.12 317.425 5
-3 1 15 813.782 237.494 5
3 -1 -15 1078.04 208.63 3
3 -1 -15 1313.84 342.676 6
3 0 -15 1728.91 237.346 3
3 0 -15 1857.04 375.094 6
-3 -1 15 24.3911 170.916 1
3 1 -15 -41.0922 163.419 6
3 1 -15 299.422 134.933 3
-3 -2 15 723.85 276.148 1
-3 -2 15 195.347 112.439 3
3 2 -15 685.791 184.936 2
3 2 -15 540.172 173.691 3
3 2 -15 988.491 299.836 6
-3 -3 15 -40.7632 152.749 3
-3 -3 15 1137.33 299.613 1
3 3 -15 139.192 148.369 3
3 3 -15 1474.15 353.143 6
-3 -4 15 118.724 157.478 3
-3 -4 15 533.99 249.609 1
-3 -5 15 -159.575 161.739 3
3 5 -15 84.0229 197.089 6
-3 -5 15 -34.538 178.193 1
3 6 -15 1189.32 339.683 6
-3 -6 15 1297.01 338.49 1
-3 -6 15 1259.98 280.884 3
-3 -7 15 74.002 211.874 1
3 7 -15 402.095 259.428 6
3 8 -15 57.203 240.02 6
-3 6 16 109.099 166.671 5
-3 5 16 152.67 174.486 5
-3 4 16 313.335 188.961 5
-3 3 16 483.66 203.06 5
3 -3 -16 143.34 122.7 3
-3 2 16 256.977 186.742 5
3 -2 -16 2.69843 109.41 3
3 -2 -16 137.175 226.753 6
-3 1 16 1577.97 317.509 5
3 -1 -16 1638.98 260.504 3
3 -1 -16 2124.17 425.663 6
-3 0 16 -219.787 271.343 1
3 0 -16 128.451 170.799 6
3 0 -16 263.215 129.142 3
-3 -1 16 1624.14 348.836 1
3 1 -16 2422.72 293.52 3
3 1 -16 2040.1 402.991 6
3 2 -16 8701.99 568.79 2
3 2 -16 12714.7 677.556 3
-3 -2 16 11044.5 815.729 1
3 2 -16 10606.3 805.159 6
-3 -2 16 10217.9 508.854 3
3 3 -16 2428.95 329.501 3
-3 -3 16 2820.71 421.588 1
-3 -3 16 2515.24 272.121 3
3 3 -16 2883.59 440.68 6
-3 -4 16 4820.8 559.551 1
-3 -4 16 4526.02 404.672 3
3 4 -16 5275.58 588.441 6
-3 -5 16 6168.33 628.249 1
-3 -5 16 4879.9 466.611 3
3 5 -16 5156.25 597.557 6
3 6 -16 518.775 268.85 6
-3 -6 16 730.1 272.328 1
-3 -7 16 588.712 285.768 1
3 7 -16 325.711 235.026 6
-3 6 17 43.8908 143.165 5
-3 5 17 339.014 189.104 5
-3 4 17 455.623 209.977 5
-3 3 17 282.874 179.479 5
3 -3 -17 278.775 235.406 6
-3 2 17 1685.9 329.093 5
3 -2 -17 1405.29 265.174 3
3 -2 -17 1905.92 415.102 6
-3 1 17 158.224 168.586 5
3 -1 -17 267.314 236.417 6
3 -1 -17 278.92 153.897 3
-3 0 17 669.186 264.123 1
3 0 -17 1025.32 228.432 3
3 1 -17 3523.09 375.802 3
-3 -1 17 2913.14 464.427 1
3 1 -17 4190.13 559.208 6
-3 -2 17 1.7877 103.931 3
-3 -2 17 -212.797 252 1
3 2 -17 -108.181 129.93 2
3 2 -17 242.517 214.269 6
3 2 -17 34.7363 140.878 3
-3 -3 17 509.779 154.907 3
-3 -3 17 763.329 286.094 1
3 3 -17 1147.01 307.185 6
-3 -4 17 413.536 180.314 3
-3 -4 17 372.758 265.869 1
3 4 -17 1082.01 321.811 6
-3 -5 17 120.193 201.651 1
-3 -5 17 -172.742 173.772 3
3 5 -17 282.939 218.937 6
3 6 -17 -37.9644 184.958 6
-3 -6 17 35.1136 190.289 1
3 7 -17 470.344 281.948 6
-3 6 18 194.982 181.411 5
-3 5 18 42.2621 160.107 5
-3 4 18 -3.23192 135.733 5
-3 3 18 279.654 183.288 5
3 -3 -18 200.454 220.549 6
-3 2 18 207.864 186.174 5
3 -2 -18 21.2866 202.983 6
-3 1 18 170.595 193.899 5
3 -1 -18 377.437 271.012 6
3 -1 -18 371.94 168.725 3
3 0 -18 3512.05 394.291 3
3 0 -18 3908.36 571.404 6
-3 0 18 3781.65 522.073 1
-3 -1 18 2136.14 403.423 1
3 1 -18 2258.07 431.583 6
3 1 -18 1640.61 289.223 3
-3 -2 18 1622.77 385.854 1
3 2 -18 1497.84 259.002 2
-3 -2 18 1462.18 228.611 3
3 2 -18 1813.35 380.522 6
-3 -3 18 8732.13 762.431 1
3 3 -18 7622.22 713.684 6
-3 -3 18 7133.8 488.313 3
-3 -4 18 346.49 160.986 3
-3 -4 18 580.964 271.281 1
3 4 -18 552.043 246.097 6
-3 -5 18 577.848 275.911 1
3 5 -18 635.113 259.08 6
3 6 -18 1989.81 420.08 6
-3 -6 18 2204.73 445.749 1
-3 5 19 -172.847 193.963 5
-3 4 19 491.716 216.306 5
-3 3 19 273.792 174.363 5
3 -3 -19 102.278 218.388 6
-3 2 19 1271.25 316.274 5
3 -2 -19 1159.84 372.67 6
3 -1 -19 2562.85 507.289 6
-3 1 19 2401.15 415.101 5
-3 0 19 391.018 218.887 1
3 0 -19 1048.66 351.827 6
-3 -1 19 1299.38 357.911 1
3 1 -19 1361.6 375.802 6
-3 -2 19 1122.83 228.967 3
-3 -2 19 1138.61 362.506 1
-3 -3 19 37.1326 111.187 3
-3 -3 19 -255.016 247.016 1
3 3 -19 271.915 215.647 6
-3 -4 19 -33.4947 151.099 3
-3 -4 19 -80.2155 205.228 1
3 4 -19 125.699 184.812 6
-3 -5 19 38.3594 192.459 1
3 5 -19 328.804 247.449 6
3 6 -19 222.943 236.687 6
-3 5 20 32.1369 167.898 5
-3 4 20 323.533 206.674 5
-3 3 20 -150.824 170.434 5
3 -3 -20 -44.9625 230.551 6
-3 2 20 563.905 260.252 5
3 -2 -20 639.544 318.774 6
-3 1 20 224.569 203.761 5
3 -1 -20 440.814 285.236 6
-3 0 20 -564.358 300.705 1
3 0 -20 248.295 225.826 6
-3 -1 20 3859.35 550.429 1
3 1 -20 4383.01 611.596 6
-3 -2 20 440.047 248.02 1
-3 -2 20 984.077 210.038 3
3 2 -20 1064.25 307.59 6
-3 -3 20 588.726 177.046 3
-3 -3 20 235.504 203.235 1
3 3 -20 509.893 225.467 6
-3 -4 20 2888.01 509.132 1
3 4 -20 2423.27 445.968 6
-3 -5 20 659.312 301.882 1
3 5 -20 783.723 298.162 6
-3 4 21 168.518 196.668 5
-3 3 21 1080.25 323.756 5
3 -3 -21 1098.74 383.396 6
-3 2 21 553.684 260.861 5
3 -2 -21 686.188 326.817 6
-3 1 21 412.028 232.725 5
3 -1 -21 681.111 321.175 6
3 0 -21 3993.93 623.508 6
-3 0 21 4328.89 580.016 1
-3 -1 21 112.228 222.233 1
3 1 -21 525.1 292.994 6
-3 -2 21 214.333 141.874 3
3 2 -21 15.2236 167.963 6
-3 -3 21 131.544 226.195 1
3 3 -21 551.104 267.966 6
-3 -4 21 -250.871 270.718 1
3 4 -21 114.241 186.791 6
-3 3 22 122.887 194.159 5
3 -3 -22 -156.217 244.077 6
-3 2 22 184.996 196.511 5
3 -2 -22 278.175 250.615 6
-3 1 22 290.836 240.938 5
3 -1 -22 983.871 378.99 6
3 0 -22 774.468 327.626 6
-3 0 22 427.659 257.347 1
3 1 -22 1128.38 345.24 6
-3 -1 22 336.289 256.067 1
-3 -2 22 2005.07 456.825 1
3 2 -22 1935.8 411.799 6
-3 -3 22 14.9375 238.324 1
3 3 -22 511.484 250.065 6
3 -3 -23 222.74 228.011 6
-3 2 23 1799.34 411.734 5
3 -2 -23 1430.17 435.068 6
-3 1 23 546.773 263.863 5
3 -1 -23 834.639 354.063 6
-3 0 23 -0.31634 213.792 1
3 0 -23 -144.974 223.092 6
-3 -1 23 372.654 269.954 1
3 1 -23 1225.11 382.283 6
-3 -2 23 -351.359 287.612 1
3 2 -23 -147.547 214.078 6
3 -2 -24 97.0323 239.362 6
-3 1 24 -47.5074 177.96 5
3 -1 -24 449.377 321.096 6
3 0 -24 516.215 310.442 6
-3 0 24 116.721 226.654 1
3 1 -24 342.356 265.484 6
-4 -2 -20 -427.93 229.034 2
-4 -3 -20 115.105 195.117 2
4 -1 19 62.1692 176.186 3
4 0 19 624.618 275.387 3
4 1 19 179.021 212.164 3
-4 -2 -19 -149.96 188.941 2
-4 -3 -19 58.1316 160.881 2
4 -2 18 190.205 221.559 3
4 -1 18 -324.451 235.222 3
4 0 18 725.129 283.329 3
4 1 18 -159.427 191.952 3
-4 -2 -18 -281.894 213.645 2
-4 -3 -18 -234.507 199.543 2
-4 -4 -18 -33.6764 146.864 2
-4 5 -17 207.517 186.516 6
-4 4 -17 -7.85855 133.978 6
4 -3 17 -226.147 236.432 3
4 -2 17 113.393 216.448 3
4 -1 17 123.819 197.659 3
4 0 17 635.626 272.424 3
4 1 17 67.4127 169.926 3
-4 -2 -17 -262.199 211.37 2
-4 -3 -17 -154.266 188.52 2
-4 -4 -17 112.562 173.645 2
-4 -5 -17 210.948 199.436 2
-4 5 -16 15.9775 141.634 6
4 -4 16 177.955 256.459 3
-4 4 -16 293.233 177.081 6
4 -3 16 -571.385 286.359 3
-4 3 -16 119.141 138.194 6
4 -2 16 246.819 224.116 3
4 -1 16 -89.6666 186.019 3
4 0 16 556.1 255.237 3
4 1 16 40.9176 172.777 3
-4 -2 -16 -227.041 207.374 2
-4 -3 -16 88.8289 187.084 2
-4 -4 -16 83.1879 199.578 2
-4 -5 -16 506.351 246.49 2
-4 6 -15 308.956 200.688 6
4 -5 15 37.5827 214.114 3
-4 5 -15 336.974 205.573 6
4 -4 15 797.357 347.082 3
-4 4 -15 778.849 219.687 6
4 -3 15 379.597 274.361 3
-4 3 -15 79.2208 124.725 6
4 -2 15 196.643 198.481 3
4 -1 15 870.94 272.7 3
4 0 15 144.848 187.627 3
4 1 15 355.214 214.857 3
-4 -2 -15 56.062 188.82 2
-4 -3 -15 -48.086 177.446 2
-4 -4 -15 143.907 173.602 2
-4 -5 -15 83.4955 180.786 2
-4 -6 -15 48.037 183.326 2
-4 6 -14 234.392 191.995 6
4 -5 14 54.4293 203.773 3
-4 5 -14 334.413 192.424 6
4 -4 14 336.283 252.49 3
-4 4 -14 591.191 213.105 6
4 -3 14 14.5495 196.587 3
-4 3 -14 458.519 171.31 6
4 -2 14 -190.498 223.673 3
-4 2 -14 240.578 136.015 6
4 -1 14 1064.97 306.755 3
4 0 14 -134.453 187.086 3
4 1 14 695.31 254.994 3
-4 -2 -14 5.18051 185.739 2
-4 -3 -14 -106.803 178.689 2
-4 -4 -14 452.644 241.37 2
-4 -5 -14 178.328 198.29 2
-4 -6 -14 -283.586 206.541 2
-4 6 -13 700.314 252.769 6
4 -6 13 -101.101 207.31 3
4 -5 13 3.48271 200.113 3
-4 5 -13 272.744 191.969 6
4 -4 13 -49.6467 209.053 3
-4 4 -13 216.009 160.475 6
4 -3 13 976.003 323.408 3
-4 3 -13 936.859 216.769 6
4 -2 13 -250.785 240.822 3
-4 2 -13 348.446 145.99 6
4 -1 13 759.596 262.635 3
-4 1 -13 684.643 153.807 6
4 0 13 325.455 205.492 3
4 1 13 -5.91058 145.792 3
-4 -2 -13 177.88 205.195 2
-4 -3 -13 -148.479 203.706 2
-4 -4 -13 32.6461 171.448 2
-4 -5 -13 -134.046 177.344 2
-4 -6 -13 -160.086 195.568 2
4 -6 12 32.1466 185.909 3
4 -5 12 274.23 228.129 3
4 -4 12 29.1311 192.266 3
4 -3 12 491.836 260.237 3
-4 3 -12 861.576 208.949 6
4 -2 12 -144.98 228.614 3
-4 2 -12 278.707 145.312 6
4 -1 12 650.936 242.81 3
-4 1 -12 930.63 172.422 6
4 0 12 652.885 236.573 3
4 1 12 129.201 161.567 3
-4 -2 -12 1747.38 367.115 2
-4 -3 -12 54.7193 169.481 2
-4 -4 -12 33.1954 184.288 2
-4 -5 -12 335.164 214.792 2
-4 -6 -12 -165.612 191.328 2
4 -6 11 -17.9594 183.246 3
4 -5 11 208.621 211.136 3
4 -4 11 356.142 233.945 3
4 -3 11 25.8836 194.621 3
4 -2 11 1719.09 361.238 3
-4 2 -11 1648.03 238.884 6
4 -1 11 194.028 170.589 3
-4 1 -11 295.113 122.051 6
4 0 11 421.491 206.538 3
-4 0 -11 390.864 96.5347 6
4 1 11 1055.32 265.97 3
-4 -2 -11 109.019 195.654 2
-4 -3 -11 -190.2 208.062 2
-4 -4 -11 95.0068 163.137 2
-4 -5 -11 212.952 194.508 2
-4 -6 -11 11.0562 193.414 2
-4 -7 -11 104.917 197.064 2
4 -7 10 278.566 236.148 3
4 -6 10 117.233 175.249 3
4 -5 10 87.3148 166.851 3
4 -4 10 429.761 238.717 3
4 -3 10 -258.917 230.389 3
4 -2 10 1166.6 307.678 3
4 -2 10 1629.4 208.488 5
4 -1 10 1115.81 280.954 3
-4 1 -10 743.336 124.235 4
4 0 10 566.237 230.527 3
-4 0 -10 526.59 120.408 4
-4 0 -10 577.212 117.505 6
4 1 10 889.743 240.855 3
-4 -2 -10 -225.158 216.263 2
-4 -3 -10 120.484 180.786 2
-4 -4 -10 265.582 203.714 2
-4 -5 -10 191.017 190.888 2
-4 -6 -10 35.5123 170.907 2
-4 -7 -10 55.8503 187.147 2
4 -7 9 242.233 239.715 3
4 -6 9 252.527 228.75 3
4 -5 9 -87.6278 176.609 3
4 -4 9 1738.32 353.507 3
4 -3 9 527.003 236.169 3
4 -2 9 350.395 205.986 3
4 -2 9 546.979 124.188 5
-4 1 -9 1727.36 184.944 4
4 -1 9 1937.29 342.066 3
4 -1 9 1523.47 167.335 5
4 0 9 266.684 66.3079 5
4 0 9 496.362 203.864 3
-4 0 -9 64.9432 88.5823 4
-4 0 -9 517.182 111.818 6
-4 0 -9 374.404 124.427 6
4 1 9 299.71 163.801 3
-4 -2 -9 -373.544 220.53 2
-4 -3 -9 6.75577 166.491 2
-4 -4 -9 95.8346 176.863 2
-4 -5 -9 338.69 205.564 2
-4 -6 -9 414.777 223.38 2
-4 -7 -9 -192.706 187.658 2
4 -7 8 166.074 236.868 3
4 -6 8 274.837 211.521 3
4 -5 8 344.945 215.461 3
4 -4 8 871.453 274.807 3
4 -3 8 1177.97 290.64 3
4 -3 8 1257.28 197.187 5
4 -2 8 -48.3156 176.877 3
4 -2 8 207.921 98.4782 5
4 -1 8 606.438 118.184 5
4 -1 8 688.796 229.145 3
-4 1 -8 674.795 134.397 4
4 0 8 281.537 61.3756 5
4 0 8 529.962 193.342 3
-4 0 -8 96.392 76.1334 4
-4 0 -8 446.506 125.674 6
-4 0 -8 651.693 219.562 3
4 1 8 1270.83 245.507 3
-4 -1 -8 648.025 68.773 6
-4 -1 -8 671.946 84.305 6
-4 -1 -8 1385.4 283.985 3
-4 -2 -8 341.57 209.194 2
-4 -2 -8 282.537 180.296 3
-4 -3 -8 -112.193 193.235 2
-4 -4 -8 1580.09 333.677 2
-4 -5 -8 570.054 247.597 2
-4 -6 -8 185.483 178.941 2
-4 -7 -8 61.5737 190.498 2
-4 7 -7 108.574 161.239 5
4 -7 7 219.31 232.054 3
-4 6 -7 513.067 217.467 5
4 -6 7 515.455 256.396 3
-4 5 -7 1404.82 281.076 5
4 -5 7 1248.12 315.052 3
-4 4 -7 51.643 138.074 5
4 -4 7 -65.8782 145.104 3
4 -3 7 1148.18 195.622 5
4 -3 7 1160.52 276.041 3
4 -2 7 1642.52 317.892 3
-4 2 -7 1503.57 182.7 4
4 -2 7 1523.52 193.199 5
4 -1 7 374.043 93.3883 5
4 -1 7 151.081 155.074 3
-4 1 -7 398.43 113.322 4
-4 1 -7 410.2 175.334 3
-4 1 -7 375.361 120.341 6
4 0 7 1470.71 263.584 3
-4 0 -7 1281.01 180.558 4
-4 0 -7 2087.23 307.039 3
-4 0 -7 1676.7 196.34 6
4 0 7 1287.67 114.144 5
4 1 7 46.0812 119.977 3
-4 -1 -7 58.9856 58.346 6
-4 -1 -7 192.639 162.655 3
-4 -2 -7 43.9298 180.208 2
-4 -2 -7 141.326 153.914 3
-4 -3 -7 131.573 181.524 2
-4 -3 -7 234.632 179.416 3
-4 -4 -7 1768.6 345.684 2
-4 -5 -7 676.548 238.821 2
-4 -6 -7 -95.1422 175.813 2
-4 -7 -7 -65.6163 165.327 2
-4 8 -6 204.012 192.763 5
4 -8 6 103.401 248.738 3
-4 7 -6 266.002 182.705 5
4 -7 6 41.6862 193.149 3
-4 6 -6 118.584 170.274 5
4 -6 6 369.895 220.889 3
-4 5 -6 1053.78 243.354 5
4 -5 6 847.954 267.871 3
-4 4 -6 564.103 186.288 5
4 -4 6 615.844 219.709 3
4 -3 6 431.634 143.096 5
-4 3 -6 504.513 163.649 5
4 -3 6 164.249 175.066 3
4 -2 6 1675.34 297.779 3
-4 2 -6 1267.36 175.362 4
-4 2 -6 1335.25 268.738 3
4 -2 6 1119.02 167.391 5
4 -1 6 427.439 103.378 5
-4 1 -6 186.068 96.8181 4
-4 1 -6 129.71 140.745 3
-4 1 -6 358.62 128.436 6
-4 0 -6 1952.06 289.909 3
4 0 6 1679.39 276.178 3
-4 0 -6 1644.51 200.787 6
4 0 6 1232.98 113.029 5
4 1 6 223.769 136.885 3
-4 -1 -6 105.897 76.1371 6
-4 -1 -6 125.429 142.572 3
-4 -2 -6 3980.67 463.213 2
-4 -2 -6 3717.82 392.969 3
-4 -3 -6 2188.22 359.751 2
4 3 6 1677.89 162.349 1
-4 -3 -6 1929.96 320.63 3
-4 -4 -6 470.496 212.874 2
-4 -5 -6 876.634 251.186 2
-4 -6 -6 108.487 159.941 2
-4 -7 -6 -9.04843 158.473 2
-4 8 -5 135.745 176.15 5
4 -8 5 11.9016 220.896 3
-4 7 -5 511.028 228.048 5
4 -7 5 375.894 240.763 3
-4 6 -5 335.77 192.025 5
4 -6 5 351.197 221.262 3
-4 5 -5 402.681 178.686 5
4 -5 5 429.506 219.47 3
4 -4 5 1775.51 322.195 3
-4 4 -5 1865.88 277.702 5
4 -3 5 164.353 104.865 5
-4 3 -5 50.6455 114.314 5
4 -3 5 50.3063 136.231 3
-4 2 -5 2099.6 227.78 4
-4 2 -5 2175.84 321.827 3
4 -2 5 2680.26 359.016 3
4 -2 5 2184.68 225.414 5
-4 2 -5 2425.18 251.406 5
4 -1 5 423.806 104.611 5
4 -1 5 322.273 165.23 3
-4 1 -5 388.766 123.293 4
-4 1 -5 294.582 156.455 3
-4 1 -5 330.631 120.192 6
4 0 5 929.654 203.806 3
-4 0 -5 1809.98 268.429 3
-4 0 -5 1493.64 214.703 6
4 1 5 971.405 196.603 3
-4 -1 -5 387.726 108.368 6
-4 -1 -5 782.684 197.071 3
-4 -2 -5 461.969 224.631 2
-4 -2 -5 713.29 203.467 3
4 3 5 734.858 123.568 1
-4 -3 -5 622.974 208.362 3
-4 -4 -5 229.591 173.878 3
4 4 5 374.599 120.935 1
-4 -4 -5 538.886 221.844 2
-4 -5 -5 5.70153 154.814 2
-4 -6 -5 148.887 168.667 2
-4 -7 -5 -42.6823 149.886 2
-4 8 -4 107.128 163.868 5
4 -8 4 153.415 224.805 3
-4 7 -4 191.371 168.56 5
4 -7 4 206.129 209.692 3
-4 6 -4 922.885 238.725 5
4 -6 4 724.096 267.351 3
-4 5 -4 225.636 158.347 5
4 -5 4 11.6149 146.833 3
-4 4 -4 555.764 124.013 1
-4 4 -4 789.884 200.509 5
4 -4 4 630.931 223.882 3
4 -3 4 127.988 105.788 5
-4 3 -4 64.9101 43.9594 1
-4 3 -4 188.445 134.972 5
-4 3 -4 121.265 152.265 3
4 -3 4 6.81022 126.361 3
4 -2 4 1203.18 252.749 3
-4 2 -4 989.178 168.397 4
-4 2 -4 1209.68 248.692 3
-4 2 -4 1000.65 192.221 6
4 -2 4 1005.25 166.01 5
-4 2 -4 1170.36 191.263 5
4 -1 4 51.7511 70.6243 5
4 -1 4 -42.3596 151.636 3
-4 1 -4 27.7764 77.1192 5
-4 1 -4 111.033 87.0138 4
-4 1 -4 -58.3839 118.783 3
-4 1 -4 67.5481 113.536 6
-4 0 -4 3752.64 347.818 3
4 0 4 3671.83 356.402 3
-4 0 -4 3861.45 318.016 6
-4 -1 -4 4602.04 465.035 2
-4 -1 -4 4613.19 364.154 3
-4 -1 -4 3567.47 269.328 6
-4 -2 -4 503.835 202.366 2
-4 -2 -4 223.343 54.3982 6
-4 -2 -4 384.304 157.803 3
-4 -3 -4 2953.96 384.599 2
-4 -3 -4 2297.29 308.348 3
4 3 4 2443.18 205.627 1
-4 -4 -4 1065.56 251.366 3
-4 -4 -4 1359.6 273.629 2
4 4 4 1039.77 164.95 1
-4 -5 -4 -368.844 206.51 2
-4 -6 -4 69.8355 159.71 2
-4 -7 -4 145.344 164.823 2
-4 8 -3 403.677 218.472 5
4 -8 3 576.5 301.623 3
-4 7 -3 78.6286 145.553 5
4 -7 3 104.099 189.007 3
-4 6 -3 726.154 225.306 5
4 -6 3 634.321 254.825 3
-4 5 -3 53.0096 130.478 5
4 -5 3 -154.008 167.159 3
-4 4 -3 376.387 156.421 5
-4 4 -3 451.425 115.083 1
4 -4 3 515.98 202.108 3
-4 3 -3 754.732 96.4206 1
-4 3 -3 954.058 236.955 3
4 -3 3 1296.72 204.533 5
4 -3 3 1278.82 249.517 3
-4 3 -3 1363.96 222.78 5
4 -2 3 712 146.028 5
-4 2 -3 737.415 161.219 5
-4 2 -3 420.334 154.56 3
-4 2 -3 745.298 185.319 6
4 -2 3 786.472 208.871 3
-4 1 -3 3362.17 289.625 4
-4 1 -3 4004.34 361.187 3
4 -1 3 3537.7 369.849 3
-4 1 -3 4110.31 359.161 6
4 -1 3 3845.31 266.408 5
-4 1 -3 4631.9 293.044 5
4 0 3 426.5 155.766 3
-4 0 -3 277.228 147.876 3
-4 -1 -3 1315.3 277.171 2
-4 -1 -3 1320.08 207.53 3
-4 -1 -3 772.276 154.226 6
-4 -2 -3 3240.87 300.601 3
-4 -2 -3 2511.13 182.322 6
4 3 3 98.1911 91.3139 1
-4 -3 -3 150.398 174.102 2
-4 -3 -3 154.042 144.04 3
4 4 3 132.913 99.2766 1
-4 -4 -3 15.8754 128.486 3
-4 -4 -3 230.045 180.262 2
-4 -5 -3 -96.5216 165.228 2
-4 -6 -3 189.394 162.485 2
-4 -7 -3 206.298 180.428 2
-4 8 -2 285.267 192.61 5
4 -8 2 605.545 292.421 3
-4 7 -2 0.43894 140.728 5
4 -7 2 132.469 209.165 3
-4 6 -2 304.759 172.703 5
4 -6 2 375.416 207.821 3
-4 5 -2 123.744 138.56 5
-4 5 -2 251.89 125.237 1
4 -5 2 295.484 182.95 3
-4 4 -2 111.05 121.282 5
-4 4 -2 32.3339 84 1
4 -4 2 24.8129 140.693 3
-4 3 -2 1070.47 128.486 1
-4 3 -2 1377.1 267.015 3
4 -3 2 1211.44 207.054 5
4 -3 2 1229.06 248.034 3
-4 3 -2 1541.81 232.766 5
4 -2 2 596.874 155.365 5
-4 2 -2 277.942 167.883 3
-4 2 -2 667.647 200.548 6
-4 2 -2 1150.03 193.393 5
4 -2 2 803.333 210.762 3
-4 1 -2 4827.48 357.148 4
-4 1 -2 5376.88 400.999 3
4 -1 2 5071.04 422.051 3
-4 1 -2 5083.92 397.114 6
4 -1 2 4848.01 307.488 5
-4 1 -2 5632.24 317.784 5
-4 0 -2 2561.05 270.325 3
4 0 2 2737.04 268.147 3
-4 0 -2 2227.99 252.761 6
-4 0 -2 2060.26 154.824 5
-4 -1 -2 1225.72 180.729 3
-4 -1 -2 1403.59 278.448 2
-4 -1 -2 825.664 152.8 6
-4 -2 -2 3490.84 396.744 2
-4 -2 -2 3467.49 279.406 3
-4 -2 -2 2814.51 226.116 6
-4 -3 -2 -157.83 143.58 2
4 3 2 -37.9323 79.1545 1
-4 -3 -2 37.3437 41.7394 6
-4 -3 -2 79.9028 86.0671 1
-4 -3 -2 168.565 121.517 3
-4 -4 -2 878.549 198.474 3
-4 -4 -2 1602.89 291.427 2
4 4 2 1134.16 190.575 1
-4 -4 -2 1458.79 197.894 1
-4 -5 -2 192.38 163.196 2
-4 -5 -2 328.137 146.724 1
4 5 2 193.956 112.066 1
-4 -6 -2 252.167 150.823 1
-4 -6 -2 227.57 174.221 2
-4 -7 -2 403.785 193.525 1
-4 -7 -2 417.679 202.064 2
-4 8 -1 -52.3631 152.939 5
4 -8 1 124.8 198.721 3
-4 7 -1 180.496 160.108 5
4 -7 1 372.545 248.761 3
-4 6 -1 212.264 151.194 5
4 -6 1 361.765 214.229 3
-4 5 -1 820.648 209.181 5
-4 5 -1 475.08 141.418 1
4 -5 1 668.331 225.965 3
-4 4 -1 89.2202 123.332 5
-4 4 -1 -170.639 103.786 1
4 -4 1 22.9632 143.037 3
-4 3 -1 4752.72 259.174 1
4 -3 1 6447.58 495.464 3
4 -3 1 5165.09 399.757 5
-4 3 -1 6054.82 412.439 5
-4 2 -1 1961.05 123.121 1
-4 2 -1 2817.84 309.092 3
4 -2 1 3497.06 337.628 3
-4 2 -1 2797.56 336.692 6
4 -2 1 2980.72 286.946 5
-4 2 -1 3564.9 295.493 5
4 -1 1 535.058 134.999 5
4 -1 1 541.407 169.142 3
-4 1 -1 289.892 139.556 3
-4 1 -1 718.455 183.159 6
-4 1 -1 880.155 151.407 5
-4 0 -1 5030.96 333.417 3
4 0 1 5216.69 324.902 3
-4 0 -1 5037.99 370.366 6
-4 0 -1 4842.92 242.027 5
-4 -1 -1 1729.46 288.149 2
-4 -1 -1 1448.32 173.152 3
-4 -1 -1 1272.78 199.658 6
-4 -1 -1 911.28 69.6117 1
-4 -1 -1 654.645 55.8023 5
-4 -2 -1 476.059 191.051 2
-4 -2 -1 406.708 129.558 6
-4 -2 -1 242.162 75.7194 1
-4 -2 -1 444.799 115.71 3
-4 -3 -1 127.974 137.211 2
-4 -3 -1 69.9778 67.8985 6
-4 -3 -1 159.79 101.115 1
-4 -3 -1 408.909 142.91 3
-4 -4 -1 224.641 143.018 3
4 4 1 197.832 119.864 1
-4 -4 -1 576.848 205.416 2
-4 -4 -1 133.545 116.794 1
4 5 1 173.941 121.883 1
-4 -5 -1 35.1488 144.773 2
-4 -5 -1 114.711 127.947 1
4 5 1 134.494 70.5086 6
-4 -6 -1 483.296 172.792 1
-4 -6 -1 649.998 213.982 2
-4 -7 -1 273.046 182.664 3
-4 -7 -1 425.781 192.35 1
-4 -7 -1 503.951 212.557 2
-4 -8 -1 301.269 211.931 1
-4 8 0 148.912 179.943 5
4 -8 0 -14.4205 183.985 3
-4 7 0 368.907 196.174 5
4 -7 0 670.769 276.41 3
-4 6 0 316.549 174.054 5
4 -6 0 152.886 170.217 3
-4 5 0 743.846 209.555 5
-4 5 0 562.018 146.153 1
-4 4 0 950.845 222.948 5
-4 4 0 741.402 153.872 1
4 -4 0 1226.73 264.965 3
-4 3 0 2407.88 203.468 1
4 -3 0 3066.11 355.701 3
4 -3 0 2614.21 307.262 5
-4 3 0 3358.34 326.463 5
-4 2 0 2287.87 153.146 1
4 -2 0 3791.09 339.121 3
-4 2 0 2777.46 343.012 6
4 -2 0 2788.94 279.561 5
-4 2 0 3184.31 292.884 5
4 -1 0 22.4603 122.852 3
-4 1 0 94.4949 98.9941 5
-4 1 0 34.9808 41.7288 1
-4 1 0 105.837 109.279 3
-4 1 0 24.3606 33.676 1
-4 0 0 839.917 75.2901 1
-4 0 0 1144.88 155.322 3
4 0 0 1446.56 163.361 3
-4 0 0 1409.1 217.405 6
-4 0 0 1541.71 164.468 5
-4 -1 0 495.917 81.899 1
-4 -1 0 228.112 49.5272 5
-4 -1 0 435.897 162.352 2
-4 -1 0 148.069 133.071 6
-4 -1 0 497.158 100.448 3
-4 -2 0 3768.95 239.481 1
-4 -2 0 3644.42 380.863 2
-4 -2 0 3050.79 209.368 3
-4 -2 0 3040.7 298.467 6
-4 -3 0 1576.48 264.163 2
-4 -3 0 1374.45 172.755 3
-4 -3 0 1095.78 141.65 6
-4 -3 0 1842.41 209.618 1
-4 -4 0 230.621 131.297 3
-4 -4 0 401.372 168.933 2
4 4 0 312.949 102.756 6
4 4 0 330.445 132.291 1
-4 -4 0 247.184 123.104 1
4 5 0 1872.61 272.912 1
4 5 0 1607.89 180.471 6
-4 -5 0 1591.99 284.514 2
-4 -5 0 1886.37 264.963 1
-4 -6 0 251.904 170.764 3
-4 -6 0 425.374 190.158 2
-4 -6 0 329.818 167.133 1
-4 -7 0 14.7867 145.713 1
-4 -7 0 355.11 194.058 2
-4 -8 0 640.455 229.72 1
-4 -9 0 543.787 259.246 1
-4 8 1 139.532 161.86 5
4 -8 -1 16.6007 176.203 3
-4 7 1 216.67 174.863 5
4 -7 -1 359.851 228.379 3
-4 6 1 134.243 154.208 5
4 -6 -1 237.745 190.025 3
-4 5 1 1240.99 253.876 5
-4 5 1 991.247 190.542 1
4 -5 -1 1557.45 296.191 3
-4 4 1 3508.1 282.216 1
4 -4 -1 4962.82 446.839 3
-4 4 1 4395.37 411.091 5
-4 3 1 293.122 112.748 1
4 -3 -1 177.955 145.094 5
-4 3 1 143.149 133.114 5
4 -3 -1 -134.269 147.417 3
4 -2 -1 2299.15 267.679 3
-4 2 1 1888.94 292.201 6
4 -2 -1 1810.26 236.909 5
-4 2 1 1762.78 153.105 1
-4 2 1 1838.4 233.556 5
-4 1 1 3053.67 199.787 1
4 -1 -1 4005.36 313.605 3
-4 1 1 3697.75 368.584 6
-4 1 1 4060.54 295.162 5
-4 0 1 -121.816 100.931 5
4 0 -1 103.54 57.4084 3
-4 0 1 -131.904 159.251 2
-4 0 1 140.396 69.6479 3
-4 0 1 -109.589 124.168 6
-4 0 1 21.7806 57.5919 1
-4 -1 1 2554.78 191.196 1
-4 -1 1 2689.6 332.856 2
-4 -1 1 1781.2 126.94 3
-4 -1 1 2410.87 273.544 6
-4 -1 1 2344.36 162.491 5
-4 -2 1 57.7501 33.1496 5
-4 -2 1 116.859 102.481 1
-4 -2 1 420.277 192.531 2
-4 -2 1 180.282 149.26 6
-4 -2 1 113.117 62.6106 3
-4 -3 1 199.427 118.327 1
-4 -3 1 404.53 167.612 2
-4 -3 1 71.2476 83.4736 6
4 3 -1 209.367 114.589 6
-4 -3 1 133.801 70.3197 3
-4 -4 1 379.103 158.736 1
-4 -4 1 -73.4182 106.425 3
4 4 -1 291.707 135.312 1
-4 -4 1 40.7854 138.545 2
4 4 -1 260.883 117.924 6
4 5 -1 490.705 173.473 1
-4 -5 1 455.523 155.598 3
-4 -5 1 340.61 190.648 2
4 5 -1 426.202 125.43 6
-4 -5 1 499.361 181.893 1
-4 -6 1 318.017 160.886 3
-4 -6 1 486.824 204.045 2
-4 -6 1 182.188 156.252 1
-4 -7 1 343.989 183.778 2
-4 -7 1 136.278 170.063 1
-4 -8 1 -160.635 152.614 1
-4 -9 1 454.236 243.161 1
-4 8 2 407.278 217.927 5
4 -8 -2 27.2173 185.336 3
-4 7 2 -87.8668 141.115 5
4 -7 -2 20.0493 161.977 3
-4 6 2 1152.56 278.76 5
4 -6 -2 1017.6 285.17 3
-4 5 2 433.622 154.611 1
-4 5 2 487.77 205.422 5
4 -5 -2 384.535 199.877 3
-4 4 2 2185.73 239.662 1
4 -4 -2 2824.96 348.182 3
-4 4 2 2191.32 313.185 5
4 -3 -2 379.654 161.286 5
-4 3 2 508.916 162.324 5
4 -3 -2 524.886 176.865 3
-4 3 2 502.372 124.382 1
4 -2 -2 84.5938 110.354 5
-4 2 2 276.231 133.614 5
-4 2 2 198.021 89.494 1
-4 2 2 138.33 147.647 6
4 -2 -2 285.085 143.824 3
-4 1 2 1308.41 155.896 1
4 -1 -2 1505.16 184.101 3
-4 1 2 1448.26 254.907 6
-4 1 2 1498.09 191.561 5
-4 0 2 1095.73 141.867 1
-4 0 2 1325.54 247.551 2
-4 0 2 1008.94 201.105 6
-4 0 2 1156.91 154.849 5
-4 -1 2 4131.53 269.841 1
-4 -1 2 4082.95 390.066 2
-4 -1 2 4196.55 376.298 6
-4 -1 2 4063.86 231.851 5
-4 -2 2 104.146 58.1507 5
-4 -2 2 214.498 106.466 1
-4 -2 2 85.9458 126.199 2
-4 -2 2 85.2102 125.654 6
-4 -3 2 3508.97 301.47 1
-4 -3 2 3755.66 379.842 2
-4 -3 2 2372.96 156.108 3
-4 -3 2 2177.33 145.297 3
-4 -3 2 2879.87 267.985 6
4 3 -2 3237.74 295.716 6
-4 -3 2 2338.63 140.959 5
-4 -3 2 2257.36 128.881 5
-4 -4 2 3809.75 342.838 1
-4 -4 2 3037.11 351.3 2
-4 -4 2 2772.67 228.583 3
-4 -4 2 3006.22 258.448 6
-4 -4 2 2043.97 217.866 3
4 4 -2 3275.45 324.207 1
4 4 -2 3079.95 283.487 6
-4 -4 2 2156.1 135.009 5
-4 -4 2 2075.78 131.731 5
-4 -5 2 26.9089 127.949 1
-4 -5 2 -23.6476 101.101 3
-4 -5 2 -15.4828 138.048 2
4 5 -2 25.6742 93.1643 6
-4 -6 2 1837.75 301.669 2
4 6 -2 1408.01 202.769 6
-4 -6 2 1474.22 248.481 3
-4 -6 2 2000.02 316.365 1
-4 -7 2 696.693 232.519 2
-4 -7 2 145.543 155.93 1
-4 -8 2 -38.8259 175.693 1
-4 -9 2 -130.789 173.559 1
-4 8 3 41.7001 165.17 5
4 -8 -3 253.201 225.255 3
-4 7 3 251.673 178.88 5
4 -7 -3 198.749 205.976 3
4 -6 -3 1413.81 318.848 3
-4 6 3 1712.78 323.69 5
-4 5 3 663.117 174.683 1
-4 5 3 601.747 214.837 5
4 -5 -3 691.07 222.402 3
-4 4 3 537.615 187.345 5
4 -4 -3 895.315 216.09 3
-4 4 3 497.016 147.959 1
4 -3 -3 2042.13 272.703 3
4 -3 -3 1695.22 263.578 5
-4 3 3 1446.9 184.032 1
-4 3 3 2001.46 278.161 5
-4 2 3 31.7649 127.034 5
4 -2 -3 182.497 111.503 3
4 -1 -3 3774.26 249.607 3
-4 1 3 3991.65 285.719 1
-4 1 3 4016.65 392.963 6
-4 1 3 4717.68 339.528 5
-4 0 3 922.467 153.677 5
-4 0 3 900.915 215.414 2
-4 0 3 438.305 117.696 1
-4 0 3 747.816 181.3 6
-4 -1 3 972.699 142.255 5
-4 -1 3 1156.04 173.071 1
-4 -1 3 876.694 204.975 2
-4 -1 3 1192.93 226.311 6
-4 -2 3 1559.1 220.586 1
-4 -2 3 1463.8 254.817 2
4 2 -3 1465.27 233.072 6
-4 -2 3 984.712 230.687 6
-4 -2 3 1532.53 157.128 5
-4 -3 3 208.761 82.3245 5
-4 -3 3 239.891 78.5119 5
-4 -3 3 448.553 159.299 1
-4 -3 3 408.33 152.674 6
4 3 -3 466.979 164.383 6
-4 -4 3 2377.38 290.284 1
-4 -4 3 2116.01 315.379 2
-4 -4 3 1803.45 174.933 3
-4 -4 3 2073.65 238.148 6
-4 -4 3 1256.75 163.368 3
4 4 -3 2351.7 267.296 6
4 4 -3 2075.65 269.843 1
-4 -4 3 1887.2 152.999 5
-4 -5 3 197.121 161.792 1
-4 -5 3 285.871 139.382 3
-4 -5 3 191.382 170.88 2
4 5 -3 434.047 147.722 6
-4 -6 3 470.551 206.964 1
-4 -6 3 417.898 169.929 3
4 6 -3 541.734 154.112 6
-4 -6 3 568.271 214.47 2
-4 -7 3 338.732 207.944 2
-4 -7 3 30.1703 148.056 1
-4 -8 3 -48.0142 161.304 1
-4 8 4 307.344 209.367 5
4 -8 -4 271.078 244.892 3
-4 7 4 509.269 230.369 5
4 -7 -4 437.231 240.426 3
-4 6 4 533.04 238.571 5
4 -6 -4 335.859 219.298 3
-4 5 4 1060.99 254.645 5
4 -5 -4 819.693 240.146 3
-4 5 4 612.369 161.39 1
-4 4 4 287.364 163.408 5
4 -4 -4 308.072 161.27 3
-4 4 4 304.347 129.872 1
-4 3 4 386.749 153.203 5
-4 3 4 305.229 109.894 1
4 -3 -4 620.279 182.447 3
-4 2 4 -290.895 166.021 5
4 -2 -4 327.661 147.439 3
4 -1 -4 2154.78 169.735 3
-4 1 4 2801.41 342.781 6
-4 1 4 3340.79 294.579 1
-4 1 4 3371.34 302.058 5
-4 0 4 -175.366 147.572 5
-4 0 4 120.071 134.868 2
-4 0 4 -81.7363 159.582 6
-4 0 4 42.1488 99.1019 1
-4 -1 4 3431.91 355.247 2
-4 -1 4 2827.37 267.956 1
-4 -1 4 3527.14 380.462 6
4 1 -4 3475.03 352.343 6
-4 -1 4 3392 258.917 5
-4 -2 4 6698.53 413.868 1
-4 -2 4 6655.12 478.537 2
-4 -2 4 5820.87 496.171 6
4 2 -4 6481.53 452.814 6
-4 -2 4 6326.15 321.48 5
-4 -3 4 348.292 89.9705 5
-4 -3 4 430.906 155.443 1
-4 -3 4 582.144 187.923 2
-4 -3 4 249.158 136.794 6
4 3 -4 489.198 148.092 6
-4 -4 4 4637.5 402.592 1
-4 -4 4 4371.01 419.522 2
-4 -4 4 3179.59 197.898 3
-4 -4 4 4120.01 342.618 6
-4 -4 4 2549.7 189.441 3
4 4 -4 4656.19 388.41 6
-4 -4 4 4293.54 260.918 5
-4 -5 4 1731.46 288.699 1
-4 -5 4 1582.96 284.72 2
-4 -5 4 1467.8 194.697 3
4 5 -4 1542.93 232.911 6
-4 -6 4 160.501 158.208 1
4 6 -4 96.2277 122.454 6
-4 -6 4 156.917 161.669 2
-4 -7 4 407.59 212.518 1
-4 -7 4 467.958 219.452 2
-4 -8 4 -415.096 215.571 1
-4 8 5 424.482 226.033 5
4 -8 -5 189.63 234.693 3
-4 7 5 838.9 275.959 5
4 -7 -5 527.289 242.576 3
-4 6 5 17.2844 156.026 5
4 -6 -5 156.769 190.036 3
-4 5 5 475.187 200.344 5
4 -5 -5 398.842 195.946 3
-4 4 5 149.535 146.204 5
-4 4 5 18.6538 94.1057 1
4 -4 -5 63.2607 129.923 3
-4 3 5 811.457 206.958 5
4 -3 -5 1194.9 209.258 3
4 -2 -5 4246.25 309.25 3
-4 2 5 2785.85 308.321 5
-4 1 5 1078.93 194.328 5
-4 1 5 768.706 203.683 2
4 -1 -5 587.016 82.9503 3
-4 1 5 892.227 221.799 6
-4 0 5 4330.71 395.407 2
-4 0 5 3600.16 314.251 1
-4 0 5 3813.04 396.315 6
-4 0 5 3861.45 312.473 5
-4 -1 5 1848.3 275.875 2
-4 -1 5 1332.66 206.551 1
-4 -1 5 2134.51 320.813 6
4 1 -5 1848.58 284.79 6
-4 -1 5 2040.12 220.688 5
-4 -2 5 1685.43 236.146 1
-4 -2 5 1903.34 275.713 2
4 2 -5 1669.46 258.779 6
-4 -2 5 1577.7 288.517 6
-4 -2 5 1486.9 172.509 5
-4 -3 5 1700.21 263.559 1
-4 -3 5 1322.65 263.276 2
-4 -3 5 1372.81 246.968 6
4 3 -5 1387.44 249.063 6
-4 -4 5 2.43266 50.1464 3
-4 -4 5 389.059 122.927 5
-4 -4 5 478.957 191.437 1
-4 -4 5 334.675 156.953 6
-4 -4 5 662.854 222.437 2
4 4 -5 500.878 183.241 6
-4 -4 5 253.318 65.8154 3
-4 -5 5 90.9513 154.168 1
4 5 -5 113.455 118.971 6
-4 -5 5 -53.3662 96.8038 3
-4 -5 5 216.693 168.413 2
-4 -6 5 157.795 171.702 1
4 6 -5 132.234 130.398 6
-4 -6 5 440.682 193.102 2
-4 -7 5 305.483 196.945 1
4 7 -5 158.059 153.098 6
-4 -8 5 14.4496 171.406 1
-4 8 6 58.1432 167.642 5
4 -8 -6 57.8266 178.565 3
-4 7 6 264.87 196.62 5
4 -7 -6 214.651 194.473 3
-4 6 6 -110.112 160.306 5
4 -6 -6 271.277 173.032 3
-4 5 6 26.4946 148.318 5
4 -5 -6 -151.175 154.427 3
-4 4 6 113.908 152.835 5
-4 4 6 216.655 115.435 1
4 -4 -6 391.625 172.022 3
-4 3 6 -16.5024 136.687 5
4 -3 -6 473.602 160.439 3
-4 2 6 1342.7 239.646 5
4 -2 -6 2586.68 254.608 3
-4 1 6 1006.2 209.494 5
-4 1 6 982.17 227.131 2
-4 0 6 3739.28 362.632 2
-4 0 6 3168.25 315.98 1
-4 0 6 3174.86 372.249 6
-4 0 6 3695.61 311.299 5
-4 -1 6 1244.71 205.73 1
-4 -1 6 1712.54 303.15 6
-4 -1 6 1469.12 237.05 2
4 1 -6 1798.44 278.708 6
-4 -1 6 1483.22 193.223 5
-4 -2 6 1551.08 246.2 1
-4 -2 6 2118.49 291.463 2
-4 -2 6 1830.56 331.235 6
4 2 -6 1787.07 281.905 6
-4 -2 6 1533.52 197.216 5
-4 -3 6 7600.7 509.636 1
-4 -3 6 6531.18 486.528 2
-4 -3 6 6068.35 466.832 6
4 3 -6 6959.21 507.196 6
-4 -4 6 -17.1155 82.1207 5
-4 -4 6 81.326 148.514 1
-4 -4 6 -102.214 106.47 6
-4 -4 6 122.965 145.961 2
4 4 -6 61.7759 112.32 6
-4 -5 6 1080.4 247.864 1
4 5 -6 1177.23 239.978 6
-4 -5 6 784.908 212.444 2
-4 -6 6 894.163 251.886 1
4 6 -6 782.073 221.473 6
-4 -6 6 952.226 245.18 2
-4 -7 6 22.3023 156.69 1
4 7 -6 82.8068 164.299 6
-4 -8 6 575.901 253.894 1
4 -8 -7 85.8901 191.142 3
-4 7 7 225.595 165.828 5
4 -7 -7 60.9254 158.441 3
-4 6 7 -55.2458 148.451 5
4 -6 -7 26.9362 140.689 3
-4 5 7 -54.6695 147.395 5
4 -5 -7 86.7493 129.977 3
-4 4 7 1077.02 247.018 5
4 -4 -7 1555.11 263.124 3
-4 3 7 -148.153 159.349 5
4 -3 -7 9.76658 105.176 3
4 -2 -7 5351.5 332.344 3
-4 2 7 4298.37 402.119 5
-4 1 7 1702.79 253.135 2
-4 1 7 2019.31 267.049 5
-4 0 7 142.276 118.553 5
-4 0 7 -238.444 165.718 2
-4 0 7 -175.842 147.589 1
4 0 -7 133.317 170.961 6
-4 -1 7 4949.35 408.796 2
-4 -1 7 5143.14 401.55 1
-4 -1 7 4541.91 473.61 6
4 1 -7 5047.46 461.968 6
-4 -1 7 4695.84 345.32 5
-4 -2 7 2763.47 325.627 2
-4 -2 7 2221.44 294.935 1
-4 -2 7 2384.2 364.159 6
4 2 -7 2549.16 339.825 6
-4 -2 7 2396.27 249.976 5
-4 -3 7 719.864 215.028 6
-4 -3 7 575.072 192.175 2
4 3 -7 818.29 224.225 6
-4 -3 7 592.482 192.281 1
-4 -4 7 144.165 102.02 5
-4 -4 7 357.385 186.064 1
4 4 -7 337.112 177.16 6
-4 -4 7 231.006 160.198 2
-4 -5 7 383.061 193.169 1
4 5 -7 279.467 176.384 6
-4 -5 7 488.664 184.579 2
-4 -6 7 466.085 216.779 1
4 6 -7 346.946 180.847 6
-4 -6 7 762.38 237.295 2
-4 -7 7 209.286 188.885 1
4 7 -7 359.454 206.156 6
-4 -8 7 455.369 239.698 1
4 -8 -8 72.1015 187.86 3
-4 7 8 -243.837 202.26 5
4 -7 -8 -129.857 170.019 3
-4 6 8 -118.27 170.395 5
4 -6 -8 63.4373 146.947 3
-4 5 8 -84.2622 150.244 5
4 -5 -8 238.432 160.186 3
-4 4 8 354.518 185.762 5
4 -4 -8 826.531 213.18 3
-4 3 8 308.392 186.205 5
4 -3 -8 433.552 159.168 3
-4 2 8 1078.32 231.168 5
4 -2 -8 1135.33 179.906 3
-4 2 8 493.054 169.851 2
-4 1 8 399.236 146.924 5
-4 1 8 331.381 144.013 2
-4 0 8 668.524 180.523 5
-4 0 8 270.898 169.276 1
-4 0 8 551.938 174.827 2
4 0 -8 900.885 253.925 6
-4 -1 8 8565.44 525.333 2
-4 -1 8 6989.51 483.865 1
4 1 -8 7895.25 593.453 6
-4 -1 8 8016.14 464.477 5
-4 -2 8 210.823 110.555 5
-4 -2 8 168.645 141.46 1
-4 -2 8 292.861 148.106 2
4 2 -8 265.189 166.599 6
-4 -3 8 3368.97 377.266 1
-4 -3 8 3129.94 350.029 2
4 3 -8 4147.09 450.113 6
-4 -4 8 2251.09 324.906 1
-4 -4 8 2044.92 293.771 2
4 4 -8 2158.13 336.865 6
-4 -5 8 -141.593 170.813 1
4 5 -8 119.05 157.171 6
-4 -5 8 114.844 151.638 2
-4 -6 8 1832.72 347.114 1
4 6 -8 1606.67 331.231 6
-4 -7 8 456.248 231.932 1
4 7 -8 193.41 178.983 6
-4 -8 8 73.9413 181.999 1
4 -8 -9 -145.795 177.526 3
-4 7 9 20.823 152.128 5
4 -7 -9 -156.47 167.888 3
-4 6 9 21.9642 136.78 5
4 -6 -9 130.277 157.97 3
-4 5 9 -57.6306 147.188 5
4 -5 -9 318.185 165.744 3
-4 4 9 1023.68 249.815 5
4 -4 -9 1082.85 225.316 3
4 -3 -9 2415.49 274.281 3
-4 3 9 2196.46 319.879 5
-4 2 9 90.4154 138.987 5
4 -2 -9 119.241 73.8067 3
-4 2 9 -70.2283 132.36 2
4 -2 -9 142.764 91.829 3
-4 1 9 2265.29 273.084 2
-4 1 9 2824.74 308.738 5
-4 0 9 6627.44 446.093 2
-4 0 9 5256.52 456.185 1
4 0 -9 6569.56 578.83 6
-4 0 9 6746.3 455.082 5
-4 -1 9 876.45 193.194 5
-4 -1 9 321.143 174.244 1
-4 -1 9 1157.21 225.858 2
4 1 -9 1125.93 280.199 6
-4 -2 9 996.777 225.982 1
-4 -2 9 868.653 212.182 2
4 2 -9 1136.46 275.298 6
-4 -3 9 122.08 159.179 1
-4 -3 9 231.094 154.17 2
4 3 -9 618.286 230.04 6
4 4 -9 299.774 185.387 6
-4 -4 9 258.056 175.006 1
-4 -4 9 459.041 182.388 2
-4 -5 9 334.737 214.883 1
4 5 -9 454.666 234.078 6
-4 -5 9 531.122 206.998 2
-4 -6 9 818.151 262.884 1
4 6 -9 714.84 262.958 6
-4 -7 9 252.558 208.491 1
4 7 -9 175.426 201.416 6
-4 -8 9 272.509 228.508 1
4 8 -9 -292.258 232.7 6
4 -8 -10 -90.2239 163.118 3
-4 7 10 172.251 181.404 5
4 -7 -10 -53.9977 146.227 3
-4 6 10 110.792 158.729 5
4 -6 -10 240.412 163.121 3
-4 5 10 672.75 231.554 5
4 -5 -10 905.485 231.405 3
-4 4 10 -96.0397 142.374 5
4 -4 -10 77.1065 135.338 3
-4 3 10 330.356 139.548 2
4 -3 -10 538.615 158.384 3
-4 2 10 814.157 210.484 5
4 -2 -10 715.242 132.063 3
4 -2 -10 1001.43 162.35 3
-4 2 10 644.486 166.828 2
4 -1 -10 830.735 88.2044 3
-4 1 10 1298.9 211.898 2
4 -1 -10 1608.96 324.871 6
-4 1 10 1591.18 261.842 5
-4 0 10 834.624 199.786 5
-4 0 10 528.558 196.643 1
-4 0 10 1094.04 207.196 2
4 0 -10 989.925 278.919 6
-4 -1 10 2669.67 307.374 2
-4 -1 10 2328.78 332.97 1
4 1 -10 2516.06 391.808 6
-4 -1 10 2290.22 287.962 5
-4 -2 10 3109.05 335.91 2
-4 -2 10 3570.86 383.315 1
4 2 -10 3396.27 431.541 6
-4 -3 10 469.594 190.846 1
4 3 -10 868.446 252.894 6
-4 -3 10 389.709 162.904 2
-4 -4 10 1743.74 283.482 2
4 4 -10 1754.56 337.891 6
-4 -4 10 1731.15 312.683 1
-4 -5 10 3005.62 413.947 1
4 5 -10 2697.54 417.737 6
-4 -6 10 74.2973 182.297 1
4 6 -10 132.18 175.346 6
-4 -7 10 1099.74 308.287 1
4 7 -10 205.595 199.026 6
4 8 -10 7.08835 207.104 6
4 -8 -11 -145.572 171.782 3
-4 7 11 -197.52 176.684 5
4 -7 -11 3.90722 138.46 3
-4 6 11 77.4472 146.134 5
4 -6 -11 127.708 150.031 3
-4 5 11 1124.86 270.567 5
4 -5 -11 921.912 222.107 3
-4 4 11 266.875 173.503 5
-4 4 11 43.9369 101.424 2
4 -4 -11 339.739 157.087 3
-4 3 11 219.167 163.042 5
4 -3 -11 349.161 120.985 3
-4 3 11 343.798 129.177 2
4 -3 -11 683.258 167.975 3
-4 2 11 1958.14 233.854 2
4 -2 -11 2171.22 214.915 3
4 -2 -11 1689.1 188.177 3
-4 2 11 2006.09 297.673 5
-4 1 11 199.071 136.228 5
-4 1 11 65.9599 105.732 2
4 -1 -11 -24.0362 52.7822 3
4 -1 -11 53.6068 50.439 3
-4 0 11 2681.58 287.015 2
4 0 -11 2972.72 437.872 6
-4 0 11 2143.14 335.903 1
-4 0 11 2833.03 333.865 5
-4 -1 11 682 204.121 5
-4 -1 11 472.756 210.086 1
-4 -1 11 996.968 215.112 2
4 1 -11 1208.87 326.89 6
-4 -2 11 98.1805 160.799 1
-4 -2 11 204.963 150.041 2
4 2 -11 125.839 186.808 6
-4 -3 11 1336.03 283.177 1
-4 -3 11 1685.16 264.75 2
4 3 -11 1797.42 349.665 6
4 4 -11 401.187 218.927 6
-4 -4 11 816.916 231.762 2
-4 -4 11 163.106 183.971 1
-4 -5 11 537.328 240.689 1
4 5 -11 266.442 196.196 6
-4 -6 11 524.809 240.576 1
4 6 -11 197.814 225.39 6
-4 -7 11 320.932 223.035 1
4 7 -11 200.348 201.059 6
4 8 -11 -0.43553 277.812 6
4 -8 -12 -453.455 215.362 3
4 -7 -12 266.88 201.348 3
-4 6 12 239.722 179.294 5
4 -6 -12 323.112 178.952 3
-4 5 12 -9.37326 135.752 5
4 -5 -12 136.695 144.972 3
-4 4 12 372.626 182.356 5
-4 4 12 274.106 117.888 2
4 -4 -12 226.697 133.34 3
-4 3 12 147.719 168.399 5
-4 3 12 62.3862 105.578 2
4 -3 -12 144.372 116.517 3
-4 2 12 474.641 184.667 5
4 -2 -12 140.352 97.296 3
-4 2 12 108.658 103.519 2
4 -2 -12 196.521 105.203 3
-4 1 12 186.955 154.424 5
-4 1 12 7.55873 104.182 2
4 -1 -12 102.519 60.4537 3
4 -1 -12 185.548 204.291 6
4 -1 -12 81.9268 62.2189 3
-4 0 12 2798.48 288.601 2
-4 0 12 2419.68 369.705 1
4 0 -12 2864.88 446.033 6
-4 0 12 2896.99 351.838 5
-4 -1 12 523.16 186.35 5
-4 -1 12 347.533 201.7 1
-4 -1 12 545.467 167.069 2
4 1 -12 765.096 267.173 6
-4 -2 12 405.155 209.937 1
4 2 -12 544.33 240.862 6
-4 -2 12 694.909 188.637 2
-4 -3 12 4409.89 467.014 1
-4 -3 12 4419.1 396.249 2
4 3 -12 4528 541.765 6
4 4 -12 -79.7202 192.233 6
-4 -4 12 -98.2874 186.985 1
-4 -5 12 3068.49 434.385 1
4 5 -12 1981.49 406.97 6
-4 -6 12 1095.17 300.377 1
4 6 -12 918.385 317.937 6
-4 -7 12 -88.7011 186.797 1
4 7 -12 -212.146 250.94 6
4 8 -12 552.669 324.24 6
4 -8 -13 -41.8654 147.859 3
4 -7 -13 118.095 152.105 3
-4 6 13 211.284 175.808 5
4 -6 -13 7.62344 120.713 3
-4 5 13 45.726 145.199 5
4 -5 -13 105.143 124.637 3
-4 4 13 -70.1054 164.598 5
4 -4 -13 305.969 148.248 3
-4 3 13 299.193 173.234 5
-4 3 13 443.54 120.684 2
4 -3 -13 376.711 141.403 3
-4 2 13 1268.04 177.663 2
4 -2 -13 928.276 159.384 3
-4 2 13 1651.25 288.555 5
-4 1 13 1948.16 227.138 2
4 -1 -13 1714.51 161.196 3
4 -1 -13 1392.15 160.326 3
4 -1 -13 1650.82 372.173 6
-4 1 13 2376.49 338.496 5
-4 0 13 199.122 163.234 5
-4 0 13 -212.536 229.141 1
-4 0 13 125.161 112.892 2
4 0 -13 109.976 199.393 6
-4 -1 13 1491.79 283.031 5
-4 -1 13 1699.35 237.528 2
-4 -1 13 1401.64 317.035 1
4 1 -13 1647.38 362.111 6
-4 -2 13 1724.13 248.896 2
4 2 -13 2296.13 435.083 6
-4 -2 13 1486.93 312.931 1
-4 -3 13 1040.43 267.919 1
4 3 -13 663.822 288.16 6
-4 -3 13 1012.47 227.155 2
-4 -4 13 113.617 183.591 1
4 4 -13 269.095 219.711 6
4 5 -13 454.809 270.443 6
-4 -5 13 478.712 239.287 1
-4 -6 13 81.5312 196.762 1
4 6 -13 345.516 236.591 6
-4 -7 13 265.028 217.791 1
4 7 -13 367.712 269.635 6
4 8 -13 100.547 284.954 6
4 -8 -14 309.193 214.103 3
4 -7 -14 72.2312 148.197 3
-4 6 14 9.90778 144.695 5
4 -6 -14 19.8391 122.637 3
-4 5 14 53.239 161.113 5
4 -5 -14 93.514 126.977 3
-4 4 14 -293.973 188.582 5
4 -4 -14 220.777 137.97 3
-4 3 14 80.504 145.412 5
-4 3 14 291.137 102.18 2
-4 2 14 931.349 246.869 5
-4 2 14 617.975 134.166 2
-4 1 14 983.073 250.339 5
-4 1 14 549.44 133.881 2
4 -1 -14 860.737 315.861 6
-4 0 14 252.525 176.471 5
-4 0 14 -382.523 239.015 1
-4 0 14 94.25 110.273 2
4 0 -14 176.082 234.322 6
-4 -1 14 1479.71 287.566 5
-4 -1 14 1780.63 230.916 2
-4 -1 14 1339.12 322.017 1
4 1 -14 1759.12 395.983 6
4 2 -14 1043.24 332.624 6
-4 -2 14 834.455 261.334 1
-4 -2 14 806.875 188.538 2
-4 -3 14 3160.56 433.809 1
4 3 -14 2711.77 463.029 6
-4 -4 14 2673.47 417.802 1
4 4 -14 2620.63 449.326 6
4 5 -14 -168.796 225.206 6
-4 -5 14 -339.816 220.111 1
-4 -6 14 1015.34 314.435 1
4 6 -14 1035.63 378.795 6
4 7 -14 672.631 334.689 6
4 -7 -15 49.7102 133.179 3
-4 6 15 16.6976 142.881 5
4 -6 -15 189.682 159.612 3
-4 5 15 140.081 163.855 5
4 -5 -15 35.3105 134.441 3
-4 4 15 139.135 160.611 5
-4 3 15 630.866 219.901 5
-4 2 15 235.46 166.641 5
-4 2 15 -44.4698 84.4869 2
4 -2 -15 12.357 193.547 6
-4 1 15 1012.48 263.483 5
-4 1 15 721.3 144.13 2
4 -1 -15 1064.11 352.105 6
-4 0 15 1712.72 355.458 1
-4 0 15 1745.19 209.508 2
4 0 -15 2002.24 447.195 6
-4 0 15 1883.97 339.497 5
-4 -1 15 14.907 156.926 5
-4 -1 15 -100.703 204.636 1
4 1 -15 217.96 238.025 6
-4 -1 15 201.488 122.991 2
-4 -2 15 2280.34 386.958 1
4 2 -15 2063.24 448.082 6
-4 -3 15 452.073 246.273 1
4 3 -15 465.029 281.352 6
-4 -4 15 40.7452 183.073 1
4 4 -15 163.569 201.647 6
4 5 -15 96.645 199.138 6
-4 -5 15 220.458 210.809 1
-4 -6 15 235.436 210.029 1
4 6 -15 342.237 265.048 6
4 7 -15 397.398 307.24 6
4 -7 -16 18.5591 146.172 3
4 -6 -16 77.2969 131.898 3
-4 5 16 163.669 185.212 5
-4 4 16 -96.4155 166.323 5
-4 3 16 125.669 166.648 5
-4 2 16 63.6129 160.174 5
4 -2 -16 37.61 210.142 6
-4 1 16 349.332 209.31 5
4 -1 -16 366.707 273.442 6
-4 0 16 379.619 209.666 5
-4 0 16 121.023 200.756 1
4 0 -16 559.5 304.177 6
-4 -1 16 249.511 199.084 5
-4 -1 16 345.197 240.763 1
4 1 -16 646.885 293.146 6
-4 -2 16 3457.54 481.976 1
4 2 -16 3081.87 520.728 6
-4 -3 16 -5.68176 190.313 1
4 3 -16 -180.629 235.19 6
-4 -4 16 950.214 298.684 1
4 4 -16 1133.69 334.209 6
-4 -5 16 2483.81 434.888 1
4 5 -16 2277.33 450.701 6
-4 -6 16 233.433 211.538 1
4 6 -16 87.6641 238.153 6
4 -6 -17 257.614 174.179 3
-4 5 17 134.262 172.69 5
-4 4 17 -305.399 196.425 5
-4 3 17 432.219 211.826 5
-4 2 17 878.93 268.93 5
4 -2 -17 1154.8 358.745 6
-4 1 17 149.98 181.667 5
4 -1 -17 202.13 258.682 6
-4 0 17 986.19 300.42 5
-4 0 17 420.544 249.294 1
4 0 -17 1351.6 410.655 6
-4 -1 17 1472.79 370.515 1
4 1 -17 1853.75 437.92 6
-4 -1 17 1840.14 356.772 5
4 2 -17 -350.128 280.901 6
-4 -2 17 -144.696 219.239 1
-4 -3 17 353.765 233.635 1
4 3 -17 379.023 258.875 6
-4 -4 17 186.001 218.757 1
4 4 -17 554.419 310.644 6
4 5 -17 96.5581 209.494 6
-4 -5 17 158.604 207.03 1
4 6 -17 193.836 251.587 6
-4 4 18 15.2898 159.756 5
-4 3 18 242.845 189.754 5
-4 2 18 433.779 223.003 5
4 -2 -18 244.887 249.14 6
-4 1 18 290.032 215.66 5
4 -1 -18 695.626 330.563 6
-4 0 18 978.915 302.502 5
4 0 -18 1083.72 389.598 6
-4 0 18 922.189 326.743 1
-4 -1 18 -159.401 262.172 1
4 1 -18 216.246 248.697 6
4 2 -18 920.99 347.128 6
-4 -2 18 530.576 262.544 1
-4 -3 18 2342.36 438.243 1
4 3 -18 2070.79 443.425 6
-4 -4 18 803.253 293.957 1
4 4 -18 551.901 267.779 6
4 5 -18 891.384 327.435 6
-4 -5 18 1408.07 372.317 1
-4 4 19 111.938 191.535 5
-4 3 19 198.954 186.747 5
-4 2 19 283.159 219.834 5
4 -2 -19 347.51 273.933 6
-4 1 19 2002.07 400.287 5
-4 1 19 1566.84 381.648 1
4 -1 -19 1745.11 479.114 6
-4 0 19 139.146 201.735 5
-4 0 19 -27.7028 223.478 1
4 0 -19 22.3057 249.8 6
-4 -1 19 392.821 269.515 1
4 1 -19 267.917 263.896 6
4 2 -19 1272.38 407.392 6
-4 -2 19 628.456 296.678 1
-4 -3 19 -40.2197 200.054 1
4 3 -19 184.751 206.078 6
-4 -4 19 579.646 274.35 1
4 4 -19 326.676 255.147 6
-4 3 20 239.548 204 5
-4 2 20 400.411 246.994 5
4 -2 -20 443.156 310.431 6
-4 1 20 388.779 249.769 5
-4 1 20 -31.0658 215.199 1
4 -1 -20 777.664 346.406 6
-4 0 20 -277.39 250.542 5
-4 0 20 -103.254 220.657 1
4 0 -20 -5.39229 244.368 6
-4 -1 20 972.619 303.219 5
-4 -1 20 1113.94 361.913 1
4 1 -20 873.288 337.73 6
4 2 -20 54.1095 227.082 6
-4 -2 20 -80.8496 219.235 1
-4 -3 20 799.366 314.667 1
4 3 -20 404.616 255.67 6
-4 2 21 378.976 247.405 5
4 -2 -21 239.657 268.731 6
-4 1 21 142.359 192.07 5
-4 1 21 438.965 259.452 1
4 -1 -21 405.605 303.069 6
-4 0 21 911.916 307.742 5
-4 0 21 1281.02 363.298 1
4 0 -21 1343.96 432.449 6
-4 -1 21 -47.8226 166.244 5
-4 -1 21 -249.78 259.82 1
4 1 -21 135.829 221.224 6
4 2 -21 602.514 278.405 6
-4 -2 21 762.551 324.182 1
-4 1 22 378.966 259.776 5
-4 1 22 270.014 248.274 1
-4 0 22 -17.3531 169.729 5
-4 0 22 504.706 265.803 1
-4 -1 22 -397.532 228.229 5
-4 -1 22 -169.805 245.223 1
5 -2 16 267.763 259.106 3
5 -1 16 90.1113 202.119 3
5 0 16 1.85119 182.555 3
5 -3 15 -187.94 240.115 3
5 -2 15 342.806 257.993 3
5 -1 15 0.32155 204.243 3
5 0 15 -183.501 198.541 3
5 -3 14 -331.892 264.224 3
5 -2 14 16.5481 187.13 3
5 -1 14 245.544 243.037 3
5 0 14 26.077 170.934 3
5 -4 13 420.883 290.825 3
5 -3 13 555.481 299.189 3
5 -2 13 1.93194 187.117 3
5 -1 13 367.692 255.598 3
5 0 13 278.476 202.822 3
-5 -1 -13 -389.925 253.512 2
-5 -2 -13 -139.932 209.6 2
5 -5 12 -130.146 230.423 3
5 -4 12 9.58852 217.091 3
5 -3 12 -1.77498 210.235 3
5 -2 12 -269.298 226.556 3
5 -1 12 -121.259 189.918 3
5 0 12 392.96 210.762 3
-5 -1 -12 -280.933 228.867 2
-5 -2 -12 -186.917 220.657 2
-5 -3 -12 151.722 227.596 2
5 -5 11 163.83 219.204 3
5 -4 11 1029.13 363.428 3
5 -3 11 -294.592 255.622 3
5 -2 11 523.512 259.78 3
5 -1 11 11.4922 164.752 3
5 0 11 207.877 177.979 3
-5 -1 -11 -213.067 236.359 2
-5 -2 -11 -435.528 253.513 2
-5 -3 -11 171.481 232.897 2
5 -5 10 -78.7327 209.833 3
5 -4 10 338.093 282.99 3
5 -3 10 44.0791 199.319 3
5 -2 10 168.823 187.554 3
5 -1 10 -104.465 168.339 3
5 0 10 286.366 176.339 3
-5 -1 -10 132.851 203.487 2
-5 -2 -10 51.023 204.691 2
-5 -3 -10 346.698 246.056 2
-5 -4 -10 149.815 199.979 2
5 -6 9 428.51 276.612 3
5 -5 9 37.2507 191.654 3
5 -4 9 364.637 249.56 3
5 -3 9 449.047 270.641 3
5 -2 9 -214.743 202.113 3
5 -1 9 740.954 258.258 3
5 0 9 269.264 158.459 3
-5 -1 -9 346.992 220.785 2
-5 -2 -9 228.551 228.931 2
-5 -3 -9 154.997 223.104 2
-5 -4 -9 28.5846 188.416 2
5 -6 8 277.906 238.78 3
5 -5 8 1.58312 189.41 3
5 -4 8 3.49529 205.906 3
5 -3 8 112.396 221.445 3
5 -2 8 -380.026 231.814 3
5 -1 8 1149.62 297.983 3
5 0 8 -5.17845 133.433 3
-5 -1 -8 394.236 233.106 2
-5 -2 -8 279.408 208.503 2
-5 -3 -8 18.0934 175.367 2
-5 -4 -8 331.321 226.796 2
5 -6 7 17.7163 185.196 3
5 -5 7 -107.807 190.385 3
5 -4 7 -3.32981 172.04 3
5 -3 7 247.077 215.142 3
5 -2 7 -103.508 201.588 3
5 -1 7 1373.33 303.863 3
5 0 7 649.917 202.06 3
-5 -1 -7 -161.454 208.968 2
-5 -2 -7 24.0311 185.32 2
-5 -3 -7 225.936 216.68 2
-5 -4 -7 269.729 206.243 2
-5 7 -6 199.227 190.207 5
5 -7 6 52.6927 232.756 3
-5 6 -6 -124.185 150.564 5
5 -6 6 -6.08427 186.756 3
-5 5 -6 -69.8108 137.665 5
5 -5 6 -112.137 184.157 3
5 -4 6 410.423 237.792 3
5 -3 6 95.4063 195.374 3
5 -2 6 714.415 262.658 3
5 -1 6 238.286 176.412 3
5 0 6 398.217 169.62 3
-5 -1 -6 -282.725 230.841 2
-5 -2 -6 65.13 168.347 2
-5 -3 -6 825.17 277.518 2
-5 -4 -6 393.208 225.871 2
-5 -5 -6 603.611 244.07 2
-5 7 -5 220.248 172.992 5
5 -7 5 -148.364 182.781 3
-5 6 -5 -25.5984 133.754 5
5 -6 5 -291.485 213.393 3
-5 5 -5 299.415 170.717 5
5 -5 5 -37.7211 187.658 3
-5 4 -5 309.132 165.412 5
5 -4 5 561.794 247.638 3
5 -3 5 6.83047 179.886 3
-5 3 -5 260.833 142.543 5
5 -2 5 2115.57 380.646 3
5 -1 5 302.254 165.68 3
5 0 5 233.818 131.947 3
-5 -1 -5 878.384 278.75 2
-5 -2 -5 56.8677 172.446 2
-5 -3 -5 1089.62 301.84 2
-5 -4 -5 548.908 234.422 2
-5 -5 -5 -64.03 174.482 2
-5 7 -4 -151.667 166.321 5
5 -7 4 -18.3645 178.659 3
-5 6 -4 -46.4056 143.714 5
5 -6 4 159.624 190.434 3
-5 5 -4 -213.025 158.13 5
5 -5 4 63.412 169.001 3
-5 4 -4 762.223 214.78 5
5 -4 4 1256.91 320.837 3
5 -3 4 474.785 230.171 3
-5 3 -4 583.972 177.786 5
5 -2 4 767.995 273.129 3
-5 2 -4 852.465 183.481 5
5 -1 4 -23.4331 140.331 3
5 0 4 -89.5967 105.621 3
-5 -1 -4 1644.07 342.748 2
-5 -2 -4 -238.195 190.381 2
-5 -3 -4 858.002 270.717 2
-5 -4 -4 145.894 177.497 2
-5 -5 -4 -426.095 220.264 2
-5 7 -3 -46.5026 145.035 5
5 -7 3 135.601 217.989 3
-5 6 -3 144.5 164.272 5
5 -6 3 211.547 201.466 3
-5 5 -3 237.131 175.996 5
5 -5 3 204.808 192.017 3
-5 4 -3 1291.02 257.439 5
5 -4 3 1843.16 361.727 3
5 -3 3 911.182 284.537 3
-5 3 -3 857.459 199.439 5
5 -2 3 -78.062 175.443 3
-5 2 -3 150.899 110.583 5
5 -1 3 646.855 193.403 3
-5 1 -3 712.955 140.888 5
5 0 3 184.104 122.955 3
-5 -1 -3 1500.81 324.943 2
-5 -2 -3 287.323 206.381 2
-5 -3 -3 238.07 185.324 2
-5 -4 -3 370.271 200.043 2
-5 -5 -3 21.85 164.525 2
-5 7 -2 193.448 176.293 5
5 -7 2 -273.865 212.973 3
-5 6 -2 213.567 179.569 5
5 -6 2 266.187 208.319 3
-5 5 -2 676.412 217.778 5
5 -5 2 808.125 279.138 3
-5 4 -2 335.837 177.25 5
5 -4 2 497.225 227.327 3
-5 3 -2 257.074 142.908 5
5 -3 2 76.7983 159.29 3
5 -2 2 -27.9854 170.402 3
-5 2 -2 8.87558 98.9454 5
5 -1 2 172.256 133.635 3
-5 1 -2 553.949 128.717 5
-5 0 -2 367.906 185.391 2
-5 -1 -2 494.322 206.608 2
-5 -2 -2 506.049 223.768 2
-5 -3 -2 131.746 171.509 2
-5 -4 -2 740.006 249.176 2
-5 -5 -2 245.385 181.52 2
-5 7 -1 -44.6212 145.573 5
5 -7 1 0.30534 183.891 3
-5 6 -1 -81.2084 142.229 5
5 -6 1 -224.074 195.54 3
-5 5 -1 929.34 245.296 5
5 -5 1 914.636 279.293 3
-5 4 -1 138.143 139.574 5
5 -4 1 20.2336 144.042 3
-5 3 -1 641.419 181.256 5
5 -3 1 361.233 202.315 3
5 -2 1 765.18 230.452 3
-5 2 -1 677.117 156.923 5
5 -1 1 9.30725 103.317 3
-5 1 -1 154.864 106.658 5
-5 0 -1 1989.73 348.292 2
-5 0 -1 1674.38 266.694 6
-5 0 -1 1566.63 146.588 5
-5 -1 -1 207.587 175.105 2
-5 -2 -1 345.651 187.392 2
-5 -3 -1 285.78 182.379 2
-5 -4 -1 205.401 176.165 2
-5 -5 -1 0.90834 163.803 2
-5 7 0 167.508 153.912 5
5 -7 0 606.014 278.18 3
-5 6 0 291.511 182.944 5
5 -6 0 6.65962 145.388 3
-5 5 0 550.302 195.854 5
5 -5 0 452.712 214.335 3
-5 4 0 454.75 181.103 5
5 -4 0 202.26 170.372 3
-5 3 0 398.202 159.724 5
5 -3 0 99.6284 170.436 3
5 -2 0 1152.85 265.45 3
-5 2 0 1189.01 205.964 5
5 -1 0 99.4764 99.7819 3
-5 1 0 393.815 127.487 5
-5 0 0 1994.63 345.69 2
-5 0 0 1665.64 273.344 6
-5 0 0 1464.74 152.175 5
-5 -1 0 -114.142 172.604 2
-5 -2 0 649.406 232.69 2
-5 -3 0 896.541 261.95 2
-5 -4 0 365.789 187.626 2
-5 -5 0 694.518 242.479 2
-5 7 1 166.329 175.194 5
5 -7 -1 419.737 237.66 3
-5 6 1 614.177 221.749 5
5 -6 -1 0.25761 159.292 3
-5 5 1 287.798 166.027 5
5 -5 -1 -84.572 155.669 3
-5 4 1 420.187 175.109 5
5 -4 -1 514.732 230.337 3
-5 3 1 299.097 148.906 5
5 -3 -1 289.235 186.732 3
5 -2 -1 2122.34 326.376 3
-5 2 1 1699.94 242.956 5
5 -1 -1 377.566 109.382 3
-5 1 1 720.056 155.403 5
-5 0 1 786.75 134.871 5
-5 0 1 974.932 252.117 2
-5 0 1 641.605 201.705 6
-5 -1 1 719.26 215.176 2
-5 -1 1 903.992 229.566 6
-5 -2 1 166.918 169.362 2
-5 -3 1 1009.86 254.376 2
-5 -4 1 49.2799 152.488 2
-5 -5 1 208.613 188.673 2
-5 7 2 457.594 210.359 5
5 -7 -2 334.747 217.153 3
-5 6 2 404.369 206.194 5
5 -6 -2 425.129 213.02 3
-5 5 2 109.289 154.297 5
5 -5 -2 -6.12062 134.084 3
-5 4 2 304.778 165.749 5
5 -4 -2 650.398 225.31 3
-5 3 2 1062.6 228.461 5
5 -3 -2 1241.87 265.01 3
5 -2 -2 926.743 220.184 3
-5 2 2 627.035 175.594 5
5 -1 -2 127.458 59.1104 3
-5 1 2 55.0303 111.607 5
-5 1 2 36.8783 149.842 2
-5 0 2 -16.6649 84.24 5
-5 0 2 110.342 169.398 2
-5 0 2 86.8237 56.0359 1
-5 -1 2 495.516 92.841 5
-5 -1 2 591.894 107.913 1
-5 -1 2 545.499 205.776 2
-5 -1 2 722.685 207.714 6
-5 -2 2 372.877 105.093 1
-5 -2 2 350.57 180.759 2
-5 -3 2 1211.76 193.933 1
-5 -3 2 1654.45 311.104 2
-5 -4 2 250.129 180.384 2
-5 -5 2 91.521 157.691 2
-5 7 3 -4.54275 138.147 5
5 -7 -3 169.698 176.896 3
-5 6 3 321.245 208.035 5
5 -6 -3 359.254 194.91 3
-5 5 3 166.389 171.303 5
5 -5 -3 318.659 200.028 3
-5 4 3 286.321 176.464 5
5 -4 -3 278.035 197.247 3
-5 3 3 919.111 226.617 5
5 -3 -3 1615.11 284.02 3
5 -2 -3 202.745 135.962 3
-5 2 3 154.573 129.386 5
-5 2 3 134.684 107.131 1
-5 1 3 1252.39 206.457 5
-5 1 3 806.91 137.033 1
-5 1 3 787.072 232.796 2
-5 0 3 452.814 125.584 5
-5 0 3 385.006 193.734 2
-5 0 3 343.33 102.769 1
-5 -1 3 79.6289 74.5259 5
-5 -1 3 371.844 120.58 1
-5 -1 3 57.9923 146.571 2
-5 -2 3 1816.76 213.554 1
-5 -2 3 1572.8 296.48 2
-5 -3 3 355.138 156.172 1
-5 -3 3 670.954 226.335 2
-5 -4 3 -51.3915 129.679 1
-5 -4 3 124.814 150.94 2
5 4 -3 194.526 120.958 6
-5 -5 3 82.8128 152.045 2
-5 7 4 200.862 191.179 5
5 -7 -4 186.608 188.273 3
-5 6 4 84.1617 169.849 5
5 -6 -4 163.248 147.995 3
-5 5 4 176.662 173.901 5
5 -5 -4 566.439 219.358 3
-5 4 4 -94.236 141.479 5
5 -4 -4 29.675 148.327 3
-5 3 4 346.877 177.312 5
5 -3 -4 775.952 229.657 3
5 -2 -4 -29.4861 94.9784 3
-5 2 4 196.229 157.317 5
-5 2 4 158.446 135.362 1
-5 1 4 199.43 126.367 5
-5 1 4 103.615 148.6 2
-5 1 4 404.566 132.787 1
-5 0 4 643.407 140.977 1
-5 0 4 720.632 153.879 5
-5 0 4 494.865 197.515 2
-5 -1 4 295.562 116.273 5
-5 -1 4 364.383 179.586 2
-5 -1 4 172.111 108.673 1
-5 -2 4 1486.39 222.469 1
-5 -2 4 1850.35 308.787 2
-5 -3 4 199.504 137.178 1
-5 -3 4 503.393 196.89 2
-5 -4 4 823.074 210.924 1
-5 -4 4 604.849 209.548 2
5 4 -4 726.444 188.79 6
-5 -5 4 472.076 176.105 1
-5 -5 4 448.859 207.626 2
5 -7 -5 141.46 162.913 3
-5 6 5 67.6757 160.985 5
5 -6 -5 177.213 177.167 3
-5 5 5 86.4881 159.7 5
5 -5 -5 316.233 182.949 3
-5 4 5 201.835 167.66 5
5 -4 -5 293.401 164.082 3
-5 3 5 1099.38 249.335 5
5 -3 -5 1200.05 243.995 3
-5 2 5 472.9 176.624 5
-5 2 5 224.455 168.137 2
-5 2 5 362.577 148.748 1
-5 1 5 -7.83927 102.875 1
-5 1 5 -22.9819 116.209 5
-5 0 5 1987.31 324.735 2
-5 0 5 1562.95 218.984 1
-5 0 5 2121.75 253.068 5
-5 -1 5 657.771 151.133 5
-5 -1 5 552.833 207.44 2
-5 -1 5 373.675 141.261 1
-5 -2 5 727.406 142.42 5
-5 -2 5 741.497 189.784 1
-5 -2 5 725.809 219.495 2
-5 -3 5 795.033 197.747 1
-5 -3 5 571.016 207.223 2
5 3 -5 863.097 206.376 6
-5 -4 5 43.3769 135.715 1
-5 -4 5 -19.3883 135.5 2
5 4 -5 221.287 159.362 6
-5 -5 5 164.994 150.881 1
-5 -5 5 324.173 196.085 2
-5 -6 5 -79.3118 153.035 1
-5 6 6 140.17 178.844 5
5 -6 -6 102.859 152.489 3
-5 5 6 62.8997 156.909 5
5 -5 -6 433.605 195.996 3
-5 4 6 571.628 216.16 5
5 -4 -6 689.555 220.677 3
-5 3 6 87.7857 146.753 5
-5 2 6 289.916 147.18 5
-5 2 6 87.0926 143.476 2
-5 1 6 292.037 153.499 5
-5 1 6 216.736 133.337 1
-5 1 6 71.9054 157.612 2
-5 0 6 1033.09 207.819 5
-5 0 6 696.243 172.013 1
-5 0 6 1082.11 257.062 2
-5 -1 6 403.187 149.544 1
-5 -1 6 502.399 138.231 5
-5 -1 6 235.817 164.011 2
-5 -2 6 1373.58 278.795 2
-5 -2 6 898.247 213.685 1
5 2 -6 1206.46 251.235 6
-5 -2 6 1076.83 171.901 5
-5 -3 6 1102.16 239.825 1
-5 -3 6 787.026 231.767 2
5 3 -6 977.931 225.74 6
-5 -4 6 25.3737 143.019 1
-5 -4 6 -24.2874 142.46 2
5 4 -6 -84.3489 111.177 6
-5 -5 6 682.207 209.281 1
-5 -5 6 646.072 212.714 2
-5 -6 6 100.532 159.174 1
-5 6 7 201.508 187.841 5
-5 5 7 229.905 177.876 5
-5 4 7 383.805 200.224 5
-5 3 7 -38.5634 144.469 5
-5 2 7 467.849 179.402 5
-5 2 7 203.967 154.623 2
-5 1 7 1478.68 254.806 5
-5 1 7 1299.12 268.576 2
-5 1 7 1332.49 257.558 1
-5 0 7 439.994 161.425 5
-5 0 7 531.082 192.354 2
-5 0 7 377.762 157.684 1
-5 -1 7 2097.38 316.374 2
-5 -1 7 2027.7 282.859 1
-5 -1 7 2171.69 255.991 5
-5 -2 7 431.23 134.337 5
-5 -2 7 341.572 180.979 2
5 2 -7 405.625 177.999 6
-5 -2 7 172.871 155.918 1
-5 -3 7 161.998 156.059 1
-5 -3 7 239.661 166.474 2
5 3 -7 266.179 171.433 6
-5 -4 7 533.187 205.665 1
-5 -4 7 474.205 191.57 2
5 4 -7 539.906 196.581 6
-5 -5 7 64.8771 144.906 1
5 5 -7 129.511 147.033 6
-5 -5 7 209.348 176.237 2
-5 -6 7 119.139 171.676 1
-5 -7 7 -83.8345 166.79 1
-5 6 8 97.2672 174.766 5
-5 5 8 82.5037 159.219 5
-5 4 8 -0.20656 148.015 5
-5 3 8 178.899 157.463 5
-5 3 8 256.516 164.781 2
-5 2 8 148.954 146.839 5
-5 2 8 -193.453 176.571 2
-5 1 8 909.921 216.952 5
-5 1 8 899.994 228.794 2
-5 1 8 815.886 227.127 1
-5 0 8 237.001 139.13 5
-5 0 8 412.226 187.442 2
-5 0 8 180.84 168.638 1
-5 -1 8 684.402 170.813 5
-5 -1 8 550.823 194.884 1
-5 -1 8 952.383 232.026 2
5 1 -8 965.782 251.642 6
-5 -2 8 187.652 160.873 1
-5 -2 8 317.231 120.827 5
-5 -2 8 -124.023 166.724 2
5 2 -8 213.053 164.735 6
-5 -3 8 438.007 137.86 5
-5 -3 8 649.075 215.536 1
-5 -3 8 643.911 221.823 2
5 3 -8 514.889 208.161 6
-5 -4 8 1086.94 260.835 1
-5 -4 8 927.313 237.713 2
5 4 -8 1023.48 247.045 6
-5 -5 8 82.9161 155.115 1
5 5 -8 46.8889 123.084 6
-5 -5 8 125.781 159.54 2
-5 -6 8 521.289 233.337 1
-5 -7 8 377.134 218.195 1
-5 6 9 21.1803 155.054 5
-5 5 9 27.5326 139.924 5
-5 4 9 -62.0848 152.554 5
-5 3 9 381.014 184.427 5
-5 3 9 194.855 146.903 2
-5 2 9 36.0177 132.095 5
-5 2 9 6.37465 130.922 2
-5 1 9 1608.66 270.592 5
-5 1 9 1253.78 292.688 1
-5 1 9 1449.17 269.136 2
-5 0 9 491.406 204.088 1
-5 0 9 552.729 179.027 5
-5 0 9 628.464 201.21 2
-5 -1 9 270.109 130.568 5
-5 -1 9 70.5421 150.03 1
-5 -1 9 188.598 153.298 2
5 1 -9 28.6774 138.698 6
-5 -2 9 1056.82 255.706 1
-5 -2 9 1435.2 279.167 2
5 2 -9 1204.43 280.277 6
-5 -2 9 1270.15 205.463 5
-5 -3 9 218.684 111.158 5
-5 -3 9 330.81 199.265 2
5 3 -9 -85.4935 145.479 6
-5 -3 9 329.019 190.208 1
-5 -4 9 539.425 227.308 1
-5 -4 9 661.736 222.765 2
5 4 -9 293.695 187.681 6
-5 -5 9 413.403 206.959 1
5 5 -9 95.5386 143.668 6
-5 -5 9 538.822 230.63 2
-5 -6 9 109.977 163.73 1
-5 -7 9 10.9836 180.391 1
-5 6 10 360.843 212.186 5
-5 5 10 319.842 188.529 5
-5 4 10 -44.1603 155.545 5
-5 4 10 -79.7925 138.991 2
-5 3 10 43.3513 138.497 5
-5 3 10 26.8439 125.411 2
-5 2 10 322.598 180.366 5
-5 2 10 265.288 158.827 2
-5 1 10 204.216 165.295 5
-5 1 10 197.513 195.619 1
-5 1 10 282.35 165.771 2
-5 0 10 645.575 188.802 5
-5 0 10 322.473 187.67 1
-5 0 10 295.83 162.969 2
-5 -1 10 252.352 135.276 5
-5 -1 10 101.178 155.593 1
-5 -1 10 -64.3733 138.222 2
5 1 -10 154.463 183.372 6
-5 -2 10 1554.18 303.295 1
-5 -2 10 1554.97 282.681 2
5 2 -10 1365.74 319.669 6
-5 -2 10 1550.38 239.974 5
-5 -3 10 142.315 102.476 5
-5 -3 10 166.13 156.892 2
5 3 -10 237.345 170.597 6
-5 -3 10 297.92 188.781 1
-5 -4 10 1045.75 286.725 1
5 4 -10 879.266 267.955 6
-5 -4 10 814.694 233.799 2
-5 -5 10 439.737 204.685 1
5 5 -10 158.321 149.41 6
-5 -5 10 675.109 238.748 2
-5 -6 10 159.156 171.168 1
-5 5 11 399.019 211.208 5
-5 4 11 128.833 163.8 5
-5 3 11 165.4 151.913 5
-5 3 11 -30.823 127.852 2
-5 2 11 936.524 241.28 5
-5 2 11 1060.48 224.107 2
-5 1 11 -59.5031 146.111 5
-5 1 11 -352.89 234.599 1
-5 1 11 49.2291 119.643 2
-5 0 11 1235.06 309.757 1
-5 0 11 1275.84 248.577 2
-5 0 11 1475.95 255.821 5
-5 -1 11 861.638 206.601 5
-5 -1 11 672.947 246.454 1
-5 -1 11 871.26 229.168 2
5 1 -11 901.32 278.144 6
-5 -2 11 758.034 188.273 5
-5 -2 11 902.089 253.818 1
-5 -2 11 397.528 180.417 2
5 2 -11 799.506 295.751 6
-5 -3 11 1178.02 224.584 5
-5 -3 11 777.308 222.042 2
5 3 -11 1347.61 316.858 6
-5 -3 11 1268.48 293.597 1
-5 -4 11 602.169 245.755 1
5 4 -11 99.2676 185.978 6
-5 -4 11 522.967 217.885 2
-5 -5 11 -218.09 201.769 1
5 5 -11 -7.08499 163.591 6
-5 -5 11 354.566 198.915 2
-5 -6 11 282.465 204.559 1
5 6 -11 322.279 213.551 6
-5 5 12 14.4221 139.17 5
-5 4 12 204.811 163.93 5
-5 3 12 93.798 165.315 5
-5 3 12 -5.14863 110.576 2
-5 2 12 430.595 191.479 5
-5 2 12 531.337 167.309 2
-5 1 12 -90.1125 134.71 5
-5 1 12 6.72535 120.604 2
-5 1 12 -316.527 222.154 1
-5 0 12 550.015 190.678 5
-5 0 12 583.374 262.48 1
-5 0 12 379.009 162.281 2
5 0 -12 371.74 225.649 6
-5 -1 12 700.672 202.498 5
-5 -1 12 691.672 242.516 1
-5 -1 12 421.268 173.18 2
5 1 -12 585.02 261.573 6
-5 -2 12 426.039 175.649 5
-5 -2 12 331.527 205.548 1
-5 -2 12 328.6 174.366 2
5 2 -12 359.599 245.401 6
-5 -3 12 675.43 200.009 5
-5 -3 12 585.118 229.645 1
5 3 -12 750.879 276.555 6
-5 -3 12 632.792 205.098 2
-5 -4 12 314.85 211.674 1
5 4 -12 -225.053 203.905 6
-5 -4 12 216.708 174.042 2
-5 -5 12 963.164 291.999 1
5 5 -12 740.297 292.564 6
-5 -6 12 449.994 243.877 1
5 6 -12 613.195 268.398 6
-5 5 13 -2.71593 145.907 5
-5 4 13 257.377 190.434 5
-5 3 13 61.0451 148.664 5
-5 2 13 397.014 189.775 5
-5 2 13 692.034 183.184 2
-5 1 13 143.717 185.975 1
-5 1 13 337.206 179.449 5
-5 1 13 251.022 151.94 2
-5 0 13 254.172 162.338 5
-5 0 13 -160.134 227.645 1
-5 0 13 104.951 129.247 2
5 0 -13 93.0089 202.256 6
-5 -1 13 1367.62 267.16 5
-5 -1 13 1172.79 243.4 2
5 1 -13 1492.48 375.901 6
-5 -1 13 1225.73 308.94 1
-5 -2 13 622.596 204.749 5
-5 -2 13 461.521 222.513 1
-5 -2 13 463.869 180.955 2
5 2 -13 301.84 218.658 6
-5 -3 13 52.1805 135.031 5
-5 -3 13 -83.7012 167.15 1
5 3 -13 -147.61 173.962 6
-5 -3 13 103.932 137.899 2
5 4 -13 678.144 274.113 6
-5 -4 13 642.73 256.795 1
-5 -4 13 617.06 228.846 2
-5 -5 13 -67.3513 187.781 1
5 5 -13 106.081 237.603 6
-5 -6 13 -259.413 209.663 1
5 6 -13 190.357 232.497 6
-5 4 14 42.8894 144.511 5
-5 3 14 260.237 186.65 5
-5 2 14 75.7196 153.45 5
-5 1 14 -193.564 222.891 1
-5 1 14 94.4658 119.724 2
-5 0 14 375.662 182.61 5
-5 0 14 501.087 259.818 1
-5 0 14 351.007 152.984 2
5 0 -14 460.74 276.544 6
-5 -1 14 537.075 218.87 5
-5 -1 14 513.66 184.143 2
5 1 -14 672.559 307.881 6
-5 -1 14 451.535 239.325 1
-5 -2 14 196.206 147.235 5
-5 -2 14 103.081 190.285 1
5 2 -14 242.19 254.715 6
-5 -2 14 165.88 140.038 2
-5 -3 14 491.786 198.22 5
-5 -3 14 318.074 214.781 1
5 3 -14 472.077 270.567 6
-5 -3 14 526.921 198.507 2
5 4 -14 751.896 295.479 6
-5 -4 14 937.169 287.251 1
-5 -5 14 192.384 210.263 1
5 5 -14 -85.3286 210.647 6
5 6 -14 386.956 230.985 6
-5 4 15 -105.431 170.439 5
-5 3 15 106.29 160.379 5
-5 2 15 37.6128 150.624 5
-5 1 15 771.041 233.116 5
-5 1 15 71.4368 190.424 1
-5 0 15 1042.3 264.17 5
-5 0 15 727.12 277.755 1
-5 0 15 755.422 187.012 2
5 0 -15 882.293 325.862 6
-5 -1 15 146.154 163.915 5
-5 -1 15 310.751 152.717 2
5 1 -15 158.456 232.021 6
-5 -1 15 284.13 222.737 1
-5 -2 15 1117.96 281.306 5
-5 -2 15 1110.58 307.091 1
5 2 -15 1435.54 398.923 6
-5 -2 15 984.263 229.753 2
-5 -3 15 125.734 164.215 5
-5 -3 15 108.564 202.712 1
5 3 -15 137.179 227.39 6
5 4 -15 -51.4432 232.957 6
-5 -4 15 290.542 215.855 1
-5 -5 15 195.688 217.738 1
5 5 -15 -268.473 260.426 6
-5 4 16 27.0415 181.915 5
-5 3 16 218.586 178.582 5
-5 2 16 367.33 201.36 5
-5 1 16 28.1905 151.626 5
-5 1 16 -461.484 246.108 1
-5 0 16 315.989 193.114 5
-5 0 16 137.055 190.171 1
5 0 -16 238.827 232.535 6
-5 -1 16 413.148 202.777 5
5 1 -16 714.716 345.915 6
-5 -1 16 667.944 194.066 2
-5 -1 16 572.752 273.924 1
-5 -2 16 720.427 249.605 5
-5 -2 16 1182.59 321.071 1
5 2 -16 1228.9 373.654 6
-5 -3 16 -114.011 160.555 5
-5 -3 16 -167.783 199.734 1
5 3 -16 76.754 252.18 6
5 4 -16 350.327 239.17 6
-5 -4 16 937.188 314.002 1
5 5 -16 19.8313 271.105 6
-5 3 17 207.708 188.305 5
-5 2 17 -91.9721 164.358 5
-5 1 17 286.62 189.768 5
5 -1 -17 262.723 252.983 6
-5 0 17 1007.77 299.609 5
-5 0 17 627.084 306.564 1
5 0 -17 1015.9 365.225 6
-5 -1 17 267.617 239.931 1
-5 -1 17 598.352 258.302 5
5 1 -17 764.358 346.284 6
-5 -2 17 -82.3161 167.09 5
-5 -2 17 150.727 203.222 1
5 2 -17 243.417 270.722 6
-5 -3 17 551.618 237.521 5
-5 -3 17 907.538 315.528 1
5 3 -17 626.576 336.866 6
-5 -4 17 -141.16 208.323 1
5 4 -17 -734.56 369.377 6
-5 2 18 138.895 180.458 5
-5 1 18 88.6886 151.533 5
5 -1 -18 167.398 236.849 6
-5 1 18 -165.192 205.719 1
-5 0 18 583.857 276.788 5
-5 0 18 106.797 206.36 1
5 0 -18 983.977 419.385 6
-5 -1 18 193.038 182.885 5
-5 -1 18 396.631 253.962 1
5 1 -18 374.637 308.908 6
-5 -2 18 -238.813 197.578 5
-5 -2 18 149.881 222.961 1
5 2 -18 513.927 322.09 6
-5 -3 18 373.695 262.265 1
-5 -3 18 152.485 190.504 5
-5 2 19 5.54495 185.197 1
-5 1 19 884.586 298.543 5
-5 1 19 440.542 254.618 1
-5 0 19 49.8922 170.823 5
-5 0 19 -149.731 230.664 1
-5 -1 19 321.951 260.933 5
-5 -1 19 60.4485 209.339 1
-5 -2 19 204.298 226.531 5
-5 -2 19 424.544 271.588 1
-5 1 20 263.79 234.747 1
-5 0 20 0.32438 243.395 5
-5 0 20 22.6997 190.427 1
-5 -1 20 21.8639 182.188 5
-5 -2 20 38.4706 167.368 5
-5 -3 20 -178.211 185.968 5
-6 1 -3 340.92 193.621 2
-6 0 -3 254.024 169.351 2
-6 1 -2 204.829 186.452 2
-6 0 -2 480.216 221.523 2
-6 -1 -2 273.011 199.845 2
-6 1 -1 134.89 177.267 2
-6 0 -1 455.511 222.124 2
-6 -1 -1 101.441 158.373 2
-6 -2 -1 364.271 217.992 2
-6 1 0 -100.377 159.971 2
-6 0 0 -113.057 156.311 2
-6 -1 0 12.4938 149.715 2
-6 -2 0 273.654 191.428 2
-6 1 1 393.478 206.688 2
-6 0 1 -103.277 185.614 2
-6 -1 1 449.074 216.232 2
-6 -2 1 56.411 141.899 2
-6 2 2 -37.2199 155.683 2
-6 1 2 107.139 147.777 2
-6 0 2 -247.097 177.614 2
-6 -1 2 234.051 178.941 2
-6 -2 2 80.8997 155.892 2
-6 5 3 -132.46 154.727 5
-6 2 3 -97.3935 163.183 2
-6 1 3 151.629 161.645 2
-6 0 3 102.818 150.45 2
-6 -1 3 257.215 171.189 2
-6 -2 3 535.25 227.543 2
-6 5 4 216.493 189.601 5
-6 4 4 368.078 189.254 5
-6 2 4 -138.353 170.48 2
-6 1 4 -64.2469 160.416 2
-6 0 4 38.683 133.53 2
-6 -1 4 228.384 180.099 2
-6 -2 4 539.058 234.656 2
-6 -3 4 190.5 186.366 2
-6 5 5 472.821 234.646 5
-6 4 5 -204.069 176.195 5
-6 3 5 -70.112 153.006 2
-6 2 5 -445.853 214.472 2
-6 1 5 -84.4682 170.888 2
-6 0 5 706.024 254.482 2
-6 -1 5 -35.3593 135.483 2
-6 -2 5 601.701 236.195 2
-6 -3 5 170.146 185.694 2
-6 5 6 69.8348 159.285 5
-6 4 6 -111.243 167.521 5
-6 3 6 -338.509 200.034 5
-6 3 6 -53.4474 155.405 2
-6 2 6 -129.157 171.95 2
-6 1 6 -75.4396 169.189 2
-6 0 6 230.817 196.383 2
-6 -1 6 314.242 192.937 2
-6 -2 6 515.987 214.85 2
-6 -3 6 361.614 211.352 2
-6 5 7 -166.793 178.264 5
-6 4 7 -88.1803 159.551 5
-6 4 7 -81.9403 152.422 2
-6 3 7 -247.832 182.072 5
-6 3 7 -328.163 190.575 2
-6 2 7 -182.378 175.385 2
-6 1 7 237.719 182.922 2
-6 0 7 193.981 162.148 2
-6 -1 7 1066.57 281.086 2
-6 -2 7 163.118 169.64 2
-6 -3 7 -118.385 166.545 2
-6 5 8 -6.89157 153.833 5
-6 4 8 -182.327 173.802 5
-6 3 8 94.94 150.935 5
-6 3 8 -44.7231 154.357 2
-6 2 8 -258.871 164.885 5
-6 2 8 -294.009 186.596 2
-6 1 8 401.622 209.122 2
-6 0 8 154.702 182.014 2
-6 -1 8 504.5 227.694 2
-6 -2 8 289.023 173.962 2
-6 -3 8 -141.362 164.712 2
-6 4 9 0.24577 159.324 5
-6 3 9 344.389 200.219 5
-6 3 9 168.082 161.011 2
-6 2 9 119.915 155.118 5
-6 2 9 -49.806 145.414 2
-6 1 9 541.924 224.997 2
-6 0 9 459.678 201.005 2
-6 -1 9 337.664 203.69 2
-6 -2 9 251.273 192.794 2
-6 -3 9 33.4477 143.899 2
-6 4 10 25.4656 143.196 5
-6 3 10 401.834 195.022 5
-6 2 10 497.812 201.843 5
-6 2 10 241.389 180.558 2
-6 1 10 7.97072 146.203 2
-6 0 10 285.413 182.064 2
-6 -1 10 -61.4626 147.963 2
-6 -2 10 9.05496 151.104 2
-6 -3 10 -19.8116 144.739 2
6 3 -10 -49.8021 125.32 6
-6 4 11 86.3811 162.77 5
-6 3 11 327.873 202.792 5
-6 2 11 356.508 184.142 5
-6 1 11 -3.01889 130.074 2
-6 0 11 47.0277 142.651 2
-6 -1 11 261.491 184.517 2
-6 -2 11 108.48 150.245 2
-6 -3 11 650.823 237.851 2
6 3 -11 462.419 228.508 6
-6 3 12 12.9146 136.467 5
-6 2 12 -167.277 151.602 5
-6 1 12 21.1923 134.839 5
-6 1 12 43.7219 135.592 2
-6 0 12 201.753 170.181 2
-6 -1 12 161.291 183.833 2
-6 -2 12 197.399 170.867 2
6 2 -12 35.3743 172.17 6
-6 -3 12 10.1184 146.4 2
6 3 -12 77.737 191.109 6
-6 3 13 389.358 207.557 5
-6 2 13 -195.832 162.429 5
-6 1 13 140.935 162.951 5
-6 0 13 0.91769 133.2 2
-6 -1 13 558.142 218.887 2
-6 -2 13 38.4418 137.484 2
6 2 -13 128.114 218.179 6
-6 -3 13 188.649 161.776 2
6 3 -13 389.489 245.734 6
-6 3 14 0.24147 138.51 5
-6 2 14 0.23485 137.424 5
-6 1 14 137.073 171.299 5
-6 -1 14 416.386 198.129 2
-6 -2 14 -120.302 149.749 2
6 2 -14 30.7719 192.15 6
6 3 -14 469.066 266.163 6
-6 -3 14 0.21386 141.557 2
-6 2 15 -273.263 188.918 5
-6 1 15 247.799 187.646 5
-6 -2 15 -31.5154 132.16 2
-6 1 16 83.2124 162.238 5
loop_
_exptl_oxdiff_crystal_face_indexfrac_h
_exptl_oxdiff_crystal_face_indexfrac_k
_exptl_oxdiff_crystal_face_indexfrac_l
_exptl_oxdiff_crystal_face_x
_exptl_oxdiff_crystal_face_y
_exptl_oxdiff_crystal_face_z
-4.9940 -1.0007 2.9887 -0.0008 0.0039 -0.7311
-0.0039 -4.9916 1.0135 0.2798 0.3227 -0.0576
-0.0001 0.0000 0.4998 0.0137 -0.0104 -0.0005
0.0001 -0.0000 -0.4998 -0.0137 0.0104 0.0005
0.0008 0.9983 -0.5026 -0.0642 -0.0583 0.0118
0.9984 0.0006 0.5024 0.0404 -0.0100 0.1429
3.9910 -4.9899 -2.9745 0.2770 0.4080 0.5198
