#------------------------------------------------------------------------------
#$Date: 2020-10-06 14:55:39 +0300 (Tue, 06 Oct 2020) $
#$Revision: 258154 $
#$URL: file:///home/coder/svn-repositories/cod/cif/1/55/29/1552932.cif $
#------------------------------------------------------------------------------
#
# This file is available in the Crystallography Open Database (COD),
# http://www.crystallography.net/
#
# All data on this site have been placed in the public domain by the
# contributors.
#
data_1552932
loop_
_publ_author_name
'Mondelli, Pierluigi'
'Boschetto, Gabriele'
'Horton, Peter N.'
'Tiwana, Priti'
'Skylaris, Chris-Kriton'
'Coles, Simon J.'
'Krompiec, Michal'
'Morse, Graham'
_publ_section_title
;
 Meta-analysis: the molecular organization of non-fullerene acceptors
;
_journal_issue                   4
_journal_name_full               'Materials Horizons'
_journal_page_first              1062
_journal_page_last               1072
_journal_paper_doi               10.1039/C9MH01439J
_journal_volume                  7
_journal_year                    2020
_chemical_compound_source        Merck
_chemical_formula_moiety         '2(C10 H9 S)'
_chemical_formula_sum            'C20 H18 S2'
_chemical_formula_weight         322.46
_space_group_crystal_system      triclinic
_space_group_IT_number           2
_space_group_name_Hall           '-P 1'
_space_group_name_H-M_alt        'P -1'
_atom_sites_solution_hydrogens   geom
_atom_sites_solution_primary     dual
_audit_creation_date             2019-04-24
_audit_creation_method
;
Olex2 1.2
(compiled 2018.05.29 svn.r3508 for OlexSys, GUI svn.r5506)
;
_audit_update_record
;
2019-07-24 deposited with the CCDC.	2019-11-18 downloaded from the CCDC.
;
_cell_angle_alpha                82.096(2)
_cell_angle_beta                 69.206(2)
_cell_angle_gamma                76.828(2)
_cell_formula_units_Z            2
_cell_length_a                   8.4290(2)
_cell_length_b                   9.7140(3)
_cell_length_c                   11.0760(3)
_cell_measurement_reflns_used    7904
_cell_measurement_temperature    120(2)
_cell_measurement_theta_max      27.48
_cell_measurement_theta_min      2.91
_cell_volume                     823.92(4)
_computing_cell_refinement
'DENZO (Otwinowski & Minor, 1997) & COLLECT (Hooft, R.W.W., 1998)'
_computing_data_collection       'COLLECT (Hooft, R.W.W., 1998)'
_computing_data_reduction
'DENZO (Otwinowski & Minor, 1997) & COLLECT (Hooft, R.W.W., 1998)'
_computing_molecular_graphics    'Olex2 (Dolomanov et al., 2009)'
_computing_publication_material  'Olex2 (Dolomanov et al., 2009)'
_computing_structure_refinement  'ShelXL (Sheldrick, 2015)'
_computing_structure_solution    'ShelXT (Sheldrick, 2015)'
_diffrn_ambient_temperature      120(2)
_diffrn_detector_area_resol_mean 9.091
_diffrn_measured_fraction_theta_full 0.998
_diffrn_measured_fraction_theta_max 0.990
_diffrn_measurement_device_type  'Bruker-Nonius CCD camera on \k-goniostat'
_diffrn_measurement_method       '\f & \w scans to fill the asymmetric unit'
_diffrn_radiation_monochromator  graphite
_diffrn_radiation_type           MoK\a
_diffrn_radiation_wavelength     0.71073
_diffrn_reflns_av_R_equivalents  0.0688
_diffrn_reflns_av_unetI/netI     0.0613
_diffrn_reflns_Laue_measured_fraction_full 0.998
_diffrn_reflns_Laue_measured_fraction_max 0.990
_diffrn_reflns_limit_h_max       10
_diffrn_reflns_limit_h_min       -10
_diffrn_reflns_limit_k_max       12
_diffrn_reflns_limit_k_min       -12
_diffrn_reflns_limit_l_max       14
_diffrn_reflns_limit_l_min       -14
_diffrn_reflns_number            19156
_diffrn_reflns_point_group_measured_fraction_full 0.998
_diffrn_reflns_point_group_measured_fraction_max 0.990
_diffrn_reflns_theta_full        25.242
_diffrn_reflns_theta_max         27.603
_diffrn_reflns_theta_min         3.066
_diffrn_source                   'Bruker Nonius FR591 Rotating Anode'
_diffrn_standards_number         0
_exptl_absorpt_coefficient_mu    0.317
_exptl_absorpt_correction_T_max  0.9511
_exptl_absorpt_correction_T_min  0.9293
_exptl_absorpt_correction_type   multi-scan
_exptl_absorpt_process_details
;
SADABS V2.10 (Sheldrick, G.M., 2003)
;
_exptl_crystal_colour            Colourless
_exptl_crystal_density_diffrn    1.300
_exptl_crystal_description       Block
_exptl_crystal_F_000             340
_exptl_crystal_size_max          0.2
_exptl_crystal_size_mid          0.2
_exptl_crystal_size_min          0.16
_refine_diff_density_max         0.316
_refine_diff_density_min         -0.392
_refine_diff_density_rms         0.071
_refine_ls_extinction_method     none
_refine_ls_goodness_of_fit_ref   1.055
_refine_ls_hydrogen_treatment    constr
_refine_ls_matrix_type           full
_refine_ls_number_parameters     203
_refine_ls_number_reflns         3789
_refine_ls_number_restraints     0
_refine_ls_restrained_S_all      1.055
_refine_ls_R_factor_all          0.0668
_refine_ls_R_factor_gt           0.0466
_refine_ls_shift/su_max          0.001
_refine_ls_shift/su_mean         0.000
_refine_ls_structure_factor_coef Fsqd
_refine_ls_weighting_details
'w=1/[\s^2^(Fo^2^)+(0.0419P)^2^+0.4315P] where P=(Fo^2^+2Fc^2^)/3'
_refine_ls_weighting_scheme      calc
_refine_ls_wR_factor_gt          0.1041
_refine_ls_wR_factor_ref         0.1155
_reflns_Friedel_coverage         0.000
_reflns_number_gt                2914
_reflns_number_total             3772
_reflns_threshold_expression     >2\s(I)
_cod_data_source_file            c9mh01439j2.cif
_cod_data_source_block           IDT01
_cod_depositor_comments
;Adding full bibliography for 1552926--1552934.cif.

 Adding full bibliography for 1552926--1552934.cif.
;
_cod_database_code               1552932
_shelx_shelxl_version_number     2018/3
_shelx_space_group_comment
;
The symmetry employed for this shelxl refinement is uniquely defined
by the following loop, which should always be used as a source of
symmetry information in preference to the above space-group names.
They are only intended as comments.
;
_olex2_refinement_description
;
1. Fixed Uiso
 At 1.2 times of:
  All C(H) groups
 At 1.5 times of:
  All C(H,H,H) groups
2.a Aromatic/amide H refined with riding coordinates:
 C1(H1), C2(H2), C8(H8), C11(H11), C12(H12), C18(H18)
2.b Idealised Me refined as rotating group:
 C9(H9A,H9B,H9C), C10(H10A,H10B,H10C), C19(H19A,H19B,H19C), C20(H20A,H20B,H20C)
;
_shelx_res_file
;
TITL 2008com1125new_a.res in P-1
    2008com1125new.res
    created by SHELXL-2018/3 at 16:01:25 on 24-Apr-2019
REM Old TITL
REM SHELXT solution in P-1: R1 0.104, Rweak 0.004, Alpha 0.026
REM <I/s> 0.000 for 0 systematic absences, Orientation as input
REM Formula found by SHELXT: C20 S2
CELL 0.71073 8.429 9.714 11.076 82.096 69.206 76.828
ZERR 2 0.0002 0.0003 0.0003 0.002 0.002 0.002
LATT 1
SFAC C H S
UNIT 40 36 4

L.S. 10
PLAN  20
TEMP -153(2)
BOND $H
CONF
MORE -1
fmap 2 53
acta
OMIT 1 1 1
REM <olex2.extras>
REM <HklSrc "%.\\2008com1125new.hkl">
REM </olex2.extras>

WGHT    0.041900    0.431500
FVAR       0.88238
S1    3    0.471048    0.458507    0.212343    11.00000    0.01703    0.02572 =
         0.03011   -0.00121   -0.00695   -0.00535
S2    3    1.047031    0.826772    0.340312    11.00000    0.01621    0.02276 =
         0.02326   -0.00188   -0.00537   -0.00200
C1    1    0.442327    0.377215    0.365676    11.00000    0.02348    0.02662 =
         0.02699   -0.00178    0.00014   -0.00849
AFIX  43
H1    2    0.333759    0.360466    0.424311    11.00000   -1.20000
AFIX   0
C2    1    0.592325    0.339788    0.393274    11.00000    0.02661    0.02120 =
         0.02401    0.00022   -0.00555   -0.00605
AFIX  43
H2    2    0.600709    0.294549    0.473063    11.00000   -1.20000
AFIX   0
C3    1    0.734206    0.376806    0.288043    11.00000    0.02123    0.01757 =
         0.02023   -0.00222   -0.00508   -0.00446
C4    1    0.925688    0.366975    0.260779    11.00000    0.02127    0.01847 =
         0.01820    0.00059   -0.00820   -0.00295
C5    1    0.980654    0.433543    0.122334    11.00000    0.01963    0.01402 =
         0.02034   -0.00275   -0.00858   -0.00162
C6    1    0.837445    0.479445    0.078618    11.00000    0.01602    0.01607 =
         0.02016   -0.00490   -0.00658   -0.00207
C7    1    0.688379    0.441360    0.183782    11.00000    0.01640    0.01837 =
         0.02247   -0.00309   -0.00532   -0.00321
C8    1    0.855338    0.546796   -0.043557    11.00000    0.01548    0.01883 =
         0.02022   -0.00179   -0.00869   -0.00148
AFIX  43
H8    2    0.758481    0.578265   -0.072072    11.00000   -1.20000
AFIX   0
C9    1    0.955786    0.456060    0.352604    11.00000    0.02886    0.03050 =
         0.02106   -0.00099   -0.00952   -0.00941
AFIX 137
H9A   2    1.079854    0.454501    0.328319    11.00000   -1.50000
H9B   2    0.912264    0.416404    0.441744    11.00000   -1.50000
H9C   2    0.894386    0.553949    0.346168    11.00000   -1.50000
AFIX   0
C10   1    1.021840    0.213120    0.268697    11.00000    0.03041    0.02412 =
         0.02805    0.00006   -0.01089   -0.00170
AFIX 137
H10A  2    1.000797    0.157558    0.210405    11.00000   -1.50000
H10B  2    0.979880    0.172528    0.357640    11.00000   -1.50000
H10C  2    1.146174    0.211137    0.243096    11.00000   -1.50000
AFIX   0
C11   1    1.112555    0.788856    0.179819    11.00000    0.02014    0.02397 =
         0.02470   -0.00497   -0.00271   -0.00211
AFIX  43
H11   2    1.228445    0.750051    0.130888    11.00000   -1.20000
AFIX   0
C12   1    0.979911    0.820654    0.130931    11.00000    0.02257    0.02454 =
         0.01939   -0.00408   -0.00275   -0.00460
AFIX  43
H12   2    0.992093    0.806292    0.044709    11.00000   -1.20000
AFIX   0
C13   1    0.821722    0.877818    0.225200    11.00000    0.01841    0.01789 =
         0.02082    0.00001   -0.00542   -0.00442
C14   1    0.635882    0.932152    0.230231    11.00000    0.01723    0.02253 =
         0.01816   -0.00205   -0.00439   -0.00375
C15   1    0.549756    0.970993    0.370783    11.00000    0.01906    0.01725 =
         0.01667   -0.00014   -0.00518   -0.00576
C16   1    0.671546    0.945476    0.436024    11.00000    0.01712    0.01579 =
         0.01818   -0.00037   -0.00432   -0.00399
C17   1    0.837585    0.886651    0.342244    11.00000    0.01602    0.01716 =
         0.02178    0.00018   -0.00583   -0.00492
C18   1    0.623008    0.975057    0.565520    11.00000    0.01818    0.01771 =
         0.01964    0.00148   -0.00723   -0.00478
AFIX  43
H18   2    0.705758    0.958713    0.608479    11.00000   -1.20000
AFIX   0
C19   1    0.558011    0.816864    0.202558    11.00000    0.02349    0.03330 =
         0.03274   -0.01292   -0.00589   -0.00660
AFIX 137
H19A  2    0.567607    0.734470    0.263268    11.00000   -1.50000
H19B  2    0.620774    0.788712    0.113770    11.00000   -1.50000
H19C  2    0.435882    0.853728    0.212948    11.00000   -1.50000
AFIX   0
C20   1    0.621280    1.062308    0.135921    11.00000    0.02676    0.03312 =
         0.02197    0.00250   -0.00628   -0.00249
AFIX 137
H20A  2    0.499296    1.099049    0.145749    11.00000   -1.50000
H20B  2    0.685010    1.035129    0.046952    11.00000   -1.50000
H20C  2    0.670222    1.135742    0.154925    11.00000   -1.50000
AFIX   0
HKLF 4




REM  2008com1125new_a.res in P-1
REM wR2 = 0.1155, GooF = S = 1.055, Restrained GooF = 1.055 for all data
REM R1 = 0.0466 for 2920 Fo > 4sig(Fo) and 0.0668 for all 3789 data
REM 203 parameters refined using 0 restraints

END

WGHT      0.0419      0.4316

REM Highest difference peak  0.316,  deepest hole -0.392,  1-sigma level  0.071
Q1    1   0.6194  0.1816  0.4779  11.00000  0.05    0.32
Q2    1   0.8014  0.7778  0.0043  11.00000  0.05    0.28
Q3    1   0.6365  0.9279  0.4982  11.00000  0.05    0.27
Q4    1   0.3626  0.2579  0.3822  11.00000  0.05    0.27
Q5    1   1.2785  0.7400  0.1610  11.00000  0.05    0.26
Q6    1   0.6261  0.6003  0.2393  11.00000  0.05    0.25
Q7    1   0.6410  0.8431 -0.0036  11.00000  0.05    0.25
Q8    1   0.7989  0.9208  0.3540  11.00000  0.05    0.25
Q9    1   0.5374  0.9663  0.5976  11.00000  0.05    0.25
Q10   1   0.6428  0.9937  0.1875  11.00000  0.05    0.24
Q11   1   0.5771  0.9566  0.2978  11.00000  0.05    0.24
Q12   1   0.9231  0.4618  0.0890  11.00000  0.05    0.23
Q13   1   0.7067  0.3753  0.2254  11.00000  0.05    0.23
Q14   1   0.6005  0.9555  0.4139  11.00000  0.05    0.22
Q15   1   0.9298  0.7455  0.0703  11.00000  0.05    0.21
Q16   1   1.0128  0.4775  0.1151  11.00000  0.05    0.21
Q17   1   1.0443  0.4874  0.4571  11.00000  0.05    0.21
Q18   1   1.3184  0.6377  0.2007  11.00000  0.05    0.21
Q19   1   0.9583  0.3977  0.1941  11.00000  0.05    0.21
Q20   1   0.6919  0.8225  0.5572  11.00000  0.05    0.21
;
_shelx_res_checksum              19039
_shelx_hkl_file
;
  -1  -1  -1  160.70   14.64
   1   1   0   13.10    2.40
  -1  -1   0   14.03    3.83
   1   1   0   14.29    1.91
   1   1   0   17.90    2.33
  -1  -1   0    8.11    2.50
   1  -1   0  103.67    7.30
  -1   1   0  113.92   11.22
  -1   1   0  117.45    8.27
  -1   1   0  110.31   10.16
   1  -1   0  102.16   11.63
   1  -1   0  111.52    7.10
  -1   1   0  115.55    7.99
   1   0  -1  572.32   56.29
   1   0  -1  635.44   54.85
  -1   0   1  585.27   33.60
  -1   0   1  590.38   47.71
  -1   0   1  600.02   45.33
  -1   0   1  567.38   32.10
  -1   1  -1  346.95   33.57
  -1   1  -1  411.14   29.07
   1  -1   1  381.77   35.47
  -1   1  -1  362.47   23.29
   1  -1   1  398.43   28.78
   1  -1   1  382.85   34.61
  -1   1  -1  389.15   23.36
   1   0   2    6.55    2.21
  -1   0  -2   16.53    3.14
   1   0   2   12.84    2.74
   1   0   2    7.03    2.37
   1   0   2   12.77    2.83
  -1   0  -2   12.73    1.92
  -1   0  -2    8.85    2.45
   0   0   2 5336.44  555.75
   0   0  -2 5307.11  560.75
   0   0  -2 5051.58  194.37
   0   0   2 5453.08  235.35
   0   0   2 5020.98  349.17
   1   1   2 1998.76  235.77
  -1  -1  -2 2059.86  222.00
  -1  -1  -2 2133.94  155.11
  -1  -1  -2 1796.35  172.70
   1   1   2 2021.59  198.89
   1   1   2 2065.37  184.06
   1   1  -1  687.80   61.12
   1   1  -1  660.38   68.33
  -1  -1   1  626.21   61.36
  -1  -1   1  651.97   40.26
   0   2   0 2010.27  165.87
   0  -2   0 1840.24  133.19
   0  -2   0 1921.13  167.64
   0  -2   0 2033.73  162.60
   0   2   0 2050.12  117.42
   0  -2   0 1942.79  155.55
   0   2   0 1967.03  147.25
   0   1   2  155.07   11.45
   0  -1  -2  152.29   18.04
   0  -1  -2  164.50   10.29
   0  -1  -2  137.02    7.93
   0  -1  -2  170.52   12.41
   0  -1  -2  152.44   15.06
   0   1   2  150.46   10.96
  -1  -2  -1 2976.46  142.46
   1   2   1 2863.41  175.79
  -1  -2  -1 2828.19  201.86
   1   2   1 2660.90  157.45
   1   2   1 2902.56  194.16
  -1  -2  -1 2819.65  148.96
  -1   1   1   55.73    4.11
  -1   1   1   60.57    5.52
   1  -1  -1   64.80    7.32
   1  -1  -1   56.40    4.87
   1  -1  -1   71.47    7.21
  -1   1   1   53.54    4.86
  -1  -2   0 6038.21  326.24
   1   2   0 5860.13  366.24
  -1  -2   0 5854.41  402.45
   1   2   0 6138.69  341.23
  -1  -2   0 6035.57  441.28
  -1  -2   0 5662.50  316.30
   1   2   0 5792.36  352.52
   0  -1   2   16.33    2.11
   0   1  -2   19.60    2.96
   0  -1   2   16.89    2.57
   0   1  -2   17.11    3.35
   0  -1   2   19.24    2.46
   0  -1   2   13.52    2.36
   0   1  -2   20.11    2.69
   0   1  -2   16.45    2.47
   0  -2  -1 9723.94  771.04
   0   2   1 9999.00  582.60
   0  -2  -1 8831.20  488.27
   0  -2  -1 9814.30  460.27
   0   2   1 8544.03  502.52
   0   2   1 9312.62  505.06
  -1   1  -2   60.08    5.12
   1  -1   2   52.85    5.91
   1  -1   2   45.77    5.45
  -1   1  -2   56.53    5.06
  -1   1  -2   49.78    6.10
   1  -1   2   55.49    4.76
  -1   1  -2   56.46    5.54
   0  -2   1 7638.42  686.61
   0  -2   1 7783.29  329.45
   0  -2   1 7748.89  613.88
   0   2  -1 7938.27  640.08
   0   2  -1 7426.87  370.71
   0   2  -1 7322.56  534.67
   2   1   1  687.83   71.51
   2   1   1  580.09   53.36
  -2  -1  -1  637.17   45.08
  -2  -1  -1  628.48   57.21
  -2  -1  -1  660.42   55.33
   2   1   1  619.14   39.20
   2   0   1  707.13   47.33
   2   0   1  724.67   50.34
   2   0   1  688.74   64.28
  -2   0  -1  681.01   62.45
  -2   0  -1  687.17   50.29
  -2   0  -1  739.18   53.61
  -2   0  -1  702.68   52.57
   2   0   1  688.24   50.82
   1   2   2 4082.86  230.57
  -1  -2  -2 4256.23  257.34
   1   2   2 4316.63  222.05
  -1  -2  -2 4135.81  275.95
  -1  -2  -2 4017.68  249.92
  -2   0   0 4262.57  395.51
  -2   0   0 4142.70  260.95
   2   0   0 4338.54  363.68
   2   0   0 4267.46  451.33
   2   0   0 4229.84  281.43
  -2   0   0 4354.14  328.92
  -2   0   0 4418.20  498.68
   2   0   0 4332.75  275.18
   2   0   0 4206.78  217.60
  -2  -1   0    6.78    3.01
  -2  -1   0   10.84    3.01
   2   1   0   13.39    3.76
   2   1   0   12.45    3.05
   2   1   0   24.44    5.12
  -2  -1   0    3.66    3.59
  -2  -1  -2   26.50    4.05
  -2  -1  -2   22.35    3.97
  -2  -1  -2   24.14    3.97
   2   1   2   24.91    3.49
   2   1   2   27.21    3.56
   2   1   2   24.97    5.49
  -2   0  -2 2198.91  152.99
  -2   0  -2 2144.76  173.87
  -2   0  -2 2132.32  120.13
  -2   0  -2 2174.61  131.44
   2   0   2 2228.63  117.16
   2   0   2 2188.91  176.33
   2   0   2 2150.04  137.92
   2   0   2 2175.88  193.36
   1   0  -2   34.40    4.19
   1   0  -2   35.75    4.14
   1   0  -2   32.82    3.76
   1   0  -2   32.01    2.36
  -1   0   2   29.74    6.15
  -1   0   2   28.64    2.99
  -1   0   2   29.09    2.94
  -1   0   2   26.54    4.06
  -1   0   2   30.05    4.34
  -1  -2   1   24.43    3.51
  -1  -2   1   24.49    4.97
  -1  -2   1   26.11    4.39
   1   2  -1   22.41    4.44
   1   2  -1   27.00    4.28
   1   2  -1   22.98    2.89
  -1   2   0  193.72   13.42
   1  -2   0  191.29   14.79
   1  -2   0  185.12   13.68
   1  -2   0  203.06   13.95
   1  -2   0  193.95   15.93
  -1   2   0  198.48   16.06
  -1   2   0  190.46   16.63
  -1   2   0  227.54   13.59
   1  -2   1   48.79    4.17
   1  -2   1   71.23    6.87
  -1   2  -1   56.68    6.43
  -1   2  -1   47.35    6.77
  -1   2  -1   52.69    4.89
  -1   2  -1   54.91    6.32
   1  -2   1   53.30    5.51
   1  -2   1   59.91    5.80
  -1   0  -3 1207.42   94.40
  -1   0  -3 1178.40   87.72
  -1   0  -3 1221.27   77.80
   1   0   3 1280.99   96.48
   1   0   3 1178.95   71.35
   1   0   3 1332.63  106.51
   0  -2  -2   91.46    9.29
   0  -2  -2   86.27    7.54
   0  -2  -2   97.58   10.07
   0   2   2   84.76    7.91
   0   2   2   86.31    7.67
   0   2   2   79.76    7.02
   0  -2  -2   87.59    6.14
  -1  -1  -3  358.60   28.45
  -1  -1  -3  354.18   35.66
  -1  -1  -3  366.87   32.38
  -1  -1  -3  393.25   35.17
   1   1   3  372.69   35.96
   1   1   3  385.63   27.20
  -1  -1   2  530.85   30.88
   1   1  -2  484.79   54.59
   1   1  -2  510.39   30.49
  -1  -1   2  504.21   25.89
  -2  -2  -1  965.98   87.33
  -2  -2  -1 1061.91   92.34
   2   2   1 1028.16   85.02
   2   2   1 1046.91   87.59
  -2  -2  -1  996.54   78.15
   2   2   1  964.03   65.31
  -2   1  -1  341.22   29.10
   2  -1   1  340.07   32.04
   2  -1   1  352.72   28.27
   2  -1   1  339.49   24.53
   2  -1   1  342.03   19.57
  -2   1  -1  321.80   18.75
  -2   1  -1  379.21   25.04
   0   0   3    1.44    4.14
   0   0   3   -0.98    2.80
   0   0  -3    4.40    1.42
   0   0   3    1.79    1.17
   0   0  -3    7.71    3.12
   0   0  -3    6.15    1.67
   0   0   3    4.16    1.74
   1  -1  -2 1794.59  203.95
   1  -1  -2 1756.89  148.90
   1  -1  -2 1886.33  151.38
  -1   1   2 1752.99  115.04
  -1   1   2 1715.72  152.95
  -1   1   2 1852.99  155.66
  -1   1   2 1881.36  253.14
   1  -1  -2 1764.17  151.43
  -1   2   1  176.35   12.82
  -1   2   1  160.00   10.62
  -1   2   1  155.03   11.96
   1  -2  -1  173.66   14.27
   1  -2  -1  191.89   18.09
  -1   2   1  175.04   17.60
   0   2  -2 1137.89   89.88
   0  -2   2 1082.39   75.79
   0   2  -2 1027.08   92.27
   0   2  -2 1102.67   92.71
   0  -2   2 1062.99  105.02
   0  -2   2  978.11   77.03
   0  -2   2 1121.67  110.41
  -2   1   0  816.45   47.33
   2  -1   0  805.35   57.95
  -2   1   0  779.16   57.55
   2  -1   0  782.68   59.52
   2  -1   0  801.12   57.00
  -2   1   0  794.80   53.85
   2  -1   0  807.53   38.11
  -2   1   0  740.92   50.89
   2   2   2   68.90    7.33
   2   2   2   83.07    7.50
   2   2   2   79.06    6.40
  -2  -2  -2   66.68    7.90
  -2  -2  -2   86.24    8.49
  -2  -2  -2   83.07    7.83
  -2  -2   0   25.88    4.18
  -2  -2   0   38.12    3.62
   2   2   0   18.00    4.86
   2   2   0   27.04    4.77
   2   2   0   25.28    4.68
  -2  -2   0   28.08    3.99
   0   1   3    1.72    2.84
   0  -1  -3    1.26    0.71
   0  -1  -3    0.21    0.72
   0  -1  -3    0.00    2.98
   0   1   3    4.05    2.75
   0  -1  -3    0.85    1.67
   0  -1  -3    2.82    3.91
   0   1   3    0.29    0.83
  -2   0   1   42.15    6.54
   2   0  -1   42.75    7.65
   2   0  -1   41.25    4.58
   2   0  -1   39.45    5.05
   2   0  -1   35.25    5.05
   2   0  -1   35.28    4.47
  -2   0   1   37.19    5.27
  -2   0   1   32.19    4.27
  -2   0   1   34.59    4.63
   2   1  -1  474.82   29.46
  -2  -1   1  521.81   34.52
   2   1  -1  499.09   38.81
  -2  -1   1  483.05   26.26
  -2  -1   1  498.84   38.56
   2   1  -1  508.88   44.30
  -2   1  -2  279.34   18.31
  -2   1  -2  234.70   19.83
  -2   1  -2  280.20   21.23
   2  -1   2  250.65   16.45
   2  -1   2  249.01   19.19
   2  -1   2  281.68   20.32
  -2   1  -2  245.76   14.73
  -1   1  -3  583.71   39.73
   1  -1   3  612.66   98.61
   1  -1   3  564.06   36.12
  -1   1  -3  585.70   41.67
  -1   1  -3  582.16   36.58
  -1   1  -3  582.81   37.28
  -1   1  -3  557.87   76.03
  -2  -1  -3  546.18   42.95
  -2  -1  -3  536.68   37.16
   2   1   3  549.96   61.10
   2   1   3  551.38   40.61
   2   1   3  527.79   42.68
  -2  -1  -3  588.77   48.26
  -2  -1  -3  558.26   51.14
  -1   2  -2  159.13   12.99
  -1   2  -2  155.69   13.39
  -1   2  -2  189.80   30.98
   1  -2   2  176.60   22.71
   1  -2   2  168.07   13.65
   1  -2   2  164.24   13.11
  -1   2  -2  158.23    9.03
  -1  -3  -1 2643.26  152.78
  -1  -3  -1 2801.39  208.50
  -1  -3  -1 2601.14  154.82
   1   3   1 2842.04  179.22
   1   3   1 2810.73  158.29
   1   3   1 2697.67  216.98
  -1  -3  -1 2779.35  279.91
   0  -1   3   -2.89    3.20
   0  -1   3    5.15    3.69
   0   1  -3   -1.42    3.23
   0  -1   3    1.29    3.58
   0   1  -3   -0.43    1.62
   0   1  -3   -1.53    2.11
   0   1  -3   -1.65    2.79
   2   0   3   14.38    3.62
   2   0   3   20.96    4.42
  -2   0  -3   15.08    4.15
  -2   0  -3   18.28    3.64
   2   0   3   24.07    3.05
  -2   0  -3   20.37    3.92
   2   0   3   22.68    2.84
   0  -3   0 2102.92  126.58
   0   3   0 2248.04  154.25
   0  -3   0 2213.57  149.46
   0   3   0 2353.64  134.60
   0   3   0 2321.27  178.10
   0   3   0 2344.77  131.46
   0  -3   0 2281.91  159.52
   0  -3   0 2183.96  140.31
  -1  -3   0 4644.05  427.94
  -1  -3   0 4647.00  245.45
  -1  -3   0 4520.64  338.37
  -1  -3   0 4608.44  375.69
   1   3   0 4561.95  350.16
   1   3   0 4624.29  204.60
   1   3   0 4541.46  271.68
   1   3   0 4716.00  345.46
   1   2   3  960.85   53.22
   1   2   3  927.73   85.22
  -1  -2  -3  942.07   54.69
  -1  -2  -3  913.37   74.09
  -1  -2  -3  896.61   54.53
   0   3   1 5184.86  251.45
   0   3   1 4641.18  361.48
   0   3   1 5024.94  376.82
   0  -3  -1 4864.62  344.68
   0  -3  -1 4981.89  225.13
   0  -3  -1 4785.97  349.56
   0  -3  -1 4877.13  176.76
   0  -3  -1 4833.58  375.24
  -1  -2   2 1430.85  114.41
   1   2  -2 1335.37   85.47
   1   2  -2 1361.74   57.82
   1   2  -2 1388.97   87.76
  -1  -2   2 1340.65   82.52
  -1  -2   2 1297.94   65.41
   2  -1  -1 1210.46  119.47
   2  -1  -1 1292.82  101.97
   2  -1  -1 1252.57   85.79
   2  -1  -1 1223.43  102.28
   2  -1  -1 1161.31  141.59
  -2   1   1 1241.10   72.62
  -2   1   1 1190.18   92.82
  -2   1   1 1190.57  107.21
   0   3  -1    9.72    3.18
   0  -3   1   16.96    1.46
   0  -3   1   12.79    3.42
   0  -3   1   18.62    4.46
   0   3  -1   18.08    4.48
   0   3  -1   11.67    4.72
   0  -3   1   15.59    3.71
  -1  -3  -2  580.84   49.28
  -1  -3  -2  564.78   28.92
  -1  -3  -2  538.49   45.81
   1   3   2  543.36   32.59
   1   3   2  560.53   37.71
  -1  -3  -2  595.48   44.81
   1   3   2  552.77   42.48
   2   2   3   21.02    4.06
   2   2   3   29.95    4.01
   2   2   3   21.02    3.31
  -2  -2  -3   31.50    4.26
  -2  -2  -3   22.36    2.77
  -2  -2  -3   21.01    3.17
   2   2  -1 2185.40  171.83
   2   2  -1 2117.89  152.64
   2   2  -1 2123.93  198.39
  -2  -2   1 2068.21  143.46
  -2  -2   1 2133.28  115.93
   1  -2  -2   80.30    7.17
   1  -2  -2   70.25    8.72
  -1   2   2   80.61   12.00
   1  -2  -2   77.37    6.68
   1  -2  -2   77.93    7.59
  -1   2   2   76.28    9.59
  -1   2   2   86.15    7.03
  -1   2   2   87.84   10.30
   0   2   3  218.67   18.55
   0   2   3  212.13   25.66
   0  -2  -3  215.14   14.45
   0  -2  -3  217.39   23.72
   0  -2  -3  234.83   21.19
   0  -2  -3  192.91   21.99
   0   2   3  203.51   13.33
   1   3  -1  290.55   16.21
   1   3  -1  312.51   22.25
  -1  -3   1  292.26   20.13
  -1  -3   1  286.62   27.15
  -1  -3   1  312.80   22.63
   1   3  -1  300.36   24.39
   1   3  -1  291.46   19.17
  -2  -3  -1 1505.45  121.88
  -2  -3  -1 1534.60  125.96
  -2  -3  -1 1414.65  105.30
   2   3   1 1434.20   77.77
   2   3   1 1505.05   99.36
   2   3   1 1483.26   94.43
  -1   0   3 1999.56  142.04
  -1   0   3 1914.15  129.09
   1   0  -3 1969.87  122.92
   1   0  -3 1918.26  148.74
   1   0  -3 2048.92  135.83
  -1   0   3 2035.13  152.26
  -1   0   3 1929.90   92.52
   2  -1   3   84.58   10.14
  -2   1  -3   67.35    7.60
   2  -1   3   68.37    6.10
  -2   1  -3   68.43    7.23
  -2   1  -3   72.78    8.79
   2  -1   3   84.28    9.47
  -2   1  -3   78.46    7.63
   2  -1   3   76.85   10.98
  -2   2  -1    8.80    4.11
   2  -2   1    8.85    3.83
  -2   2  -1    5.99    2.29
   2  -2   1    7.15    5.01
  -2   2  -1    2.33    3.30
   2  -2   1    4.93    2.04
  -2   2  -1    5.62    3.90
   3   1   1   -0.75    2.57
  -3  -1  -1   -0.14    2.31
   3   1   1    2.75    4.76
  -3  -1  -1   -1.09    2.83
   3   1   1    0.88    3.91
  -3  -1  -1    9.43    4.72
  -3  -1  -1    3.03    3.45
   3   1   2  561.74   49.50
   3   1   2  597.27   55.66
   3   1   2  522.76   43.92
  -3  -1  -2  539.98   48.99
  -3  -1  -2  543.90   54.64
  -3  -1  -2  531.61   51.32
   0   3   2   12.35    2.38
   0   3   2   10.77    2.43
   0   3   2   16.69    4.70
   0  -3  -2    5.80    3.28
   0  -3  -2   15.24    2.25
   0  -3  -2   15.57    3.09
   0  -3  -2   11.58    2.06
   0  -3  -2    9.23    2.13
   2   3   2  439.06   30.98
   2   3   2  446.69   33.91
  -2  -3  -2  452.74   29.62
  -2  -3  -2  437.64   33.85
  -2  -3  -2  449.10   41.29
   2   3   2  405.57   35.81
   1   0   4  345.61   34.37
  -1   0  -4  334.43   27.28
   1   0   4  298.14   21.97
   1   0   4  336.12   16.06
  -1   0  -4  332.39   27.22
  -1   0  -4  325.82   42.64
  -1   0  -4  350.42   22.24
  -2   2   0  146.21   13.80
  -2   2   0  139.29   10.90
   2  -2   0  143.58   11.33
   2  -2   0  148.40   12.85
   2  -2   0  135.83   10.56
   2  -2   0  154.73   10.89
  -2   2   0  127.47    7.56
  -2   2   0  150.87   11.69
   1  -3   0 1387.62  263.62
  -1   3   0 1319.11  172.50
  -1   3   0 1327.64  143.13
  -1   3   0 1333.44   87.18
   1  -3   0 1281.13   98.01
   1  -3   0 1335.97   81.71
   1  -3   0 1046.44   46.17
  -1   3   0 1305.35   79.63
   1   1   4    3.27    3.72
  -1  -1  -4   -1.48    3.37
  -1  -1  -4   -0.35    1.45
  -1  -1  -4   -2.00    1.31
  -1  -1  -4    2.94    3.90
  -1  -1  -4   -0.50    3.18
   1   1   4   -3.97    1.40
   3   0   1  757.58   74.73
   3   0   1  731.80   45.50
   3   0   1  738.26   78.87
  -3   0  -1  761.30   52.41
  -3   0  -1  778.09   60.05
  -3   0  -1  793.14   48.10
  -3   0  -1  786.24   83.20
   3   0   1  779.34   49.61
   1   1  -3  437.80   28.89
   1   1  -3  419.96   43.01
  -1  -1   3  479.28   44.37
  -1  -1   3  418.97   25.26
  -1  -1   3  416.77   21.56
   2   3   0 1187.47   83.65
  -2  -3   0 1167.66   59.16
  -2  -3   0 1159.38   99.50
  -2  -3   0 1197.18   98.18
  -2  -3   0 1116.17   76.35
   2   3   0 1146.27   74.71
   2   3   0 1079.11   61.88
   0   2  -3   56.85    8.50
   0  -2   3   70.37    9.32
   0  -2   3   59.27    6.88
   0   2  -3   69.12    8.97
   0   2  -3   56.55    5.13
   0   2  -3   65.33    5.81
   0  -2   3   73.55    8.57
   0  -2   3   59.31    6.13
   3   0   2  265.20   24.44
   3   0   2  262.28   19.82
  -3   0  -2  259.22   16.92
  -3   0  -2  246.29   22.53
  -3   0  -2  249.58   16.32
  -3   0  -2  236.54   18.67
   3   0   2  253.95   24.87
   3   0   2  286.08   29.29
   2   0  -2  622.94   69.33
   2   0  -2  612.37   51.04
   2   0  -2  603.23   33.62
  -2   0   2  615.79   54.60
  -2   0   2  608.22   43.61
  -2   0   2  608.34   55.53
  -2   0   2  652.91   55.98
  -1   3  -1   83.11    4.85
   1  -3   1   96.69   16.59
  -1   3  -1   87.33    5.82
  -1   3  -1   94.61   10.76
  -1   3  -1   78.92   10.61
  -1   3  -1   69.65   13.00
   1  -3   1   96.15    8.74
   1  -3   1  102.18   11.34
   1  -1  -3  333.43   27.70
   1  -1  -3  332.23   40.39
   1  -1  -3  298.12   17.99
  -1   1   3  323.72   21.16
  -1   1   3  327.67   41.86
  -1   1   3  361.47   38.98
   1  -1  -3  331.66   23.40
   1  -1  -3  312.16   19.13
  -1   1   3  339.14   27.04
  -1   2  -3   10.68    2.22
  -1   2  -3   13.42    3.66
   1  -2   3    5.16    2.96
   1  -2   3    8.80    3.72
  -1   2  -3   24.56    5.01
  -1   2  -3   13.84    3.38
  -1   2  -3    5.95    3.32
   1  -2   3   10.09    3.74
   2   1  -2   10.18    4.42
  -2  -1   2   23.16    5.29
  -2  -1   2   22.84    2.28
  -2  -1   2   23.92    4.64
   2   1  -2   16.82    5.10
   2  -2   2  258.87   18.05
   2  -2   2  261.84   14.32
   2  -2   2  244.38   20.87
  -2   2  -2  262.62   21.26
  -2   2  -2  244.63   21.29
  -2   2  -2  268.20   20.96
  -2   2  -2  272.40   14.07
   2  -2   2  272.19   19.69
  -2  -1  -4    4.58    3.38
   2   1   4    3.51    4.03
   2   1   4    6.12    2.46
   2   1   4    2.23    2.61
  -2  -1  -4    7.26    2.90
  -2  -1  -4    6.72    2.46
  -2  -1  -4    5.32    2.10
   2   1   4    4.18    2.37
  -3  -2  -1   98.83    9.63
   3   2   1  118.26    9.07
   3   2   1  106.62   15.74
  -3  -2  -1  126.38   14.61
  -3  -2  -1   90.59    9.30
   3   2   1  103.96    9.31
  -3  -2  -2  360.63   42.81
  -3  -2  -2  349.48   28.18
  -3  -2  -2  337.26   20.99
   3   2   2  326.72   25.31
   3   2   2  338.76   28.28
   3   2   2  386.44   32.76
  -3  -1   0 1251.43   96.25
   3   1   0 1171.77  107.72
   3   1   0 1207.23   84.61
  -3  -1   0 1283.64  109.79
  -3  -1   0 1298.06   73.30
  -3  -1   0 1136.63   94.93
   3   1   0 1323.44   95.95
   0  -3   2 3610.57  239.49
   0  -3   2 3798.68  263.15
   0   3  -2 3819.03  335.82
   0  -3   2 3573.52  293.92
   0   3  -2 3535.25  204.56
   0   3  -2 3674.89  339.34
   0  -3   2 3669.11  186.68
   1  -3  -1  188.96   17.90
  -1   3   1  205.01   19.16
  -1   3   1  189.14   17.64
  -1   3   1  173.36   16.03
   1  -3  -1  193.80   17.16
   1  -3  -1  190.07   12.91
  -1   3   1  173.78   17.90
  -1  -3  -3 4124.92  218.75
   1   3   3 4235.21  203.04
  -1  -3  -3 4332.37  198.01
   1   3   3 3997.52  327.57
  -1  -3  -3 4357.66  498.24
  -1  -3  -3 4295.12  259.54
  -1  -3  -3 4243.05  191.89
   2   0   4  162.28   11.03
   2   0   4  176.50   14.31
  -2   0  -4  157.72   14.93
  -2   0  -4  176.63   13.45
  -2   0  -4  145.68   12.39
   2   0   4  154.89   14.27
   0   0   4  500.66   44.70
   0   0   4  530.44   32.27
   0   0   4  533.84   32.35
   0   0   4  515.34   30.65
   0   0  -4  547.03   21.68
   0   0  -4  602.99   80.23
   0   0  -4  552.70   61.53
  -3   0   0  145.82   12.71
  -3   0   0  165.78   14.33
   3   0   0  160.39   11.07
   3   0   0  177.17   12.65
   3   0   0  163.54   14.91
  -3   0   0  166.08   13.96
  -3   0   0  168.00   14.27
   3   0   0  179.56   16.26
  -3  -1  -3    5.17    3.51
   3   1   3    9.35    3.74
   3   1   3    4.90    3.51
  -3  -1  -3    3.99    1.74
  -3  -1  -3    7.63    3.38
  -3  -1  -3    5.96    3.56
   3   1   3    8.51    3.04
  -1   1  -4  136.71   10.93
  -1   1  -4  138.65   15.70
  -1   1  -4  130.57   12.13
  -1   1  -4  149.27   12.09
   1  -1   4  150.16   10.43
   1  -1   4  131.83   16.82
   0  -1  -4  148.28    9.22
   0  -1  -4  159.96   14.29
   0  -1  -4  156.71   15.92
   0  -1  -4  161.03   12.04
   0  -1  -4  175.99   15.38
   0   1   4  152.33   14.89
   0   1   4  157.83   10.12
   0   1   4  154.55   13.80
   2  -2  -1  181.66   14.62
   2  -2  -1  190.03   15.14
   2  -2  -1  207.87   11.50
  -2   2   1  178.20   14.27
  -2   2   1  209.51   19.88
   2  -2  -1  179.01   20.42
  -1  -2  -4  102.22    9.69
  -1  -2  -4  113.15    7.91
  -1  -2  -4  124.26   10.87
  -1  -2  -4  117.88   14.63
  -1  -2  -4  110.04   10.62
   1   2   4  118.75    9.58
   1   2   4  102.55    8.75
   2  -1  -2  536.44   58.14
   2  -1  -2  526.42   60.28
  -2   1   2  591.12   74.36
  -2   1   2  526.81   36.26
  -2   1   2  543.56   41.83
   2  -1  -2  606.44   36.58
   2  -1  -2  618.87   59.82
  -2  -3  -3    9.04    4.17
  -2  -3  -3    8.47    2.68
  -2  -3  -3   13.50    2.56
   2   3   3   11.74    2.34
   2   3   3   12.77    3.11
   2   3   3   19.42    3.25
   3   0   3  211.63   15.09
   3   0   3  195.24   15.02
   3   0   3  214.88   27.61
   3   0   3  197.21   13.67
  -3   0  -3  178.82   16.13
  -3   0  -3  211.42   26.55
  -3   0  -3  191.29   16.05
  -1   3  -2  231.27   15.33
   1  -3   2  220.76   19.32
  -1   3  -2  255.40   14.88
  -1   3  -2  216.94   15.81
  -1   3  -2  251.75   30.83
  -1   3  -2  210.13   17.66
   1  -3   2  255.59   20.49
   1  -3   2  227.36   32.83
  -2  -2  -4   16.08    4.45
  -2  -2  -4   30.13    4.40
  -2  -2  -4   29.87    3.38
   2   2   4   27.85    3.91
  -2  -2  -4   23.82    3.37
   2   2   4   31.22    3.81
   2   2   4   29.77    5.71
  -3   1  -1  902.43   37.71
  -3   1  -1  933.63   71.18
  -3   1  -1 1027.53   74.85
   3  -1   1  978.61   89.86
   3  -1   1 1044.19   65.23
   3  -1   1  972.69   53.92
   3  -1   1  982.88   84.34
  -3   1  -1 1024.86   69.62
  -3  -2   0   20.61    4.79
  -3  -2   0   20.09    4.53
  -3  -2   0   23.58    5.46
   3   2   0   15.01    5.60
   3   2   0   19.23    4.80
   3   2   0   17.46    4.65
   1   3  -2   72.95    9.79
  -1  -3   2   53.88    6.87
  -1  -3   2   72.16    5.89
   1   3  -2   77.60    5.66
   1   3  -2   86.00    8.31
  -1  -3   2   67.42    8.81
  -3  -2  -3  103.61   10.72
   3   2   3   90.65   10.29
   3   2   3   80.91    7.33
   3   2   3   85.11    7.16
  -3  -2  -3   78.95    6.42
  -3  -2  -3   85.79   10.75
  -2  -3   1    2.88    4.02
  -2  -3   1    0.14    1.52
   2   3  -1   13.77    4.60
   2   3  -1    2.53    4.46
  -2  -3   1   -1.12    2.81
   2   3  -1   -3.90    2.87
   0  -1   4   99.43    9.88
   0  -1   4  133.93   13.31
   0  -1   4  112.22    7.52
   0   1  -4  123.97    8.56
   0   1  -4  125.06   10.66
   0   1  -4  126.85   17.50
   0   1  -4  141.30    9.50
   2   2  -2  241.66   26.75
  -2  -2   2  215.66   12.98
  -2  -2   2  223.26   18.10
  -2  -2   2  255.36   17.32
   2   2  -2  243.39   16.47
   3  -1   2  526.86   39.30
  -3   1  -2  578.94   31.59
   3  -1   2  575.71   37.87
   3  -1   2  510.31   48.04
  -3   1  -2  519.63   45.99
   3  -1   2  599.67   46.76
  -3   1  -2  527.13   48.27
   1   2  -3    4.33    1.24
   1   2  -3    5.49    3.19
   1   2  -3    9.74    4.51
  -1  -2   3    5.75    3.25
  -1  -2   3   11.43    4.80
  -1  -2   3    2.96    3.82
  -1  -2   3    6.36    1.35
  -1  -4  -1  281.76   32.61
   1   4   1  291.11   18.93
   1   4   1  279.42   21.97
   1   4   1  282.83   24.30
   1   4   1  295.56   23.59
  -1  -4  -1  282.98   20.55
  -1  -4  -1  313.48   16.51
  -1  -4  -1  271.34   22.56
   0  -3  -3   22.87    3.05
   0   3   3   38.00    4.72
   0   3   3   22.06    4.84
   0   3   3   19.23    2.77
   0  -3  -3   24.90    2.02
   0  -3  -3   20.58    4.39
   0  -3  -3   23.15    4.02
   0  -3  -3   24.63    5.17
  -1   2   3  415.05   34.06
  -1   2   3  374.10   19.24
  -1   2   3  362.87   35.03
  -1   2   3  351.34   25.44
   1  -2  -3  394.85   32.45
   1  -2  -3  348.83   21.74
   1  -2  -3  405.53   37.17
   1  -2  -3  374.50   27.41
   1  -2  -3  413.82   41.84
   2  -2   3  474.58   27.13
  -2   2  -3  480.64   44.84
  -2   2  -3  483.52   32.06
  -2   2  -3  477.63   40.55
  -2   2  -3  458.78   23.57
   2  -2   3  483.04   29.11
   2  -2   3  476.00   27.36
   2  -2   3  472.98   21.89
  -1  -4   0  787.01   43.48
  -1  -4   0  741.65   87.04
   1   4   0  759.24   43.88
   1   4   0  720.61   69.66
   1   4   0  770.21   58.56
   1   4   0  740.99   31.90
  -1  -4   0  727.70   40.20
  -2   1  -4  273.53   23.33
  -2   1  -4  319.38   20.16
  -2   1  -4  291.96   17.85
   2  -1   4  311.52   20.68
   2  -1   4  275.32   16.31
  -2   1  -4  284.29   16.32
   2  -1   4  264.29   18.51
  -3   1   0  338.47   37.45
  -3   1   0  325.23   22.81
   3  -1   0  342.90   18.81
   3  -1   0  299.54   26.35
  -3   1   0  321.36   16.90
   3  -1   0  352.74   21.69
  -3   1   0  310.65   21.33
   3  -1   0  318.64   31.99
   0  -4   0   35.73    6.64
   0  -4   0   43.35    5.42
   0   4   0   24.52    5.35
   0  -4   0   32.99    6.87
   0   4   0   37.39    4.93
   0   4   0   38.65    3.05
   0   4   0   28.39    4.81
   0  -4   0   37.72    4.50
  -1   3   2   19.76    3.76
  -1   3   2   17.04    3.24
   1  -3  -2   12.60    4.32
  -1   3   2   10.59    2.38
  -1   3   2   12.40    3.55
   1  -3  -2   13.48    2.69
   1  -3  -2   15.02    3.76
   1  -3  -2   11.80    2.99
   3   1  -1   40.59    5.55
  -3  -1   1   44.26    6.38
   3   1  -1   52.03    9.30
  -3  -1   1   46.50    3.63
   3   1  -1   38.61    7.30
  -3  -1   1   58.94    7.75
  -3  -1   1   43.36    7.60
   3   3   2    5.56    3.15
   3   3   2    8.77    3.51
   3   3   2   10.68    3.43
  -3  -3  -2    2.44    2.22
  -3  -3  -2    7.17    3.11
  -3  -3  -2   11.25    4.27
   0   4   1  623.90   42.59
   0   4   1  615.21   37.85
   0  -4  -1  628.06   62.24
   0  -4  -1  653.70   42.63
   0  -4  -1  641.19   35.83
   0  -4  -1  624.72   48.31
   0  -4  -1  637.97   40.86
   0   4   1  591.97   45.95
  -3  -3  -1 1149.58   89.90
  -3  -3  -1 1172.81   64.13
   3   3   1 1162.93  105.05
   3   3   1 1196.69  113.25
  -3  -3  -1 1166.85   81.41
   3   3   1 1171.50   64.79
   0   2   4    1.83    3.19
   0  -2  -4    4.83    4.10
   0  -2  -4    1.05    3.67
   0  -2  -4    1.91    2.72
   3   0  -1   22.78    4.69
   3   0  -1   30.40    6.39
  -3   0   1   20.99    3.66
   3   0  -1   21.41    5.35
   3   0  -1   28.78    5.07
  -3   0   1   34.47    6.73
  -3   0   1   29.24    4.22
  -3   0   1   47.58    6.87
  -1  -4  -2  731.76   46.10
  -1  -4  -2  730.78   60.55
  -1  -4  -2  832.01   61.82
   1   4   2  736.94   48.23
   1   4   2  727.35   53.31
   1   4   2  736.37   32.19
  -1  -4  -2  718.98   44.10
  -3  -1  -4    2.74    2.21
   3   1   4   -2.27    2.46
  -3  -1  -4   -0.84    2.78
   3   1   4   -1.13    3.47
  -3  -1  -4   -2.96    2.43
  -3  -1  -4    2.57    3.02
   3   1   4   -1.76    3.11
  -3   1  -3 1369.06   98.91
   3  -1   3 1363.04   82.52
  -3   1  -3 1377.69   87.17
  -3   1  -3 1484.97  113.35
   3  -1   3 1369.77  114.30
   3  -1   3 1360.70   81.38
   3  -1   3 1377.14  121.36
  -3   1  -3 1355.87   76.55
   2   4   1  186.80   19.43
  -2  -4  -1  205.45   13.76
   2   4   1  200.59   15.82
  -2  -4  -1  209.32   12.63
  -2  -4  -1  191.35   22.03
  -2  -4  -1  169.69   14.62
   2   4   1  222.20   14.79
   0   4  -1   -0.63    0.96
   0   4  -1    5.19    3.47
   0   4  -1   -1.11    4.06
   0  -4   1    1.83    3.47
   0  -4   1   14.57    5.32
   0  -4   1   -0.72    2.41
   0   4  -1   -0.88    2.92
  -2   3  -1 1285.39   88.23
  -2   3  -1 1253.66   77.84
  -2   3  -1 1201.20   87.88
   2  -3   1 1231.39   79.51
   2  -3   1 1308.76   82.00
   2  -3   1 1261.51   63.14
   2  -3   1 1280.00   96.71
  -2   3  -1 1294.70   77.91
   0   3  -3  215.38   21.49
   0   3  -3  195.47   19.89
   0  -3   3  216.66   21.86
   0   3  -3  214.09   11.32
   0  -3   3  240.54   14.41
   0  -3   3  177.69   16.68
   0  -3   3  213.52   14.79
  -2  -4  -2   -1.85    2.23
  -2  -4  -2   -0.57    3.15
  -2  -4  -2   -0.18    2.49
  -2  -4  -2    1.73    3.67
   2   4   2    0.43    3.44
   2   4   2    1.64    2.24
   2   4   2    1.59    3.64
  -1  -4   1 2776.38  221.37
  -1  -4   1 2740.25  156.07
   1   4  -1 2740.99  177.18
   1   4  -1 2647.45   76.15
   1   4  -1 2778.10  200.46
   1   4  -1 2805.93  166.68
  -1  -4   1 2865.48  293.27
  -1   2  -4  480.03   36.49
  -1   2  -4  457.21   56.69
  -1   2  -4  427.54   29.44
   1  -2   4  467.28   36.77
   1  -2   4  424.36   70.24
   1  -2   4  463.08   32.18
  -1   2  -4  447.61   34.00
  -2   2   2  127.11    9.86
  -2   2   2  117.61   10.08
  -2   2   2  128.68   12.44
  -2   2   2  132.22   13.40
   2  -2  -2  112.92   15.11
   2  -2  -2  146.54   10.51
   2  -2  -2  142.96   10.66
  -3   0  -4  566.06   38.81
  -3   0  -4  526.11   36.48
   3   0   4  581.18   58.59
  -3   0  -4  570.07   32.51
  -3   0  -4  565.14   27.05
   3   0   4  563.46   34.97
   3   0   4  556.14   31.41
   3   0   4  499.08   35.73
   2  -3   0 1077.77   71.77
  -2   3   0  964.11   52.98
  -2   3   0 1020.04   74.06
  -2   3   0 1063.50   60.48
   2  -3   0 1032.41   61.99
   2  -3   0 1042.52   78.48
   1   0  -4   85.01    8.49
  -1   0   4   97.49    9.70
   1   0  -4   93.43    5.79
  -1   0   4  119.01   11.63
  -1   0   4  103.67   14.11
  -1   0   4   91.06    8.61
   1   0  -4  101.08    7.03
  -3  -2   1  125.11   11.89
   3   2  -1  132.22   13.75
   3   2  -1  117.34   10.58
   3   2  -1  107.89    7.96
  -3  -2   1  139.76    8.75
  -3  -3  -3 1476.88   91.94
  -3  -3  -3 1445.67  160.26
   3   3   3 1410.61  108.06
   3   3   3 1552.30   92.64
   3   3   3 1516.19  100.20
  -3  -3  -3 1425.55   59.12
  -2   0   3  107.11   12.04
  -2   0   3   78.18    7.41
   2   0  -3   68.86    6.97
   2   0  -3   78.16    9.46
   2   0  -3   69.24    3.86
  -2   0   3   81.39    8.84
  -2   0   3   79.21    7.62
  -2   0   3   80.37    9.47
   3   2   4  109.53    8.81
   3   2   4  108.15   11.10
  -3  -2  -4   93.11    8.34
  -3  -2  -4  124.10   11.70
   3   2   4  143.38   13.21
  -3  -2  -4  135.57   13.15
  -3  -2  -4  144.48   12.83
  -1  -3  -4  967.54   92.82
  -1  -3  -4  974.87   60.11
   1   3   4  947.94   71.94
   1   3   4 1050.32   94.06
  -1  -3  -4  950.99   77.63
  -1  -3  -4 1064.92   93.03
  -1  -3  -4  981.69   61.69
   2   3   4  531.02   25.00
   2   3   4  504.44   41.02
  -2  -3  -4  476.25   29.52
  -2  -3  -4  488.05   34.43
  -2  -3  -4  506.91   43.75
   2   3   4  508.67   47.18
   3   3   0    5.47    3.93
   3   3   0    6.40    3.74
  -3  -3   0    4.18    4.89
  -3  -3   0   -2.76    3.17
  -3  -3   0    1.49    2.96
   3   3   0    1.57    4.94
  -2  -4   0   12.14    4.54
   2   4   0    3.57    2.83
  -2  -4   0   13.86    5.10
  -2  -4   0   15.02    3.29
  -2  -4   0    3.96    3.46
   2   4   0    7.34    4.18
   2   4   0    9.01    3.38
   1  -3   3  373.66   33.80
   1  -3   3  393.35   60.31
   1  -3   3  304.18   22.06
  -1   3  -3  363.66   21.66
  -1   3  -3  381.86   49.33
  -1   3  -3  348.66   25.43
  -1   3  -3  360.98   41.22
  -1   3  -3  332.60   19.30
   0  -2   4   13.25    3.51
   0  -2   4    9.08    4.89
   0   2  -4   10.43    4.03
   0   2  -4   16.76    4.39
   0  -2   4   13.35    3.46
   0   2  -4   11.78    4.05
   0   2  -4   12.28    2.19
   2   1  -3   28.54    4.96
   2   1  -3   27.97    3.80
  -2  -1   3   26.30    5.21
  -2  -1   3   30.31    5.64
  -2  -1   3   18.80    5.47
   0   4   2  723.18   66.47
   0   4   2  734.21   42.89
   0   4   2  757.61   49.21
   0  -4  -2  781.71   46.40
   0  -4  -2  754.97   44.74
   0  -4  -2  735.99   45.92
   0  -4  -2  760.69   50.90
   0  -4  -2  778.57   62.31
   1   1   5  364.36   28.92
  -1  -1  -5  341.52   33.58
  -1  -1  -5  372.95   23.11
  -1  -1  -5  310.37   27.05
  -1  -1  -5  363.05   26.55
  -1  -1  -5  349.03   28.77
   1   1   5  337.65   24.64
   1   0   5 1899.11  119.90
  -1   0  -5 1771.49   89.48
   1   0   5 1893.01   99.26
  -1   0  -5 1935.72  211.75
  -1   0  -5 1883.49  225.98
  -1   0  -5 1920.92  123.97
   1   0   5 1915.12  147.14
   3  -1  -1    0.72    2.20
  -3   1   1   -1.88    3.43
  -3   1   1   -2.73    2.67
   3  -1  -1   -0.54    2.81
   3  -1  -1    9.77    4.32
   3  -1  -1    3.51    3.14
   3  -1  -1    3.28    4.62
  -3   1   1    8.47    2.98
   1   1  -4   34.58    5.28
  -1  -1   4   37.66    6.70
  -1  -1   4   44.45    5.38
  -1  -1   4   35.95    6.14
   1   1  -4   44.12    6.58
   1   1  -4   46.18    3.30
   1   1  -4   39.32    3.37
  -1  -1   4   47.59    6.71
   2  -3   2  291.30   25.01
  -2   3  -2  295.04   20.72
  -2   3  -2  265.51   20.69
   2  -3   2  261.36   17.36
  -2   3  -2  268.66   12.66
  -2   3  -2  264.11   17.42
   2  -3   2  297.78   16.29
   2  -3   2  307.86   24.61
   2   1   5  461.77   44.94
   2   1   5  465.64   30.60
   2   1   5  493.54   36.93
  -2  -1  -5  450.08   32.05
  -2  -1  -5  488.66   26.45
  -2  -1  -5  481.94   28.58
  -2  -1  -5  505.32   23.24
   2   1   5  499.82   32.42
  -1   1   4  499.86   45.16
   1  -1  -4  486.50   48.07
  -1   1   4  522.26   56.37
  -1   1   4  483.73   59.42
  -1   1   4  439.57   26.98
   1  -1  -4  485.02   23.71
   1  -1  -4  491.05   39.03
   1  -1  -4  527.41   37.46
   1  -1  -4  499.27   35.23
   3  -2   1   -0.32    2.94
   3  -2   1    2.10    4.64
   3  -2   1   -0.84    3.43
  -3   2  -1   -1.90    2.61
  -3   2  -1   -1.98    2.63
  -3   2  -1    0.62    4.53
  -3   2  -1    3.39    3.79
   3  -2   1    2.69    3.34
  -2  -3   2  889.87   55.80
   2   3  -2  921.10   81.42
  -2  -3   2  822.90   54.42
   2   3  -2  848.04   78.82
   2   3  -2  825.43   57.62
  -2  -3   2  828.53   49.23
  -2   0  -5  462.85   33.45
  -2   0  -5  465.29   40.34
   2   0   5  409.32   19.93
   2   0   5  420.07   29.39
   2   0   5  473.93   36.55
  -2   0  -5  400.96   30.53
   1  -4   0    0.30    4.75
   1  -4   0   -0.14    2.98
  -1   4   0    4.03    3.38
  -1   4   0   -3.43    2.95
  -1   4   0   -1.02    1.51
  -1   4   0    0.48    2.99
  -1  -4  -3 1207.66   87.63
  -1  -4  -3 1211.98   88.63
   1   4   3 1210.40  111.96
   1   4   3 1196.66   83.03
   1   4   3 1180.27   39.31
  -1  -4  -3 1185.75   60.52
  -1  -4  -3 1142.48   90.55
  -1  -4  -3 1215.70   64.52
  -3   2  -2   99.98    8.96
   3  -2   2  104.78    9.89
   3  -2   2  100.88    8.54
   3  -2   2   88.53   10.59
   3  -2   2  124.71   13.79
  -3   2  -2   94.50   10.30
  -3   2  -2  134.41   10.25
  -3   2  -2  131.40   12.10
   2  -1  -3  225.60   19.42
   2  -1  -3  261.78   14.21
   2  -1  -3  208.10   18.60
  -2   1   3  233.17   26.68
   2  -1  -3  212.12   20.68
  -2   1   3  244.66   21.96
  -2   1   3  223.04   12.98
  -2   1   3  207.68   23.24
   2  -3  -1   25.29    5.65
  -2   3   1   24.65    5.19
  -2   3   1   19.29    5.91
  -2   3   1   13.21    3.22
  -2   3   1   27.17    6.54
   2  -3  -1   30.43    5.48
   2  -3  -1   21.71    2.77
   2  -3  -1   22.34    4.81
   2   4   3   29.03    3.89
  -2  -4  -3   35.00    4.92
   2   4   3   25.27    4.38
  -2  -4  -3   32.95    4.78
  -2  -4  -3   32.62    5.73
   2   4   3   25.91    4.27
  -2  -4  -3   24.44    6.68
  -1  -3   3  220.46   15.77
  -1  -3   3  190.44   20.65
   1   3  -3  218.78   19.04
   1   3  -3  181.45    8.65
   1   3  -3  190.82   14.71
  -1  -3   3  201.35   18.66
  -1  -3   3  201.25   13.10
   1  -4   1   29.93    6.57
   1  -4   1   40.80    7.76
   1  -4   1   42.90    5.52
  -1   4  -1   27.16    5.35
  -1   4  -1   33.45    5.97
  -1   4  -1   28.41    7.83
  -1   4  -1   31.60    1.92
   4   1   2    7.43    3.77
  -4  -1  -2    2.26    3.76
   4   1   2   -4.81    3.18
  -4  -1  -2   -2.24    3.20
  -4  -1  -2   -2.43    3.65
  -4  -1  -2   -2.93    3.06
   4   1   2    0.27    3.17
  -2   2  -4    1.29    3.02
   2  -2   4    0.04    3.35
   2  -2   4    4.94    3.61
  -2   2  -4   -2.06    3.77
  -2   2  -4   -2.01    3.47
   2  -2   4    3.63    3.35
  -2   2  -4   -0.79    2.67
   0   4  -2   13.27    3.68
   0   4  -2   20.64    4.93
   0  -4   2   12.52    4.41
   0  -4   2    8.77    4.34
   0  -4   2   14.83    4.82
   0   4  -2    6.65    4.20
   3  -2   0  476.15   33.31
   3  -2   0  482.44   52.91
  -3   2   0  458.07   38.08
  -3   2   0  482.07   35.67
  -3   2   0  484.27   50.57
   3  -2   0  519.60   35.15
   3  -2   0  516.55   35.85
  -2  -2  -5   11.96    3.96
  -2  -2  -5   11.37    4.82
  -2  -2  -5   15.65    2.32
   2   2   5   13.22    2.41
   2   2   5   22.89    4.78
  -2  -2  -5   12.62    2.11
  -1   4   1   55.12   11.58
   1  -4  -1   42.14    5.59
  -1   4   1   43.80    5.83
   1  -4  -1   48.67    4.19
  -1   4   1   52.33    5.89
   1  -4  -1   49.40    7.46
   1  -4  -1   45.02    5.62
   1  -4  -1   39.81    3.37
  -1  -2  -5 2379.61  168.58
  -1  -2  -5 2429.54  298.49
  -1  -2  -5 2399.07  165.23
   1   2   5 2420.12  122.27
   1   2   5 2051.34  168.31
  -1  -2  -5 1950.70   97.19
  -1  -2  -5 2358.19  185.19
   1  -3  -3 1364.02  115.13
   1  -3  -3 1443.65   85.37
  -1   3   3 1451.66  132.21
  -1   3   3 1403.19   99.47
   1  -3  -3 1394.15   92.02
  -1   3   3 1388.26  153.43
   1  -3  -3 1447.09  109.34
  -1   3   3 1418.30   77.55
  -1   1  -5 3000.22  192.11
   1  -1   5 2967.31  234.91
   1  -1   5 2983.86  223.60
  -1   1  -5 3236.33  294.45
  -1   1  -5 2984.68  142.29
  -1   1  -5 3090.05  166.47
  -3   1  -4   87.89    7.56
  -3   1  -4   73.57    7.67
  -3   1  -4   66.35    5.99
   3  -1   4   66.57    7.67
   3  -1   4   76.50    9.92
   3  -1   4   83.24    8.34
  -3   1  -4   50.43    6.66
   4   1   1 2507.32  134.00
   4   1   1 2528.00  247.99
   4   1   1 2553.88  170.65
  -4  -1  -1 2514.02  148.04
  -4  -1  -1 2659.10  186.11
  -4  -1  -1 2379.47  162.04
  -4  -1  -1 2538.10  212.53
  -4  -1  -1 2519.88  135.94
  -2  -2   3  131.37   11.58
   2   2  -3  217.37   19.70
   2   2  -3  190.51   15.92
  -2  -2   3  189.62   24.08
   0   0  -5  540.15   28.33
   0   0   5  512.22   29.59
   0   0   5  556.38   25.77
   0   0   5  583.81   28.96
   0   0   5  571.69   54.92
   0   0  -5  543.41   29.47
   0   0  -5  525.61   72.19
  -4  -2  -2   96.51   11.62
  -4  -2  -2   86.93    8.58
  -4  -2  -2   88.81    9.03
   4   2   2   78.27   10.01
   4   2   2   60.81    7.10
   4   2   2   86.45   10.80
  -2  -4   1   41.84    5.91
  -2  -4   1   39.84    5.75
   2   4  -1   44.55    5.73
   2   4  -1   58.22    9.76
   2   4  -1   44.66    6.08
  -2  -4   1   36.81    6.84
   0   3   4   61.58    6.61
   0   3   4   31.64    7.77
   0  -3  -4   54.28    6.65
   0  -3  -4   40.28    2.46
   0   3   4   50.09    4.04
   0  -3  -4   41.93    7.90
   0  -3  -4   52.27    4.46
   0  -3  -4   70.35    7.28
  -3  -1   2   19.08    6.00
  -3  -1   2   15.82    3.70
  -3  -1   2   19.25    3.15
   3   1  -2   11.97    3.66
   3   1  -2    9.79    5.02
   3   1  -2   20.62    5.36
  -4  -1  -3 4556.61  239.34
   4   1   3 4452.31  466.53
   4   1   3 4537.34  271.84
   4   1   3 4733.45  309.55
  -4  -1  -3 4488.30  332.05
  -4  -1  -3 4460.03  394.58
  -3  -3  -4  162.58   15.59
  -3  -3  -4  162.46   13.00
   3   3   4  168.41   15.00
   3   3   4  186.13   15.62
   3   3   4  184.66   13.46
  -3  -3  -4  165.62   14.54
  -4   0  -2   10.69    6.95
   4   0   2    6.55    6.54
   4   0   2    4.76    3.19
  -4   0  -2   -0.36    2.90
  -4   0  -2    2.52    6.40
  -4   0  -2   -0.37    4.51
   4   0   2   -4.01    4.49
  -3   0   2    9.18    3.50
  -3   0   2   11.84    2.64
  -3   0   2   11.90    3.88
   3   0  -2   20.44    4.15
   3   0  -2   16.09    4.30
   3   0  -2    7.00    3.51
   3   0  -2   10.11    3.73
  -3   0   2   16.56    3.66
   0   1   5  495.78   30.84
   0  -1  -5  462.84   30.04
   0  -1  -5  453.84   37.27
   0  -1  -5  496.23   46.38
   0  -1  -5  499.91   38.65
   0   1   5  508.82   51.71
   0   1   5  497.28   78.58
   1   4  -2   34.09    5.79
   1   4  -2   45.62    5.43
   1   4  -2   47.13    5.87
  -1  -4   2   44.91    5.40
  -1  -4   2   48.10    8.83
  -1  -4   2   27.36    6.62
  -3  -3   1   38.98    6.34
  -3  -3   1   41.22    5.23
   3   3  -1   51.78    6.39
   3   3  -1   45.70    6.61
   3   3  -1   32.86    6.32
  -3  -4  -2  165.73   16.83
   3   4   2  181.74   14.22
   3   4   2  149.11   11.79
   3   4   2  164.48   14.06
  -3  -4  -2  152.14   10.89
  -3  -4  -2  139.02   11.03
  -4  -2  -1  767.36   74.46
  -4  -2  -1  718.64   41.72
  -4  -2  -1  684.26   52.29
   4   2   1  689.56   49.56
   4   2   1  738.08   78.10
   4   2   1  620.55   47.24
  -4   0  -1    3.48    5.69
   4   0   1    0.96    4.46
  -4   0  -1    1.17    3.68
  -4   0  -1   10.68    5.73
   4   0   1    0.94    3.96
  -4   0  -1    4.57    3.94
   4   0   1   -0.14    3.37
   3  -2   3  896.71   64.57
   3  -2   3  865.40   58.34
  -3   2  -3  887.75   44.57
  -3   2  -3  865.85   58.35
  -3   2  -3  848.09   68.66
  -3   2  -3  825.61   55.65
   3  -2   3  854.69   48.64
  -1  -2   4 1321.90  131.85
  -1  -2   4 1280.79   80.71
  -1  -2   4 1317.07  117.24
   1   2  -4 1379.29  106.27
   1   2  -4 1405.66   58.63
   1   2  -4 1290.84   55.27
  -2   3  -3   55.14    7.97
  -2   3  -3   50.26   11.49
   2  -3   3   57.17    6.68
   2  -3   3   62.26    9.26
   2  -3   3   59.38    9.28
  -2   3  -3   51.10    8.68
  -2   3  -3   55.34    5.80
   2  -1   5    5.92    3.12
  -2   1  -5    7.80    4.70
  -2   1  -5    4.00    3.49
   2  -1   5    0.03    2.48
  -2   1  -5    3.10    3.07
  -2   1  -5    1.89    2.80
   1  -2  -4  885.74   39.57
   1  -2  -4  917.11   50.26
   1  -2  -4  941.09   51.06
  -1   2   4  864.77   59.17
  -1   2   4  907.26   96.26
   1  -2  -4  941.58   98.06
   1  -2  -4  879.83   61.26
  -1   2   4  963.84   78.50
  -3  -4  -1   49.10    7.46
  -3  -4  -1   43.19    6.32
   3   4   1   37.15    6.21
  -3  -4  -1   41.99    5.99
   3   4   1   41.09    6.16
   3   4   1   27.40    5.44
  -4  -2  -3   11.95    3.30
  -4  -2  -3   28.24    6.07
   4   2   3   18.08    4.80
   4   2   3   21.45    3.94
   4   2   3   12.00    4.20
  -4  -2  -3   16.46    4.01
   3   1   5    8.87    4.21
   3   1   5   -1.49    2.27
   3   1   5   -1.70    2.49
  -3  -1  -5   -1.46    3.15
  -3  -1  -5    0.92    2.81
  -3  -1  -5    1.13    2.32
  -3  -1  -5    1.43    2.87
   1  -4   2   13.47    5.35
   1  -4   2    5.89    4.51
   1  -4   2   13.79    5.29
  -1   4  -2    9.41    2.33
  -1   4  -2   17.33    4.62
  -1   4  -2   14.07    4.64
  -1   4  -2    7.64    4.80
   0  -4  -3  825.49   43.47
   0  -4  -3  853.37   51.72
   0   4   3  810.65   27.98
   0   4   3  785.43   51.10
   0  -4  -3  855.82   68.61
   0  -4  -3  814.52   38.58
   0  -4  -3  828.72   41.80
   0   4   3  741.08   54.87
   4   0   3    4.45    3.16
  -4   0  -3    4.96    3.59
  -4   0  -3   17.57    5.07
  -4   0  -3    7.44    4.26
   4   0   3   13.68    5.42
   4   0   3    1.42    4.56
  -4   0  -3    0.51    2.60
   0  -1   5  427.22   25.76
   0  -1   5  423.19   20.47
   0   1  -5  424.46   48.78
   0   1  -5  410.45   23.27
   0  -1   5  451.20   47.77
   0  -1   5  419.64   25.09
   0   1  -5  420.92   31.34
   0   1  -5  437.96   37.79
  -3  -2   2  192.44   12.85
  -3  -2   2  188.45   13.09
   3   2  -2  235.24   21.24
   3   2  -2  171.16   18.18
  -3  -2   2  155.33   11.30
   3   2  -2  194.71   19.87
  -4  -1   0   82.41    7.57
  -4  -1   0  112.34   11.29
   4   1   0   93.71   12.21
   4   1   0   72.41    8.55
   4   1   0  101.72   11.12
  -4  -1   0   65.10    5.28
  -4  -1   0   82.10    9.95
  -4  -1   0  109.65    9.71
  -3   0  -5  437.66   27.49
   3   0   5  415.93   35.64
   3   0   5  392.38   24.48
  -3   0  -5  432.39   33.00
  -3   0  -5  404.78   32.49
  -3   0  -5  410.60   30.79
   3   0   5  400.72   26.18
   3   0   5  373.97   28.45
  -3  -2  -5  941.24   67.16
  -3  -2  -5  904.50   71.44
   3   2   5  960.61   68.69
   3   2   5  985.35   70.61
  -3  -2  -5  878.06   49.41
  -3  -2  -5  971.30   94.32
   3   2   5  986.51   92.56
   3  -2  -1  229.53   17.89
   3  -2  -1  157.48   16.35
  -3   2   1  171.87   15.49
  -3   2   1  176.21   15.59
  -3   2   1  152.64   16.46
   3  -2  -1  223.80   13.08
   3  -2  -1  203.83   16.84
  -3  -4  -3  367.90   24.38
   3   4   3  365.99   18.69
  -3  -4  -3  381.56   29.74
  -3  -4  -3  408.50   32.44
   3   4   3  371.64   30.31
   3   4   3  345.51   28.15
   2  -2  -3   14.42    3.53
   2  -2  -3   21.41    4.21
   2  -2  -3   16.10    4.49
  -2   2   3   10.50    4.29
  -2   2   3   14.82    4.18
  -2   2   3   15.57    3.77
   2  -2  -3   20.78    3.55
  -1   4   2   64.79    9.30
  -1   4   2   58.71    6.09
  -1   4   2   69.85   14.65
  -1   4   2   91.79    9.75
   1  -4  -2   87.47    6.22
   1  -4  -2   70.83   12.49
   1  -4  -2   63.29    7.77
  -3   1   2  191.99   28.65
   3  -1  -2  156.14   13.81
   3  -1  -2  230.97   18.41
   3  -1  -2  192.17   14.25
   3  -1  -2  144.24   14.62
   3  -1  -2  182.19   17.22
  -3   1   2  198.78   32.99
  -3   1   2  170.09   17.40
   2  -3  -2  451.75   27.42
  -2   3   2  371.87   31.84
   2  -3  -2  383.77   40.85
   2  -3  -2  369.55   24.61
  -2   3   2  394.73   35.79
  -2   3   2  381.21   20.51
  -2   3   2  356.17   24.29
   2  -3  -2  428.08   34.59
  -1   3  -4 3067.47  305.15
  -1   3  -4 3010.16  235.05
  -1   3  -4 2887.64  186.11
  -1   3  -4 3014.53  203.08
   1  -3   4 2923.99  122.03
   1  -3   4 2880.60  236.88
   1  -3   4 2936.14  162.74
   1   5   1    2.80    3.21
  -1  -5  -1   11.97    3.23
  -1  -5  -1    1.65    3.46
   0  -3   4    0.43    2.37
   0  -3   4    3.46    1.86
   0  -3   4    2.29    2.89
   0   3  -4    3.16    2.35
   0   3  -4   -3.31    5.07
   0   3  -4    9.61    4.18
   0  -3   4    4.29    4.19
   0   2   5   57.66    3.81
   0   2   5   44.82    6.58
   0  -2  -5   60.60    8.74
   0  -2  -5   47.14    3.59
   0  -2  -5   58.16    2.98
   0   2   5   48.28    3.78
   0  -2  -5   59.37    6.60
   0  -2  -5   53.94    8.52
   2   4   4  457.50   25.03
   2   4   4  513.39   34.23
   2   4   4  476.98   24.07
  -2  -4  -4  483.29   40.53
  -2  -4  -4  485.93   29.61
  -2  -4  -4  457.80   23.56
   3   4   0   41.27    7.07
   3   4   0   28.48    5.66
  -3  -4   0   27.61    5.07
  -3  -4   0   31.69    6.49
  -3  -4   0   21.29    4.52
  -3  -4   0   17.39    4.19
   3   4   0   19.54    6.25
  -2  -3  -5   48.28    7.76
  -2  -3  -5   43.04    4.10
   2   3   5   35.18    5.18
  -2  -3  -5   47.85    4.94
   2   3   5   41.91    4.55
   4   3   2  410.22   45.44
  -4  -3  -2  367.01   30.64
  -4  -3  -2  363.60   23.37
  -4  -3  -2  428.44   43.25
   4   3   2  423.22   37.32
   4   3   2  361.64   25.86
  -4   0   0   10.00    4.03
   4   0   0   11.11    3.88
   4   0   0    6.98    3.23
   4   0   0   16.35    4.27
  -4   0   0   14.64    3.80
  -4   0   0   10.96    3.76
  -4   0   0   19.75    5.56
  -4  -1  -4   29.21    6.43
  -4  -1  -4   10.29    4.79
  -4  -1  -4   24.08    6.87
   4   1   4   27.99    6.88
   4   1   4   20.75    6.10
   4   1   4   12.63    6.00
  -4  -2   0   54.48    8.52
  -4  -2   0   57.64   10.07
  -4  -2   0   60.59    7.82
  -4  -2   0   62.50    8.21
   4   2   0   70.16    9.92
   4   2   0   62.41   10.00
   4   2   0   46.94    7.52
  -1  -5   0   29.26    5.82
  -1  -5   0   32.46    6.24
   1   5   0   43.49    5.29
  -1  -5   0   31.77    5.05
   1   5   0   46.50    5.86
   1   5   0   32.48    5.78
   1   5   0   45.34    3.94
  -1  -4  -4   94.35   10.17
  -1  -4  -4   78.40    7.15
   1   4   4   78.97    6.84
  -1  -4  -4   84.03    6.02
  -1  -4  -4   88.03    9.84
  -1  -4  -4   92.35    6.21
   4  -1   2 2581.74  216.73
  -4   1  -2 2592.73  213.38
  -4   1  -2 2598.22  167.85
  -4   1  -2 2578.99  252.86
   4  -1   2 2727.16  212.64
   4  -1   2 2600.95  326.19
   4  -1   2 2697.82  156.54
  -1  -3  -5    4.37    3.33
  -1  -3  -5    8.18    3.39
  -1  -3  -5   21.03    4.62
  -1  -3  -5    7.75    3.58
   4   2   4  385.23   28.60
  -4  -2  -4  412.21   27.56
  -4  -2  -4  406.05   29.66
  -4  -2  -4  401.33   29.18
  -4  -2  -4  376.61   28.62
   4   2   4  379.61   30.47
   4   2   4  362.65   26.38
   4   3   1   89.62   11.40
  -4  -3  -1   78.55    9.83
  -4  -3  -1  102.44   11.33
   4   3   1   88.56   11.42
  -4  -3  -1   72.43    6.95
   4   3   1   85.65   11.60
  -1   2  -5    4.03    4.65
  -1   2  -5   10.40    3.78
  -1   2  -5    1.81    2.53
  -1   2  -5    5.31    3.77
   1  -2   5    6.55    4.13
   1  -2   5   15.01    5.24
  -4  -3  -3  205.68   19.85
   4   3   3  253.43   18.98
   4   3   3  239.14   33.57
   4   3   3  238.92   22.86
  -4  -3  -3  275.46   22.89
  -4  -3  -3  222.44   31.03
   4  -1   1  426.49   51.17
  -4   1  -1  414.90   45.97
  -4   1  -1  442.89   23.55
  -4   1  -1  399.08   31.33
   4  -1   1  409.69   59.54
  -4   1  -1  384.24   22.16
   4  -1   1  409.99   30.02
   4  -1   1  394.81   23.29
   4  -1   1  428.97   38.44
   1   5   2  228.06   13.86
  -1  -5  -2  214.32   20.32
  -1  -5  -2  197.35   14.97
  -1  -5  -2  202.05   17.88
   1   5   2  206.49   14.24
   1   5   2  194.74   17.47
  -1  -5  -2  207.63   17.74
  -1  -5  -2  188.58   20.43
   1   5   2  184.84   20.45
   0  -4   3    8.26    1.69
   0  -4   3    6.42    3.72
   0   4  -3    2.69    3.59
   0   4  -3   16.19    3.73
   0   4  -3    3.92    4.41
   0  -4   3   10.94    2.92
   0  -4   3   13.48    4.30
   0   5   0  518.28   45.88
   0  -5   0  519.96   44.81
   0  -5   0  524.51   50.32
   0  -5   0  609.23   56.65
   0  -5   0  555.95   40.75
   0   5   0  556.39   61.07
   0   5   0  526.76   33.29
   0   5   0  589.24   39.44
  -2  -5  -1 2251.14  252.88
   2   5   1 2275.97  106.34
  -2  -5  -1 2273.35   83.33
  -2  -5  -1 2383.24  196.62
  -2  -5  -1 2210.99  220.27
   2   5   1 2333.94  160.09
   2   5   1 2125.70  173.03
  -2  -3   3   46.11    6.50
  -2  -3   3   29.00    2.23
  -2  -3   3   51.79    7.50
   2   3  -3   23.51    5.82
   2   3  -3   28.83    5.28
   4   0   4  431.58   36.73
   4   0   4  399.80   43.27
   4   0   4  478.79   56.66
  -4   0  -4  462.43   35.93
  -4   0  -4  455.49   24.82
  -4   0  -4  419.74   31.93
   4   0   4  492.37   36.91
   0   5   1 1323.02   75.93
   0   5   1 1143.94   80.77
   0   5   1 1314.92   87.83
   0  -5  -1 1261.90   71.38
   0  -5  -1 1301.08   70.20
   0  -5  -1 1258.51  100.14
   0  -5  -1 1258.95  102.28
   2   0  -4  417.08   31.34
   2   0  -4  444.52   41.15
  -2   0   4  356.92   29.57
  -2   0   4  410.32   27.90
  -2   0   4  414.40   22.56
  -2   0   4  421.77   30.86
   2   0  -4  447.33   42.14
   2   4  -2  117.07    9.37
   2   4  -2   94.49   11.03
  -2  -4   2   99.33    5.71
  -2  -4   2  103.19   12.75
  -2  -4   2   88.17    9.42
   2   4  -2  105.51   11.69
   2   5   2  135.36    7.96
  -2  -5  -2  135.88   12.78
  -2  -5  -2  128.84   12.42
  -2  -5  -2  145.56   10.58
  -2  -5  -2  148.85   11.56
   2   5   2  118.46   11.34
   2   5   2  125.40   10.35
  -3   2  -4  116.31    9.92
  -3   2  -4  123.00    8.53
  -3   2  -4  122.43   12.83
   3  -2   4  145.62   10.21
  -3   2  -4  110.93   10.34
   3  -2   4  105.75   11.27
   3  -2   4  107.83    9.26
  -2   4  -1   29.48    6.21
  -2   4  -1   39.79    6.10
  -2   4  -1   27.16    3.27
  -2   4  -1   33.62    2.94
  -2   4  -1   33.46    6.66
   2  -4   1   30.23    6.71
   2  -4   1   51.17    8.80
   2  -4   1   36.21    6.22
   2  -4   1   39.69    3.48
   3  -3   1  531.20   46.02
   3  -3   1  555.24   32.37
   3  -3   1  469.23   38.59
   3  -3   1  510.95   29.01
  -3   3  -1  491.65   30.35
  -3   3  -1  541.70   37.13
  -3   3  -1  481.23   29.05
  -3   3  -1  502.35   20.78
   4  -1   3   52.85    6.56
   4  -1   3   52.41    7.03
   4  -1   3   39.10    6.19
   4  -1   3   50.36    7.02
  -4   1  -3   46.29    8.77
  -4   1  -3   35.79    6.17
  -4   1  -3   38.16    8.05
  -4   1  -3   45.50    5.40
  -2   4   0  220.57   14.12
  -2   4   0  214.01   26.22
  -2   4   0  232.29   15.65
   2  -4   0  249.72   18.40
   2  -4   0  223.02   15.82
   2  -4   0  221.87   19.44
   2  -4   0  191.40   14.72
  -2   4   0  255.72   19.80
  -2  -1   4  321.31   20.38
  -2  -1   4  304.03   17.53
  -2  -1   4  283.89   24.26
  -2  -1   4  281.18   16.18
   2   1  -4  349.17   25.07
   2   1  -4  267.20   15.21
   0   2  -5  546.60   66.85
   0  -2   5  544.91   29.12
   0   2  -5  541.23   20.64
   0   2  -5  535.91   39.44
   0  -2   5  571.43   83.84
   0  -2   5  575.73   48.79
   0   2  -5  573.86   34.93
  -1   4  -3    3.82    2.37
  -1   4  -3    1.92    5.77
  -1   4  -3    2.13    5.69
   1  -4   3    0.26    4.56
  -1   4  -3   -1.93    2.28
   1  -4   3   -0.86    5.51
   1  -4   3    0.91    4.55
   3  -1   5  144.79   14.02
  -3   1  -5  153.51   15.67
  -3   1  -5  134.12   11.92
  -3   1  -5  152.66   15.46
  -3   1  -5  142.13   11.69
   1   0  -5 1907.16  115.96
   1   0  -5 1893.99  141.72
  -1   0   5 1664.89  179.63
  -1   0   5 1900.93  205.75
  -1   0   5 1895.19  171.67
  -1   0   5 1797.92  148.76
   1   0  -5 1943.78   90.99
   1   0  -5 1909.35  187.02
   3   3   5  535.83   52.34
   3   3   5  523.34   61.61
  -3  -3  -5  533.15   64.10
  -3  -3  -5  535.35   37.29
  -3  -3  -5  527.34   29.64
   3   3   5  552.46   44.61
   3  -3   2  251.43   22.73
  -3   3  -2  209.30   16.72
  -3   3  -2  246.46   19.25
  -3   3  -2  263.89   27.38
  -3   3  -2  265.94   20.30
   3  -3   2  254.69   23.01
   3  -3   2  244.00   15.12
   2   5   0 1175.20   75.51
   2   5   0 1106.98   73.14
  -2  -5   0 1162.83  101.26
  -2  -5   0 1165.33  110.56
  -2  -5   0 1123.64   38.28
   2   5   0 1095.54   71.22
  -1  -5   1 1107.32   66.59
  -1  -5   1 1138.36   88.07
  -1  -5   1 1118.94   69.27
   1   5  -1 1032.13   91.20
   1   5  -1 1073.89   68.44
   1   5  -1 1074.12   55.43
   1   5  -1 1059.20   50.39
  -3  -4  -4  186.00   15.36
   3   4   4  189.54   15.91
   3   4   4  186.48   19.59
  -3  -4  -4  205.08   13.63
   3   4   4  194.86   12.03
  -3  -4  -4  173.01   24.70
  -2   2  -5  347.20   34.03
  -2   2  -5  345.59   27.28
  -2   2  -5  305.61   21.62
   2  -2   5  301.89   15.60
   2  -2   5  341.39   64.61
  -2   2  -5  358.94   28.65
  -2   2  -5  329.87   21.46
  -2  -1  -6   91.67   11.65
  -2  -1  -6  116.39   16.93
  -2  -1  -6   90.11    9.59
   2   1   6  103.40   14.24
   2   1   6   97.37    9.30
   2   1   6  103.68   15.81
  -2  -1  -6  112.21   13.43
  -2  -1  -6  112.36   11.80
   0  -5   1  331.56   20.61
   0   5  -1  374.89   25.94
   0   5  -1  348.25   33.65
   0   5  -1  350.75   26.33
   0  -5   1  370.55   32.79
   0  -5   1  330.63   25.20
   0   5  -1  359.84   40.27
  -2   3  -4  189.44   31.20
   2  -3   4  252.56   37.20
   2  -3   4  234.67   19.04
   2  -3   4  236.14   15.57
  -2   3  -4  218.60   13.81
  -2   3  -4  230.64   18.05
  -2   3  -4  254.25   19.81
  -3   3   0  333.81   20.84
  -3   3   0  324.92   25.95
  -3   3   0  352.80   23.30
   3  -3   0  319.79   21.67
   3  -3   0  348.03   17.19
   3  -3   0  357.59   27.43
   3  -3   0  312.95   20.31
  -3  -3   2  120.26   11.90
   3   3  -2  134.13   10.21
   3   3  -2  111.05   12.43
   3   3  -2   94.43    9.33
  -3  -3   2   94.97   12.19
  -3  -3   2   95.41    5.69
   1   4  -3  502.41   31.05
   1   4  -3  507.35   30.12
   1   4  -3  527.04   42.81
  -1  -4   3  494.25   53.04
  -1  -4   3  504.05   43.33
  -1  -4   3  481.47   23.42
  -1  -4   3  513.76   38.61
  -4   1   0 2470.09  109.36
   4  -1   0 2471.35  196.46
   4  -1   0 2484.23  170.01
  -4   1   0 2589.55  152.94
   4  -1   0 2446.95  185.28
  -4   1   0 2447.99  178.21
  -4   1   0 2289.07  174.98
   4  -1   0 2405.92  153.21
   4  -1   0 2396.98  163.40
  -1  -3   4 1527.08  152.78
   1   3  -4 1467.40   83.00
   1   3  -4 1538.32  139.26
  -1  -3   4 1461.46  111.85
  -1  -3   4 1475.24   99.47
  -1  -3   4 1399.33  153.03
   1   3  -4 1651.75  119.55
   2  -1  -4    1.96    2.81
  -2   1   4    4.57    2.82
   2  -1  -4   -0.23    2.89
   2  -1  -4   -3.96    2.65
  -2   1   4    3.36    3.10
  -2   1   4    5.19    2.72
   2  -1  -4    2.99    2.19
  -2   1   4    5.16    5.71
   1   1   6 1441.42  129.25
   1   1   6 1435.39   83.24
   1   1   6 1332.13   80.81
  -1  -1  -6 1556.42  154.95
  -1  -1  -6 1469.95  120.93
  -1  -1  -6 1424.08  101.43
  -1  -1  -6 1377.28   65.41
  -1  -1  -6 1423.83   66.14
   1  -3  -4  492.25   32.65
   1  -3  -4  530.44   65.60
  -1   3   4  484.37   35.43
  -1   3   4  482.57   34.09
  -1   3   4  525.49   31.92
   1  -3  -4  538.33   35.45
   1  -3  -4  512.04   39.10
   1  -3  -4  508.05   32.96
   4   1  -1 1568.97  117.82
  -4  -1   1 1644.05  172.64
  -4  -1   1 1498.34  124.79
   4   1  -1 1557.87  104.67
  -4  -1   1 1584.14   80.43
   4   1  -1 1635.33   94.33
  -4  -1   1 1440.80   79.85
  -2   4  -2  710.82   45.36
  -2   4  -2  691.02   42.73
  -2   4  -2  710.61   48.16
  -2   4  -2  675.97   66.33
   2  -4   2  659.33   41.26
   2  -4   2  692.21   32.43
   2  -4   2  753.29  115.71
  -1   1   5  152.32    7.71
  -1   1   5  146.13   16.32
   1  -1  -5  138.43   11.95
   1  -1  -5  130.17   14.81
   1  -1  -5  123.14   12.76
   1  -1  -5  128.30   13.69
  -1   1   5  120.68   14.46
   1  -1  -5  160.50   15.62
  -1   1   5  140.53   10.64
   2   0   6   67.08    9.13
  -2   0  -6   55.20    9.33
  -2   0  -6   72.82    8.01
   2   0   6   70.30   12.12
   2   0   6   57.60    6.42
  -2   0  -6   51.33    9.33
  -2   0  -6   69.62    8.33
  -1   0  -6  182.71   23.58
  -1   0  -6  170.04   13.06
  -1   0  -6  201.74   24.45
   1   0   6  154.22   11.92
   1   0   6  179.54   17.93
   1   0   6  160.05   15.04
  -4  -3   0    3.89    5.79
   4   3   0    6.82    4.63
   4   3   0   24.02    5.36
  -4  -3   0   18.54    7.35
  -4  -3   0    8.69    4.24
  -1  -1   5  947.71   97.60
  -1  -1   5  973.93   49.02
  -1  -1   5 1045.84  111.51
   1   1  -5 1008.59   70.68
  -1  -1   5  966.09  109.33
   1   1  -5  974.39  108.97
   1   1  -5  931.54   65.71
   1   1  -5  913.95   53.27
   4   3   4  581.63   46.12
   4   3   4  589.42   59.29
  -4  -3  -4  549.65   40.02
  -4  -3  -4  608.34   34.63
   4   3   4  582.36   32.08
  -4  -3  -4  603.42   53.73
   0   5   2  992.90   56.76
   0   5   2  946.20   81.52
   0  -5  -2  942.60   76.52
   0  -5  -2  938.59   49.68
   0  -5  -2  927.20   69.04
   0  -5  -2  904.68   66.74
   0  -5  -2  911.83   75.49
   0   5   2  900.25   54.07
  -3  -4   1   76.49    6.54
   3   4  -1   96.39   11.98
   3   4  -1   85.49    8.99
   3   4  -1   70.94    7.60
  -3  -4   1   61.19    9.04
  -3  -4   1   64.68    9.58
   0   4   4   25.93    3.67
   0  -4  -4   21.36    3.16
   0  -4  -4   29.43    5.81
   0  -4  -4   19.57    5.72
   0  -4  -4   15.81    2.32
   0  -4  -4   25.40    5.43
  -2  -5  -3  161.88   11.34
   2   5   3  155.98    7.94
  -2  -5  -3  132.13   13.43
  -2  -5  -3  150.61   11.55
  -2  -5  -3  137.10   11.33
   2   5   3  187.97   10.34
   2   5   3  142.60   11.31
  -3  -1   3   18.07    4.61
  -3  -1   3   17.40    2.38
   3   1  -3   22.61    5.38
   3   1  -3    9.62    3.89
  -3  -1   3   22.13    3.77
  -2   4   1   39.73    5.43
  -2   4   1   31.13    6.46
   2  -4  -1   31.14    3.72
   2  -4  -1   29.87    6.32
   2  -4  -1   40.84    4.65
  -2   4   1   43.36    7.07
  -2   4   1   46.25    6.23
  -3   2   2  395.14   29.38
   3  -2  -2  377.84   18.01
   3  -2  -2  384.36   46.48
  -3   2   2  391.41   36.33
  -3   2   2  354.87   18.99
   3  -2  -2  384.46   26.70
   3  -2  -2  420.10   42.11
   3  -2  -2  344.44   35.55
   3   0  -3   70.26   11.04
  -3   0   3   58.84    7.63
  -3   0   3   63.34    6.29
   3   0  -3   71.97    7.95
   3   0  -3   78.29    7.78
  -3   0   3   61.74    6.65
  -3   0   3   67.27    7.08
  -4   0   1    6.69    2.74
   4   0  -1    7.35    3.67
   4   0  -1    9.96    5.39
   4   0  -1    2.79    3.33
   4   0  -1    2.54    2.21
  -4   0   1   10.23    3.62
  -4   0   1    4.97    3.63
  -1  -5  -3 2286.26  140.03
  -1  -5  -3 2152.99   88.62
  -1  -5  -3 2185.83  140.13
  -1  -5  -3 2256.07  132.46
   1   5   3 2319.04  143.71
   1   5   3 2182.04   80.45
   1   5   3 2194.45  151.98
  -1  -5  -3 2291.96  112.31
   2   2   6  298.73   24.34
  -2  -2  -6  275.97   25.97
  -2  -2  -6  289.03   26.77
  -2  -2  -6  301.22   21.41
  -2  -2  -6  347.17   36.31
  -2  -2  -6  312.02   19.50
  -1   4   3    8.17    3.62
  -1   4   3   11.46    3.62
  -1   4   3    8.72    2.11
   1  -4  -3    0.44    3.14
   1  -4  -3   10.41    2.80
   1  -4  -3    6.88    2.59
  -1   4   3    1.68    4.28
   1  -4  -3    5.98    4.11
   4   2  -1 1424.91  124.03
  -4  -2   1 1363.07   59.33
  -4  -2   1 1366.94   81.32
   4   2  -1 1391.28  117.39
   4   2  -1 1352.38   98.41
  -4  -2   1 1415.51  124.71
   0  -3  -5  104.38   10.46
   0  -3  -5   92.68   14.20
   0  -3  -5   94.97   11.51
   0   3   5  110.76   10.91
  -4  -1  -5    9.04    4.46
  -4  -1  -5   19.35    4.80
   4   1   5   15.63    4.25
   4   1   5   12.38    5.58
   2   2  -4    1.78    3.07
   2   2  -4   -1.17    2.78
  -2  -2   4   11.29    5.96
  -2  -2   4    9.87    4.50
  -2  -2   4   -2.08    3.45
   3  -3   3  103.97   10.40
   3  -3   3   98.90    7.54
   3  -3   3   91.11    9.23
   3  -3   3   88.31    9.82
  -3   3  -3   96.24   13.10
  -3   3  -3  113.87   11.71
  -3   3  -3  106.56    9.32
  -3   3  -3  108.24   11.47
  -4   1  -4   45.67    7.37
  -4   1  -4   52.98    7.40
  -4   1  -4   38.47    7.27
  -4   1  -4   48.29    8.33
   4  -1   4   52.93    6.36
   4  -1   4   39.78    6.59
   4  -1   4   52.80    6.61
  -1  -2  -6  158.97   14.93
  -1  -2  -6  180.15   12.05
  -1  -2  -6  176.37   20.33
  -1  -2  -6  206.42   15.48
   1   2   6  177.55   25.18
  -1  -2  -6  161.75   17.30
   1   2   6  176.62   18.43
   4   4   2   88.01   11.41
   4   4   2   72.69    9.98
  -4  -4  -2   59.16    7.98
   4   4   2   89.09   10.47
  -4  -4  -2   81.91   11.51
  -4  -4  -2   78.21   10.09
  -2   3   3   21.40    6.50
   2  -3  -3   18.49    4.93
  -2   3   3   25.40    5.66
   2  -3  -3   22.32    3.53
   2  -3  -3   19.50    5.52
  -2   3   3   28.63    4.50
  -2   3   3   26.62    5.84
  -4  -2  -5    4.14    3.85
  -4  -2  -5    2.45    4.59
  -4  -2  -5   -0.12    1.71
  -4  -2  -5   -0.06    2.18
   4   2   5    7.27    3.01
   4   2   5    9.68    5.16
   4   2   5    2.47    4.07
  -1   5   0  601.07   61.25
   1  -5   0  637.59   58.39
   1  -5   0  569.41   46.78
  -1   5   0  578.56   36.78
   1  -5   0  631.29   39.20
  -1   5   0  654.79   64.15
  -3  -1  -6   38.33    4.96
  -3  -1  -6   45.49    6.94
   3   1   6   30.43    5.87
   3   1   6   59.80    9.20
   3   1   6   54.45    8.10
  -3  -1  -6   34.51    6.83
   3   1   6   42.97    5.05
  -3  -5  -2  620.29   28.78
  -3  -5  -2  615.13   52.69
  -3  -5  -2  621.29   53.11
   3   5   2  557.74   33.05
  -3  -5  -2  613.06   48.94
   3   5   2  562.59   42.51
   3   5   2  631.60   39.09
  -2  -5   1  426.51   30.95
   2   5  -1  413.86   32.80
  -2  -5   1  440.98   15.94
  -2  -5   1  381.67   40.59
   2   5  -1  416.15   37.18
   2   5  -1  498.14   39.61
   1  -1   6   25.52    5.14
   1  -1   6   21.44    5.27
   1  -1   6   42.60    6.71
  -1   1  -6   23.86    4.99
  -1   1  -6   24.99    5.69
  -1   1  -6   23.46    3.84
  -1   1  -6   26.37    5.62
  -2  -4  -5  345.22   20.71
   2   4   5  338.95   22.82
   2   4   5  363.22   27.15
  -2  -4  -5  388.40   59.96
  -2  -4  -5  369.89   31.98
  -3  -5  -1   15.74    5.03
  -3  -5  -1   16.34    4.10
  -3  -5  -1   18.80    3.59
   3   5   1   14.30    5.34
   3   5   1   20.03    5.33
   3   5   1   19.21    5.77
  -3  -5  -1   15.08    4.36
   3  -3  -1  200.35   14.47
   3  -3  -1  178.45   12.92
   3  -3  -1  190.70   14.66
  -3   3   1  212.84   16.90
  -3   3   1  199.45   13.82
  -3   3   1  217.95   17.40
   3  -3  -1  165.50   12.25
   4  -2   2  307.51   21.14
   4  -2   2  353.04   28.71
   4  -2   2  353.20   21.26
  -4   2  -2  350.99   24.32
  -4   2  -2  346.18   25.48
  -4   2  -2  337.19   16.02
  -4   2  -2  342.45   22.98
   4  -2   2  337.43   22.29
  -4  -4  -3   25.54    6.33
  -4  -4  -3   32.26    5.22
  -4  -4  -3   17.56    4.61
   4   4   3   42.72    6.43
   4   4   3   27.30    4.25
   4   4   3   20.11    5.47
   0   5  -2  119.97   16.44
   0  -5   2  124.00   14.64
   0  -5   2  126.11   14.50
   0  -5   2  134.84    8.96
   0   5  -2  125.35   11.59
   0   5  -2  128.75   10.84
  -1   5  -1   93.43   12.89
  -1   5  -1  119.23    7.94
  -1   5  -1  105.79    9.89
   1  -5   1   96.53    9.60
   1  -5   1   99.31   10.22
   1  -5   1   85.23    6.98
  -3  -2   3  263.23   23.24
   3   2  -3  263.91   25.67
  -3  -2   3  227.72   25.60
  -3  -2   3  298.06   13.91
   3   2  -3  229.05   12.46
   3   2  -3  239.14   21.42
  -2   1  -6   14.65    4.15
  -2   1  -6   25.88    6.10
   2  -1   6   13.14    5.34
   2  -1   6   13.82    4.87
  -2   1  -6   14.19    4.90
   2  -1   6   13.13    3.95
  -2   1  -6   17.24    4.68
  -2   1  -6   15.26    4.44
  -4  -4  -1  327.65   34.63
  -4  -4  -1  380.11   26.05
   4   4   1  378.40   30.36
   4   4   1  349.10   24.85
   4   4   1  379.38   33.40
  -4  -4  -1  402.51   35.86
   4  -2   1  562.61   32.94
  -4   2  -1  570.27   39.01
  -4   2  -1  559.93   37.90
  -4   2  -1  606.03   45.66
   4  -2   1  642.19   43.79
   4  -2   1  632.80   72.16
   4  -2   1  614.78   32.67
   3  -1  -3   23.62    5.08
  -3   1   3   26.33    5.21
  -3   1   3   29.52    4.49
   3  -1  -3   14.52    4.13
  -3   1   3   22.82    5.92
   3  -1  -3   27.51    5.70
  -3   1   3   20.27    5.23
   3  -1  -3   15.41    4.07
   4   0   5   91.40    8.73
   4   0   5   79.73    9.03
  -4   0  -5   83.09    8.96
   4   0   5   92.95   10.15
   4   0   5  101.40    9.50
  -4   0  -5   71.60    7.17
  -4   0  -5   78.55    9.62
  -4   0  -5   84.26    7.93
   3   2   6   -1.01    2.31
  -3  -2  -6   -0.80    1.85
  -3  -2  -6    3.55    2.46
  -3  -2  -6    3.24    5.60
  -3  -2  -6    3.82    3.18
   3   2   6    4.10    5.76
   3   2   6   -0.72    1.86
   1  -5  -1   26.05    5.93
   1  -5  -1   37.74    7.50
  -1   5   1   31.83    5.07
  -1   5   1   21.04    5.96
  -1   5   1   26.72    4.84
   1  -2  -5  372.49   27.90
   1  -2  -5  355.61   23.09
  -1   2   5  357.78   26.51
  -1   2   5  354.23   20.11
   1  -2  -5  407.37   37.09
   1  -2  -5  364.88   30.37
   1  -2  -5  350.01   34.64
  -3   0  -6    4.32    3.71
  -3   0  -6    5.26    4.16
   3   0   6   -2.76    3.61
   3   0   6   -0.52    2.64
   3   0   6   -0.86    2.43
   3   0   6    2.30    2.35
  -3   0  -6    5.63    3.77
  -3   0  -6    1.95    2.67
   0   0  -6   16.03    4.06
   0   0  -6   20.06    3.76
   0   0  -6   17.52    5.59
   0   0   6    9.62    5.91
   0   0   6    7.51    6.03
   0   0   6   20.85    4.00
   0   0   6   11.46    4.13
   1   5  -2 1701.56  131.02
   1   5  -2 1664.19   91.41
  -1  -5   2 1774.60   90.88
  -1  -5   2 1701.03  177.48
   1   5  -2 1732.04   94.13
   1   5  -2 1693.67   90.86
  -1  -5   2 1827.80  138.16
   2  -4   3  322.50   28.33
  -2   4  -3  294.44   15.80
   2  -4   3  350.66   27.93
  -2   4  -3  339.98   26.72
   2  -4   3  331.52   18.27
  -2   4  -3  351.23   24.69
  -2   4  -3  323.27   21.82
  -2   2   4   21.65    3.80
   2  -2  -4   19.96    3.76
   2  -2  -4   30.29    3.83
  -2   2   4   27.55    4.88
  -2   2   4   34.57    6.58
  -2   2   4   28.46    4.67
   2  -2  -4   20.67    4.19
   2  -2  -4   20.22    4.32
   1   2  -5   51.59   10.21
  -1  -2   5   46.67    8.02
  -1  -2   5   39.16    7.18
  -1  -2   5   43.94    7.78
   1   2  -5   36.35    5.58
   1   2  -5   43.92    3.20
   0   1   6  171.30   15.87
   0  -1  -6  184.51   23.60
   0  -1  -6  172.56   18.67
   0  -1  -6  175.87   14.59
   0  -1  -6  134.73   17.27
   0   1   6  172.64   19.16
   0   1   6  169.78   14.99
   0  -1  -6  179.14   22.51
  -3  -5  -3  281.86   24.52
  -3  -5  -3  284.53   21.25
  -3  -5  -3  301.47   16.55
  -3  -5  -3  339.72   25.46
   3   5   3  301.57   23.13
   3   5   3  270.08   18.28
   3   5   3  351.83   29.52
   1   4   5   13.23    1.01
  -1  -4  -5   16.36    4.92
  -1  -4  -5   14.13    5.78
   4  -1  -1 1146.65   73.62
   4  -1  -1  982.31   71.84
   4  -1  -1 1010.70   69.28
   4  -1  -1 1091.54   73.86
   4  -1  -1 1029.74  133.62
  -4   1   1  954.91   58.03
  -4   1   1 1050.54   86.71
  -4   1   1  959.67   94.53
  -1   3  -5  410.20   40.93
   1  -3   5  367.02   25.00
   1  -3   5  376.92   32.71
   1  -3   5  360.14   16.29
  -1   3  -5  372.46   37.45
  -1   3  -5  394.15   22.16
  -1   3  -5  419.13   48.40
   0  -5  -3   50.59    4.54
   0   5   3   38.59    5.52
   0   5   3   54.22    8.92
   0   5   3   55.03    9.83
   0  -5  -3   59.14    6.48
   0  -5  -3   44.40    7.25
   0  -5  -3   29.97    6.05
   0  -5  -3   47.62    5.59
  -4   2  -3 1075.70   81.44
   4  -2   3 1071.08   98.70
   4  -2   3 1177.97   76.83
   4  -2   3 1072.77   65.84
   4  -2   3 1105.40   72.78
  -4   2  -3 1093.19   67.40
  -4   2  -3 1150.39   80.82
  -4   2  -3 1141.39   59.46
  -3   2  -5   10.65    5.57
   3  -2   5   12.94    3.71
   3  -2   5   -3.94    4.43
   3  -2   5    3.52    5.14
  -3   2  -5    6.05    5.30
  -3   2  -5    8.16    6.46
  -3   2  -5   11.72    5.38
  -3  -4  -5    6.83    3.30
   3   4   5    1.35    1.65
   3   4   5    0.09    1.51
   3   4   5   13.82    5.36
  -3  -4  -5   -3.63    2.22
  -3  -4  -5    0.72    1.86
  -2  -3  -6 1870.76  149.10
  -2  -3  -6 1681.94   79.72
  -2  -3  -6 1791.12   84.59
   2   3   6 1818.97  104.60
   2   3   6 1765.01  151.60
  -2  -3  -6 1783.88   74.29
  -2  -3  -6 1754.64  182.75
  -2   4   2  250.93   30.16
  -2   4   2  220.45   21.38
   2  -4  -2  260.32   25.90
   2  -4  -2  269.30   19.84
   2  -4  -2  230.49   11.98
   2  -4  -2  274.52   24.19
  -2   4   2  314.61   28.81
  -2   4   2  206.56   14.03
   0  -4   4  129.94   11.11
   0  -4   4  156.11   20.62
   0  -4   4  138.49   13.17
   0   4  -4  147.35   17.02
   0   4  -4  120.18   19.59
   0   4  -4  134.96    9.51
   0  -4   4  134.51   17.99
   2   5   4  230.73   20.44
  -2  -5  -4  204.79   20.64
   2   5   4  230.64   16.66
   2   5   4  204.73   15.00
  -2  -5  -4  241.16   21.95
  -2  -5  -4  233.47   20.72
  -2  -5  -4  211.64   17.62
  -3  -5   0   20.35    5.71
   3   5   0   13.31    5.70
   3   5   0   16.16    3.60
  -3  -5   0   18.36    5.48
  -3  -5   0   18.95    4.26
   3   5   0   10.27    5.28
  -3  -5   0   17.51    5.96
   4   3  -1  101.03   12.99
   4   3  -1   92.60   10.04
   4   3  -1   84.61   11.81
  -4  -3   1   91.88   13.17
  -4  -3   1   99.09   11.40
   4   3   5    1.44    3.10
  -4  -3  -5   -5.67    5.86
  -4  -3  -5    3.46    2.99
  -4  -3  -5    1.61    3.55
   4   3   5   -3.97    4.15
   4   3   5   -3.25    3.73
   5   1   2   42.60    8.27
  -5  -1  -2   63.13   10.17
  -5  -1  -2   45.91    5.76
  -5  -1  -2   52.82   10.57
  -5  -1  -2   52.57    6.38
   5   1   2   34.65    6.07
   5   1   2   41.67    7.87
   2   4  -3   12.17    4.96
   2   4  -3   -1.15    3.24
  -2  -4   3   -3.96    4.30
  -2  -4   3    0.27    1.11
  -2  -4   3    3.36    4.83
  -1   4  -4  105.59    8.27
  -1   4  -4   91.65    9.84
   1  -4   4  115.83   12.69
   1  -4   4  135.69   14.52
   1  -4   4  116.78   10.88
  -1   4  -4  125.29    8.68
  -1   4  -4  119.82   15.93
   0   3  -5  107.75    8.89
   0   3  -5  115.87   17.78
   0   3  -5   89.17    8.63
   0  -3   5  103.61    9.94
   0  -3   5  124.71   12.84
   0  -3   5   99.62    7.76
   0  -3   5  116.92   17.66
  -4   2   0   44.16    6.95
  -4   2   0   37.13    7.37
   4  -2   0   41.27    6.83
   4  -2   0   36.20    7.12
   4  -2   0   35.67    6.22
   4  -2   0   32.40    6.86
  -4   2   0   53.76    6.75
   0   1  -6    2.62    4.55
   0   1  -6    1.70    3.16
   0  -1   6   -1.10    2.59
   0   1  -6   -0.22    1.93
   0   1  -6    0.77    1.41
   0  -1   6   10.12    5.34
   0  -1   6    4.73    5.27
   0  -1   6    0.56    2.80
  -1   5  -2  868.21   60.21
  -1   5  -2  921.63   81.42
  -1   5  -2  935.36  120.96
   1  -5   2  941.55   68.11
   1  -5   2  846.45   28.09
   1  -5   2  916.08   66.44
  -1   5  -2  909.15   60.60
  -5  -1  -3   10.37    5.49
   5   1   3   19.65    5.56
   5   1   3    2.83    3.54
  -5  -1  -3   12.97    5.38
  -5  -1  -3   12.31    4.85
  -5  -1  -3   13.75    5.90
   5   1   3    7.55    4.06
  -4  -4  -4  242.64   22.95
  -4  -4  -4  182.21   19.37
  -4  -4  -4  256.82   16.85
   4   4   4  205.27   16.36
   4   4   4  226.54   23.79
   4   4   4  220.86   16.10
  -5  -2  -2  690.97   44.90
   5   2   2  615.82   62.01
  -5  -2  -2  699.74   53.27
   5   2   2  604.66   64.66
   5   2   2  677.97   41.76
  -5  -2  -2  601.76   37.67
  -5  -2  -2  550.23   69.81
   5   2   3 1067.60  117.61
  -5  -2  -3 1071.50   47.20
  -5  -2  -3  946.52   77.32
  -5  -2  -3 1142.32  118.89
  -5  -2  -3 1103.92   99.89
   5   2   3 1123.88   82.80
   5   2   3 1085.90   81.69
  -1  -5  -4  971.43   62.64
  -1  -5  -4 1025.96   68.97
   1   5   4 1075.01   89.07
  -1  -5  -4 1057.44   68.89
   1   5   4 1011.92   47.03
  -1  -5  -4  985.04   47.85
  -1  -5  -4 1036.54  105.52
  -4  -4   0 1242.30   68.69
  -4  -4   0 1167.19   88.27
   4   4   0 1215.43  109.00
   4   4   0 1329.02   87.61
   4   4   0 1270.59  112.98
  -4  -4   0 1300.81  115.11
   3  -3   4  948.81   68.19
   3  -3   4  903.03   60.96
   3  -3   4  973.71   61.26
   3  -3   4  921.28   67.53
  -3   3  -4  981.20   49.34
  -3   3  -4  954.59   72.08
  -3   3  -4  980.18   58.93
  -3   3  -4  931.74   73.37
   3   4  -2   70.17    7.70
   3   4  -2   49.51    8.45
   3   4  -2   65.17    7.28
  -3  -4   2   43.31    8.23
  -3  -4   2   46.53    5.92
  -3  -4   2   59.61   10.44
   4   1  -2   49.60    7.42
  -4  -1   2   46.00    4.88
  -4  -1   2   41.32    6.80
   4   1  -2   66.04    7.72
  -4  -1   2   54.48    7.45
   4   1  -2   36.86    6.37
  -4  -1   2   57.42   11.16
  -1   5   2  117.72   11.13
   1  -5  -2   90.14    9.63
   1  -5  -2  111.39   11.06
   1  -5  -2  101.56   12.44
   1  -5  -2   98.81   11.05
  -1   5   2   97.74   11.89
  -1   5   2   96.09    9.96
  -1   5   2   91.50   10.18
  -1  -3  -6   15.00    4.32
  -1  -3  -6   19.98    4.50
  -1  -3  -6   13.94    6.80
  -1  -3  -6   14.00    4.71
   0   2   6   87.70    9.93
   0  -2  -6   79.99   11.68
   0   2   6   76.19    6.68
   0   2   6   73.40    5.22
   0  -2  -6   74.65    4.26
   0  -2  -6   72.09    5.39
   0  -2  -6   80.98   10.05
   0  -2  -6   84.60    9.33
  -3  -3  -6    2.35    2.64
  -3  -3  -6   -0.69    2.41
   3   3   6    1.57    1.84
   3   3   6    7.67    4.82
   3   3   6    1.43    1.47
  -3  -3  -6   -0.18    3.43
   2   3  -4   26.68    6.53
   2   3  -4   27.54    6.09
  -2  -3   4   49.15    8.85
  -2  -3   4   34.20    6.32
  -2  -3   4   38.99    7.00
  -2   3  -5   50.72    6.60
   2  -3   5   32.87    5.60
   2  -3   5   33.61    5.16
   2  -3   5   36.71    9.45
  -2   3  -5   33.64    5.32
  -2   3  -5   60.37   10.18
  -2   3  -5   37.60    5.58
  -2   3  -5   35.29    4.46
   5   1   1   58.25    9.23
  -5  -1  -1   68.21    9.68
  -5  -1  -1   78.62   10.18
   5   1   1   80.83   11.08
  -5  -1  -1   65.53    8.68
   5   1   1   82.63    9.96
  -5  -1  -1   74.65   11.24
  -3   1  -6  155.92   15.18
  -3   1  -6  153.58   14.54
  -3   1  -6  181.20   14.36
   3  -1   6  176.34   15.10
   3  -1   6  150.52   17.06
  -3   1  -6  171.67   13.39
  -5   0  -2  197.65   22.07
   5   0   2  175.56   13.50
   5   0   2  185.83   13.50
  -5   0  -2  158.00   12.89
  -5   0  -2  183.18   17.09
  -5   0  -2  169.24   18.72
   5   0   2  152.91   14.41
  -4   0   2 1162.08   98.40
  -4   0   2 1241.43  111.35
  -4   0   2 1275.97   72.29
   4   0  -2 1209.13   98.12
   4   0  -2 1278.68   61.47
   4   0  -2 1237.31  110.58
  -4   0   2 1155.85   72.62
   4   0  -2 1160.32   77.40
   4  -1   5   70.95    5.87
  -4   1  -5   86.80    7.84
  -4   1  -5   93.74    8.89
   4  -1   5   88.19   10.77
  -4   1  -5   82.02   10.96
   4  -1   5   97.73    9.67
  -4   1  -5  103.95    9.19
  -1   2  -6    8.24    3.55
  -1   2  -6    9.11    3.59
   1  -2   6   14.24    5.24
   1  -2   6   20.73    6.13
  -1   2  -6   10.73    5.42
  -1   2  -6   14.54    5.86
  -5  -2  -1  361.94   19.56
   5   2   1  364.45   29.40
  -5  -2  -1  338.87   45.07
   5   2   1  376.36   41.54
  -5  -2  -1  357.32   27.19
  -5  -2  -1  350.99   22.50
   5   2   1  358.24   23.88
   3   5   4  772.06   68.56
  -3  -5  -4  717.59   48.99
  -3  -5  -4  725.89   56.95
   3   5   4  705.59   52.47
   3   5   4  709.09   49.52
  -3  -5  -4  713.85   54.30
   3   3  -3   22.11    5.92
   3   3  -3   16.20    4.93
  -3  -3   3   21.06    1.72
  -3  -3   3   13.75    4.59
   3   3  -3   14.18    4.63
  -3  -3   3   21.81    2.34
  -3  -3   3   19.73    4.79
   5   0   3  199.84   33.67
   5   0   3  156.54   17.14
   5   0   3  211.85   25.33
  -5   0  -3  217.68   13.22
  -5   0  -3  216.47   18.69
  -5   0  -3  231.09   20.41
  -5   0  -3  213.05   17.46
  -2  -5   2    3.58    3.64
   2   5  -2    9.74    5.03
  -2  -5   2    6.15    4.53
   2   5  -2    1.09    3.75
   2   5  -2    6.00    2.85
  -2  -5   2    2.05    1.98
  -1  -4   4  105.13   15.76
  -1  -4   4  149.71   15.90
   1   4  -4  125.13   11.10
   1   4  -4  123.82    8.61
   1   4  -4  120.61   10.55
  -1  -4   4  128.55   16.08
  -1  -4   4  122.93   12.46
   3  -3  -2   27.51    4.55
  -3   3   2   43.64    8.78
  -3   3   2   16.15    3.94
  -3   3   2   30.95    5.58
   3  -3  -2   26.21    5.67
  -3   3   2   27.00    5.14
   3  -3  -2   17.59    5.53
   3  -3  -2   33.62    5.69
   3  -2  -3  224.80   19.80
   3  -2  -3  251.99   32.74
   3  -2  -3  217.38   24.40
   3  -2  -3  239.32   23.95
  -3   2   3  188.91   16.14
  -3   2   3  211.43   11.67
  -3   2   3  237.36   18.15
  -3   2   3  197.16   23.47
   3  -2  -3  209.25   19.87
   5   1   4   26.81    7.08
  -5  -1  -4   30.80    6.38
  -5  -1  -4   43.62    8.49
   5   1   4   36.23    6.83
   5   1   4   42.68    8.65
  -5  -1  -4   30.06    7.92
   4   2  -2  112.25   11.43
   4   2  -2  123.58   15.22
  -4  -2   2  117.85    9.16
  -4  -2   2  108.73   12.59
  -4  -2   2  114.76   14.95
   4   2  -2  156.63   14.59
  -4  -2   2  135.07   15.80
  -1   4   4   49.92    5.53
  -1   4   4   51.75    8.30
  -1   4   4   48.36    7.19
   1  -4  -4   48.27    6.27
   1  -4  -4   49.66    7.36
  -1   4   4   47.09    7.65
   1  -4  -4   54.62    7.45
   1  -4  -4   47.76    5.71
   4  -2   4    3.49    4.96
   4  -2   4    7.27    6.14
   4  -2   4    1.48    4.10
  -4   2  -4    4.13    3.68
   4  -2   4   -2.65    4.23
  -4   2  -4   -1.74    3.54
  -4   2  -4   -6.98    4.19
  -4   2  -4   -1.42    2.95
  -5  -2  -4  225.78   24.18
  -5  -2  -4  203.66   20.75
  -5  -2  -4  224.00   23.33
   5   2   4  202.48   17.88
   5   2   4  240.66   18.54
   5   2   4  223.20   25.11
  -5  -2  -4  240.92   20.31
   1   6   1  150.52   12.59
   1   6   1  158.56   18.97
   1   6   1  163.18   12.86
   1   6   1  159.91   16.57
  -1  -6  -1  140.94   10.89
  -1  -6  -1  149.78   11.44
  -1  -6  -1  152.99   14.59
  -1  -6  -1  140.15   17.97
  -1  -6  -1  157.50   12.68
  -3   4  -1  132.47   12.90
   3  -4   1  115.09   10.99
   3  -4   1  140.75   14.84
   3  -4   1  108.54   10.18
  -3   4  -1  100.93   10.61
  -3   4  -1  108.98   10.53
  -3   4  -1  110.07   10.40
   0   5  -3   38.62    7.37
   0  -5   3   39.04    7.43
   0   5  -3   47.99    7.73
   0   5  -3   38.79    5.43
   0  -5   3   40.01    6.72
   0  -5   3   42.92    8.34
  -2   2  -6  135.79   10.84
   2  -2   6  184.57   30.81
   2  -2   6  164.28   15.37
  -2   2  -6  164.71   12.48
  -2   2  -6  164.58   30.93
  -2   2  -6  171.63   14.17
  -2   2  -6  167.82   10.14
  -2   0   5    5.24    4.02
  -2   0   5   -8.12    5.17
  -2   0   5    6.67    3.26
   2   0  -5    0.03    2.15
   2   0  -5   -0.95    3.03
  -2   0   5    2.56    3.87
   2   0  -5   -0.59    1.57
  -4  -1  -6   18.87    5.79
   4   1   6   35.21    6.83
  -4  -1  -6   20.37    5.48
   4   1   6   18.51    4.95
   4   1   6   30.57    5.53
  -4  -1  -6   19.81    5.57
  -5  -3  -2  190.92   15.47
   5   3   2  146.02   14.21
   5   3   2  149.97   16.77
   5   3   2  138.17   17.18
  -5  -3  -2  151.57   13.26
  -5  -3  -2  149.35   16.05
   5   0   1  461.50   37.39
  -5   0  -1  521.13   22.72
  -5   0  -1  487.29   48.12
  -5   0  -1  507.71   39.57
  -5   0  -1  484.37   38.49
   5   0   1  536.55   39.99
   5   0   1  480.66   44.29
  -5  -3  -3  858.68   66.17
   5   3   3  943.06   95.57
   5   3   3  860.69   60.86
   5   3   3  899.76   58.44
  -5  -3  -3  858.26   38.90
  -5  -3  -3  875.07   84.55
   0  -4  -5  912.33   65.42
   0   4   5 1095.80   83.59
   0   4   5  862.18   60.42
   0  -4  -5  937.80   78.75
   0  -4  -5  959.08   46.44
   0  -4  -5 1036.95   69.14
   0  -4  -5 1038.52  105.93
   1   6   0  229.41   18.96
   1   6   0  167.60   15.64
   1   6   0  231.19   20.05
   1   6   0  185.50   14.20
  -1  -6   0  168.23   13.38
  -1  -6   0  181.06   11.40
  -1  -6   0  170.12   13.06
   4   2   6  446.56   35.98
   4   2   6  366.65   47.44
   4   2   6  436.53   31.02
  -4  -2  -6  420.28   38.15
  -4  -2  -6  360.81   48.96
  -4  -2  -6  420.90   36.84
   1  -3  -5  517.72   29.52
   1  -3  -5  556.60   55.06
   1  -3  -5  579.86   45.18
   1  -3  -5  517.76   61.62
   1  -3  -5  528.56   34.83
  -1   3   5  501.71   32.36
  -1   3   5  551.90   35.83
  -3   4  -2   64.31    8.35
  -3   4  -2   68.49    8.53
  -3   4  -2   75.51    4.52
   3  -4   2   71.51    5.84
   3  -4   2   59.41    9.08
   3  -4   2   70.58    8.79
  -3   4  -2   74.87   10.48
  -2   4  -4    1.54    1.91
  -2   4  -4    7.88    4.97
   2  -4   4    4.12    4.20
  -2   4  -4    3.56    5.08
  -2   4  -4    5.35    3.62
   2  -4   4   10.97    3.65
   2  -4   4    9.45    5.13
  -2   4  -4    7.17    1.41
  -2  -1   5    9.05    4.46
  -2  -1   5    5.78    3.12
  -2  -1   5    1.85    4.67
  -2  -1   5    8.38    4.85
   2   1  -5   11.31    5.26
   2   1  -5    2.06    3.32
  -2  -6  -1    1.64    2.61
   2   6   1    3.61    4.71
   2   6   1    1.51    3.02
  -2  -6  -1    5.46    5.60
   2   6   1    3.74    4.06
  -2  -6  -1   14.19    5.49
  -2  -6  -1    3.73    3.23
   3   5  -1  178.95   15.53
   3   5  -1  199.49   15.56
  -3  -5   1  146.47   14.95
   3   5  -1  184.13   23.53
  -3  -5   1  190.71   18.20
  -3  -5   1  181.79   12.89
   3  -4   0   13.67    2.84
  -3   4   0   22.90    7.32
   3  -4   0   22.89    5.29
   3  -4   0   17.90    5.57
  -3   4   0   16.84    5.47
   3  -4   0   18.43    5.13
   1   6   2  226.80   22.91
   1   6   2  241.71   22.43
   1   6   2  256.48   17.59
   1   6   2  251.17   23.31
  -1  -6  -2  259.60   17.35
  -1  -6  -2  245.97   25.22
  -1  -6  -2  262.26   22.14
  -1  -6  -2  205.02   18.78
  -1  -6  -2  253.06   17.21
   4  -2  -1   41.87    6.49
   4  -2  -1   29.85    6.67
  -4   2   1   62.65    8.06
  -4   2   1   55.27    8.02
   4  -2  -1   42.34    8.05
   4  -2  -1   41.19    6.71
   4  -2  -1   42.71    4.96
  -4   2   1   33.20    7.45
  -2  -6  -2   38.84    6.18
  -2  -6  -2   46.29    8.81
   2   6   2   46.06    5.82
   2   6   2   27.22    5.61
   2   6   2   47.03    6.54
  -2  -6  -2   48.84    8.17
  -1  -3   5    8.27    3.93
  -1  -3   5   12.57    4.44
   1   3  -5   10.63    4.78
   1   3  -5    9.27    1.82
   1   3  -5    6.80    4.42
  -1  -3   5   11.80    3.50
   0   2  -6 1119.48   60.98
   0   2  -6 1134.05   63.42
   0  -2   6 1169.96   94.39
   0  -2   6 1196.58  118.40
   0  -2   6 1194.60  163.26
   0   2  -6 1219.88  171.49
   0   2  -6 1189.16   99.37
  -1  -5   3  266.55   29.01
  -1  -5   3  298.43   26.69
  -1  -5   3  234.83   21.09
   1   5  -3  256.93   25.92
   1   5  -3  266.64   21.63
  -1  -5   3  312.95   21.09
   1   5  -3  284.23   24.47
  -2   5  -1  188.41   25.78
  -2   5  -1  224.48   22.56
   2  -5   1  213.23   28.02
   2  -5   1  197.67   18.22
   2  -5   1  216.27   17.14
  -2   5  -1  199.46   19.67
  -2   5  -1  209.42   16.39
   4   5   2   10.87    4.23
  -4  -5  -2    5.13    4.96
   4   5   2    4.64    4.67
   4   5   2    2.02    2.97
  -4  -5  -2    5.29    3.49
  -4  -5  -2   -0.19    2.39
  -2  -1  -7  565.72   49.62
  -2  -1  -7  511.36   36.35
  -2  -1  -7  579.05   92.86
   2   1   7  594.28   76.32
   2   1   7  626.95   89.25
   2   1   7  578.71   55.89
  -2  -1  -7  566.47   48.25
  -5   0  -4  219.05   19.95
   5   0   4  207.74   27.05
   5   0   4  251.06   20.45
   5   0   4  247.85   20.29
  -5   0  -4  261.82   22.76
  -5   0  -4  198.15   20.26
  -2   5   0  145.54   13.47
   2  -5   0  202.26   21.96
   2  -5   0  163.38   12.93
   2  -5   0  150.49   16.25
  -2   5   0  169.31   12.95
  -2   5   0  184.22   16.49
  -2   5   0  187.90   15.59
   2  -1  -5 1087.63  106.40
   2  -1  -5 1041.75   71.59
  -2   1   5 1069.55   98.45
  -2   1   5 1012.08   77.38
  -2   1   5 1101.33   99.66
  -2   1   5 1059.06  113.81
   2  -1  -5 1087.29   68.92
   2  -1  -5 1096.18   98.25
   3   0  -4  163.72   20.78
  -3   0   4  134.32   13.03
   3   0  -4  154.40   12.02
  -3   0   4  136.44   11.57
  -3   0   4  153.90   12.50
   3   0  -4  143.29   14.59
  -3   0   4  131.65   12.29
  -3   0   4  149.67   21.99
  -2   3   4    5.05    2.87
  -2   3   4   -2.50    3.80
   2  -3  -4    6.69    3.01
   2  -3  -4    6.07    4.51
   2  -3  -4    9.27    2.54
   2  -3  -4   -0.04    5.01
  -2   3   4   10.10    3.47
  -2   3   4    8.17    3.42
  -3  -1   4   -4.43    3.85
   3   1  -4    0.90    2.51
  -3  -1   4    5.52    3.87
  -3  -1   4   -1.76    4.10
  -3  -1   4   -3.11    4.41
   3   1  -4   -2.15    3.10
   1  -5   3  548.19   32.81
  -1   5  -3  592.60   44.71
   1  -5   3  600.10   74.28
  -1   5  -3  491.82   46.65
  -1   5  -3  615.00   44.26
   1  -5   3  578.62   45.57
  -1   5  -3  595.04   37.13
  -4   1   2  582.29   52.06
   4  -1  -2  528.63   58.55
  -4   1   2  561.97   50.36
  -4   1   2  512.97   43.35
   4  -1  -2  551.73   60.51
   4  -1  -2  509.51   56.48
   4  -1  -2  620.95   44.38
   4  -1  -2  555.78   30.09
  -5  -1   0  872.19   73.86
   5   1   0 1016.28   93.71
  -5  -1   0  953.23   92.37
  -5  -1   0  889.93   55.25
   5   1   0 1017.03   98.77
   5   1   0  972.78   90.44
  -5  -1   0  863.16   82.92
  -5  -1   0  956.39   59.58
  -4  -4  -5  205.61   17.91
  -4  -4  -5  175.42   14.98
   4   4   5  179.29   16.20
   4   4   5  192.06   20.27
   4   4   5  157.81   17.24
  -4  -4  -5  201.59   21.82
   4   0   6    4.99    4.13
  -4   0  -6   21.32    5.61
   4   0   6   23.13    4.01
   4   0   6   15.57    3.83
  -4   0  -6   13.17    3.58
  -4   0  -6   12.33    6.70
  -4   0  -6    7.44    3.93
   4   0   6    7.31    4.04
  -5  -3  -1  875.44   47.59
  -5  -3  -1  845.42   65.29
  -5  -3  -1  860.72   52.67
   5   3   1  827.28   53.99
   5   3   1  787.21   67.53
   5   3   1  835.18   69.04
   0   6   0  143.17   21.95
   0   6   0  121.11   14.28
   0   6   0  150.75   14.03
   0  -6   0  124.76   13.92
   0  -6   0  162.57   19.19
   0  -6   0  131.98   11.93
   0  -6   0  124.05   13.69
  -1   0   6  379.61   36.42
   1   0  -6  406.18   43.54
   1   0  -6  363.21   26.96
   1   0  -6  379.67   47.14
  -1   0   6  381.20   28.09
  -1   0   6  367.60   50.37
  -1   0   6  444.08   40.99
   0  -5  -4  121.46    9.17
   0  -5  -4  106.28   13.94
   0  -5  -4   93.58   13.01
   0   5   4  117.30    7.80
   0  -5  -4  108.28    8.89
   0   5   4   94.39    8.80
   0   5   4  134.17   15.42
   0  -5  -4  114.03    9.15
   0   6   1    4.38    4.95
   0   6   1    5.07    4.10
   0  -6  -1   -4.27    3.82
   0   6   1    9.37    5.00
   0  -6  -1    3.40    1.99
   0  -6  -1    6.32    3.81
   0  -6  -1   10.28    5.65
  -5  -3  -4   95.37   12.67
   5   3   4   92.67   13.00
   5   3   4  132.64   13.24
   5   3   4   89.80   12.42
  -5  -3  -4   93.44    8.16
  -5  -3  -4   89.54   11.78
  -4  -5  -3  100.74    8.47
  -4  -5  -3  121.61   11.88
  -4  -5  -3  135.23   11.54
   4   5   3  112.77   13.91
   4   5   3   95.40   11.29
   4   5   3  114.37   12.88
   2   6   0 1562.12   90.12
  -2  -6   0 1500.06   63.16
  -2  -6   0 1400.63  114.66
   2   6   0 1616.54   91.85
   2   6   0 1496.07   73.28
  -2  -6   0 1608.85  151.82
  -2   0  -7  986.25  136.38
  -2   0  -7 1017.81   62.14
  -2   0  -7  960.03   68.54
   2   0   7  946.33   70.52
   2   0   7 1013.87   65.24
   2   0   7 1016.01  155.99
  -2   0  -7 1001.00   76.39
   2  -4  -3  328.39   30.99
  -2   4   3  369.08   40.85
  -2   4   3  323.40   25.04
  -2   4   3  325.53   22.09
  -2   4   3  314.15   25.77
   2  -4  -3  325.14   21.29
   2  -4  -3  353.14   51.11
   2   4   6  258.82   19.23
  -2  -4  -6  217.98   19.52
  -2  -4  -6  260.98   29.05
  -2  -4  -6  211.16   15.64
  -2  -4  -6  244.80   16.03
   2   4   6  221.80    9.71
  -5  -2   0   31.56    8.14
  -5  -2   0   17.96    4.26
   5   2   0   18.46    4.80
  -5  -2   0    9.81    5.20
   5   2   0   17.17    6.43
   5   2   0    5.47    4.19
  -5  -2   0   12.17    5.26
  -4   3  -2   92.94   10.23
   4  -3   2   95.35   11.38
   4  -3   2   92.50    9.04
   4  -3   2   91.11   12.28
   4  -3   2   92.31    9.69
  -4   3  -2  107.63   11.12
  -4   3  -2  114.12   12.71
  -4   3  -2   94.33   10.53
   4   4  -1   86.43   12.40
   4   4  -1   82.73   11.07
   4   4  -1  101.40    9.90
  -4  -4   1   68.82    9.05
  -4  -4   1  106.56   13.07
  -4  -5  -1   37.20    7.70
  -4  -5  -1   56.76    7.60
   4   5   1   46.90    6.03
  -4  -5  -1   29.23    6.96
   4   5   1   43.87    6.17
   4   5   1   43.92    9.00
  -4   3  -1  623.32   44.37
   4  -3   1  674.31   47.24
   4  -3   1  765.97   44.46
   4  -3   1  658.05   42.56
   4  -3   1  746.47   52.58
  -4   3  -1  663.34   69.54
  -4   3  -1  676.13   41.79
  -4   3  -1  706.29   34.19
   5  -1   2   81.70    9.99
   5  -1   2   52.40    8.83
   5  -1   2   52.10   10.33
   5  -1   2   60.99    4.78
  -5   1  -2   81.47   12.88
  -5   1  -2   76.77    6.94
  -5   1  -2   70.65    7.13
  -5   1  -2   67.86    8.46
   5  -1   2   70.24    8.99
   2   5   5  400.69   47.12
  -2  -5  -5  519.31   30.45
  -2  -5  -5  548.57   52.44
  -2  -5  -5  476.84   56.43
  -2  -5  -5  557.37   38.34
   2   5   5  466.51   30.89
   2   5   5  482.28   26.36
  -2  -5  -5  432.00   34.17
  -1   1   6   11.16    2.55
  -1   1   6   15.71    3.35
  -1   1   6   10.03    5.88
  -1   1   6   13.32    5.38
   1  -1  -6   11.03    2.35
   1  -1  -6   11.46    2.81
   1  -1  -6   12.98    4.04
   1  -1  -6   13.81    5.31
   1  -1  -6   12.86    3.14
   1   1   7    6.21    5.99
  -1  -1  -7    4.82    2.49
  -1  -1  -7   -3.25    3.78
  -1  -1  -7    6.93    5.33
  -1  -1  -7   -1.83    1.03
   1   1   7    1.27    1.94
   1   1   7   -1.93    1.44
   2   2   7   68.10    7.64
  -2  -2  -7   69.59   13.66
  -2  -2  -7   62.44    8.91
  -2  -2  -7   62.79    9.64
  -2  -2  -7   73.25   12.01
  -2  -2  -7   72.38    8.45
  -1   5   3  110.98    8.65
  -1   5   3   91.02    8.89
  -1   5   3   89.49    8.27
  -1   5   3   75.50    7.37
   1  -5  -3  105.08   16.01
   1  -5  -3   83.28    8.30
   1  -5  -3   81.52    7.75
  -1  -6   1  562.36   60.07
   1   6  -1  555.05   33.90
  -1  -6   1  566.38   37.76
   1   6  -1  562.96   45.07
  -1  -6   1  590.75   45.15
   1   6  -1  596.81   79.85
   1   6  -1  559.75   35.36
   0  -3  -6  720.09   60.78
   0  -3  -6  738.96   77.07
   0  -3  -6  694.16   78.62
   0   3   6  766.61   57.36
  -1   0  -7   10.79    6.95
  -1   0  -7    4.15    2.19
  -1   0  -7   10.13    2.84
   1   0   7   11.57    3.30
   1   0   7   10.56    5.95
   1   0   7   13.68    4.04
  -1   0  -7    5.27    4.34
  -2   5  -2   22.95    1.89
   2  -5   2   31.79    6.12
  -2   5  -2   26.43    6.78
   2  -5   2   22.76    6.03
   2  -5   2   19.32    6.70
  -2   5  -2   20.77    5.12
  -2   5  -2   21.08    6.00
  -2   5  -2   21.68    2.30
   4   3  -2   15.30    7.24
   4   3  -2    4.18    5.06
   4   3  -2   15.40    4.80
  -4  -3   2   17.10    5.33
  -4  -3   2    8.94    2.11
  -4  -3   2   18.69    6.76
  -4  -3  -6   17.53    3.60
  -4  -3  -6    4.77    2.99
  -4  -3  -6   12.15    3.51
   4   3   6   10.44    4.03
   4   3   6   10.34    5.65
  -4  -3  -6   10.13    4.66
   3  -4   3  761.86   53.00
   3  -4   3  685.23   42.37
   3  -4   3  732.13   50.82
  -3   4  -3  732.62   39.26
   3  -4   3  682.24   42.06
  -3   4  -3  761.01   58.39
  -3   4  -3  657.57   36.68
  -3   4  -3  704.80   33.14
  -1  -1   6    6.11    2.95
   1   1  -6    4.61    3.74
   1   1  -6    0.80    2.53
  -1  -1   6    7.58    4.01
  -1  -1   6    5.06    4.46
  -1  -1   6    0.50    3.33
   5  -1   3  482.29   41.18
  -5   1  -3  438.13   39.82
  -5   1  -3  477.44   39.49
  -5   1  -3  503.45   27.07
   5  -1   3  480.33   36.61
   5  -1   3  407.44   39.16
  -2  -6  -3   10.04    4.35
   2   6   3    2.45    3.06
  -2  -6  -3   10.93    3.35
   2   6   3    7.88    4.05
   2   6   3    3.50    2.48
  -2  -6  -3    2.60    3.03
  -2  -6  -3    5.05    4.55
  -5   0   0   40.10    8.11
  -5   0   0   37.61    5.54
  -5   0   0   32.69    7.96
  -5   0   0   28.35    6.16
   5   0   0   31.58    7.99
   5   0   0   16.31    6.05
   5   0   0   29.65    6.48
  -3  -1  -7   32.88    6.75
   3   1   7   33.21    7.67
   3   1   7   31.39    4.87
   3   1   7   31.66    5.32
  -3  -1  -7   38.41    4.67
  -3  -1  -7   33.86    4.54
  -2   5   1    3.15    3.54
  -2   5   1    3.07    3.50
  -2   5   1    4.03    3.95
   2  -5  -1    0.34    3.24
   2  -5  -1    5.18    1.20
   2  -5  -1    9.17    5.10
  -2   5   1    7.54    3.30
   5   1   5   37.66    4.87
   5   1   5   39.31    5.74
  -5  -1  -5   40.84    7.09
  -5  -1  -5   61.61   10.65
  -5  -1  -5   35.83    8.07
  -5  -1  -5   41.06    8.46
   5   1   5   58.17    9.56
   0  -6   1  518.85   64.96
   0  -6   1  468.10   55.32
   0  -6   1  506.04   36.81
   0   6  -1  551.39   77.82
   0   6  -1  533.06   31.89
   0   6  -1  506.14   28.93
   0   6  -1  438.94   38.49
   2   2  -5 1288.58  139.49
  -2  -2   5 1335.85   61.66
  -2  -2   5 1270.43   83.57
  -2  -2   5 1371.71  130.46
  -2  -2   5 1367.95  137.18
   2   2  -5 1367.62   79.74
  -5  -2  -5  616.92   47.85
   5   2   5  537.46   33.44
  -5  -2  -5  522.64   71.01
  -5  -2  -5  531.41   50.10
   5   2   5  489.99   53.27
   5   2   5  444.01   39.11
  -5  -2  -5  538.96   30.28
   3   4   6  396.42   28.85
  -3  -4  -6  372.24   26.46
  -3  -4  -6  409.84   28.07
  -3  -4  -6  402.52   23.83
   3   4   6  406.92   28.61
   3   4   6  370.03   25.42
  -3   4   1  744.72   63.81
   3  -4  -1  697.18   51.09
  -3   4   1  693.17   38.82
   3  -4  -1  713.82   54.19
   3  -4  -1  698.71   39.61
   3  -4  -1  717.53   44.78
  -3   4   1  720.70   88.57
  -3   4   1  706.36   59.05
   3  -1  -4  865.92   48.01
  -3   1   4  839.39   71.73
   3  -1  -4  863.74   41.05
   3  -1  -4  818.78   56.97
   3  -1  -4  873.21   93.05
  -3   1   4  863.15   44.54
  -3   1   4  841.02   94.97
  -3   1   4  810.13   50.36
   3   2  -4  650.73   55.68
   3   2  -4  573.85   72.64
  -3  -2   4  703.96   62.42
  -3  -2   4  564.32   44.32
  -3  -2   4  681.87   70.72
   5  -1   1   38.11    7.68
   5  -1   1   22.27    6.23
   5  -1   1   27.89    4.35
  -5   1  -1   30.11    5.52
  -5   1  -1   41.67    8.14
  -5   1  -1   24.89    6.39
  -5   1  -1   29.16    5.88
   5  -1   1   13.40    5.92
   5  -1   1   15.04    5.43
   1   6   3 1781.00  183.19
   1   6   3 2068.69  120.36
  -1  -6  -3 1853.10  193.24
  -1  -6  -3 1873.31  106.79
  -1  -6  -3 1838.10  139.34
  -1  -6  -3 1899.65  163.33
  -1  -6  -3 1948.02  142.04
   0  -6  -2  359.62   24.23
   0  -6  -2  313.80   25.71
   0   6   2  354.80   28.79
   0   6   2  356.41   28.70
   0  -6  -2  313.56   40.11
   0  -6  -2  345.91   28.79
   0   6   2  261.94   16.44
   0  -6  -2  318.14   27.10
  -3   3  -5    7.25    3.94
   3  -3   5   16.38    5.96
   3  -3   5   15.76    4.51
   3  -3   5   13.91    5.50
  -3   3  -5    6.56    6.87
  -3   3  -5   15.34    4.06
  -3   3  -5    1.43    4.75
   4  -3   3   44.84    8.51
   4  -3   3   48.64    6.32
   4  -3   3   65.85    9.41
  -4   3  -3   43.81    8.97
  -4   3  -3   50.57    5.82
  -4   3  -3   43.71    8.48
   4  -3   3   65.68    9.15
  -3  -5  -5  253.88   27.93
   3   5   5  304.13   24.18
  -3  -5  -5  294.26   20.69
  -3  -5  -5  296.74   26.72
   3   5   5  308.07   25.85
   3   5   5  253.33   14.87
   3   2   7  121.79    8.72
  -3  -2  -7  108.46   11.85
  -3  -2  -7  118.52    8.29
  -3  -2  -7   97.66   10.48
  -3  -2  -7  119.68   12.67
   3   2   7  135.58   16.27
  -3   2  -6    7.93    5.03
   3  -2   6   -1.54    4.76
  -3   2  -6    4.18    3.67
  -3   2  -6    2.31    3.37
  -3   2  -6   -1.30    5.08
   3  -2   6    5.13    3.21
   3   6   2  137.77   13.54
  -3  -6  -2  121.28   11.82
  -3  -6  -2   97.77   11.18
   3   6   2  135.21   16.37
  -3  -6  -2  108.18   11.83
   3   6   2   96.01    8.80
  -3  -6  -2  109.90   10.46
  -1  -5  -5  104.08   10.17
   1   5   5  125.76    7.46
   1   5   5  155.50   16.75
  -1  -5  -5  145.97   13.87
  -1  -5  -5  148.73   14.36
  -1  -5  -5  120.80   15.45
  -1  -5  -5  114.01   12.91
  -1  -4  -6  242.16   36.05
  -1  -4  -6  204.36   20.68
  -1  -4  -6  188.05   19.29
  -1  -4  -6  221.42   15.46
  -4  -5  -4   33.52    7.08
   4   5   4   36.39   10.39
   4   5   4   44.67    6.09
   4   5   4   54.58    7.34
  -4  -5  -4   43.34    7.63
  -4  -5  -4   25.92    7.19
  -4   3   0 1407.24   80.24
   4  -3   0 1514.10  106.29
   4  -3   0 1421.51   83.86
  -4   3   0 1343.99  123.65
  -4   3   0 1368.98   72.13
   4  -3   0 1361.10  138.65
   4  -3   0 1344.15  102.63
  -3   0  -7   85.70   12.49
  -3   0  -7   63.86    8.78
  -3   0  -7   48.67    6.21
   3   0   7   57.93    7.63
   3   0   7   59.03    6.93
  -3   0  -7   56.70    9.73
   3   0   7   75.11    7.78
  -1  -2  -7  138.73   10.32
  -1  -2  -7  141.92   17.16
   1   2   7  133.79    9.97
  -1  -2  -7  139.02   15.71
   1   2   7  119.53    8.51
  -1  -2  -7  134.15   12.61
  -1  -2  -7  141.02   16.40
  -4   2  -5  542.69   40.87
   4  -2   5  503.95   40.84
  -4   2  -5  493.12   40.89
   4  -2   5  524.55   45.37
   4  -2   5  565.49   31.68
  -4   2  -5  464.69   40.87
  -4   2  -5  532.53   27.82
  -5  -4  -3  339.66   21.55
  -5  -4  -3  382.83   32.00
   5   4   3  320.35   24.84
  -5  -4  -3  355.84   35.82
   5   4   3  318.57   20.53
   5   4   3  348.78   25.83
   1  -4   5  160.03   16.60
   1  -4   5  150.76   15.84
  -1   4  -5  159.99   15.31
  -1   4  -5  161.93    9.49
  -1   4  -5  178.91   20.80
  -1   4  -5  116.86   12.42
   1  -4   5  154.07   12.57
   5   4   2  546.68   61.75
   5   4   2  484.99   38.56
  -5  -4  -2  468.57   23.68
  -5  -4  -2  452.64   36.45
  -5  -4  -2  420.14   39.06
   5   4   2  486.25   53.99
   3   6   1   58.72    9.48
  -3  -6  -1   61.13    9.89
   3   6   1   59.64   10.85
   3   6   1   48.48    7.04
  -3  -6  -1   74.44   10.73
  -3  -6  -1   49.03    9.71
  -3  -6  -1   56.61    8.90
   2  -2  -5  123.40   12.81
   2  -2  -5  131.95   12.70
  -2   2   5  134.62   13.44
  -2   2   5  117.45   12.58
  -2   2   5  136.54   11.42
  -2   2   5  101.74   10.56
   2  -2  -5  129.29   10.12
   2  -2  -5  129.94   15.17
   2  -1   7   74.57    9.30
  -2   1  -7   91.92   11.55
  -2   1  -7   84.48   10.29
  -2   1  -7   87.06   10.03
  -2   1  -7   92.55    9.00
  -2   1  -7   76.73   15.07
   2  -1   7   81.76   12.45
   2  -1   7   67.36    7.84
   0   4  -5  250.69   19.52
   0   4  -5  281.96   21.63
   0  -4   5  238.77   30.51
   0  -4   5  290.91   27.58
   0  -4   5  250.35   18.46
   0  -4   5  239.26   21.60
   0   4  -5  251.96   34.19
  -5  -3   0   73.57    8.99
  -5  -3   0   77.08   13.27
  -5  -3   0   61.47   10.46
  -5  -3   0   72.78   11.50
   5   3   0   58.66    9.58
   5   3   0   77.74    9.33
   2   6  -1 1026.66   61.74
   2   6  -1  994.04   67.69
  -2  -6   1 1069.63   93.46
   2   6  -1 1017.07   75.31
  -2  -6   1 1018.55   44.49
  -2  -6   1 1011.79   71.74
   2   4  -4  989.15   97.57
  -2  -4   4 1026.60   99.71
  -2  -4   4  899.18   59.60
  -2  -4   4 1060.24  130.56
  -2  -4   4  900.69   63.27
   2   4  -4  896.39   75.65
  -3  -4   3  135.30   10.13
   3   4  -3  115.29   18.87
   3   4  -3  115.49   14.94
   3   4  -3  114.13   13.37
  -3  -4   3  151.04   15.54
  -3  -4   3  108.45    6.86
  -1   1  -7 1196.91   56.44
  -1   1  -7 1160.52  157.86
  -1   1  -7 1208.88  158.30
   1  -1   7 1042.38   84.34
   1  -1   7 1154.88  103.98
   1  -1   7 1174.73  112.12
  -1   1  -7 1119.39   48.13
  -4  -5   0  123.42   11.32
   4   5   0  106.98   13.34
  -4  -5   0  128.23   13.14
  -4  -5   0  112.34   14.33
  -4  -5   0  132.53   17.62
   4   5   0   90.29   13.84
   4   5   0  116.05   14.18
   5   0   5   14.94    6.01
  -5   0  -5   19.09    5.49
  -5   0  -5   25.52    5.75
  -5   0  -5   33.09    6.96
  -5   0  -5   23.82    7.08
   5   0   5   24.25    6.19
   5   0   5   17.61    5.19
  -5   1  -4    8.45    5.00
   5  -1   4   -2.89    3.18
   5  -1   4   -2.66    4.11
   5  -1   4   12.61    6.18
  -5   1  -4    1.70    5.04
  -5   1  -4    4.61    5.94
  -5   1  -4   10.33    5.86
  -4   1  -6  885.04   57.07
   4  -1   6  889.25   80.37
  -4   1  -6  918.93   43.53
  -4   1  -6 1061.74   64.11
   4  -1   6  936.94   56.32
  -4   1  -6  909.15   54.02
   4  -1   6  950.40   68.98
   4  -1   6  967.95   97.47
   1  -3   6  499.15   37.91
   1  -3   6  464.15   55.68
  -1   3  -6  469.30   43.63
  -1   3  -6  511.06   59.19
  -1   3  -6  432.10   33.99
  -1   3  -6  402.28   21.57
   1  -2  -6  778.50   41.74
   1  -2  -6  774.36   74.98
   1  -2  -6  745.10   48.39
   1  -2  -6  760.95   47.36
   1  -2  -6  713.52   54.38
  -1   2   6  706.55   43.50
  -1   2   6  745.01   63.12
   5   3   5  191.73   16.65
   5   3   5  140.95   15.95
   5   3   5  193.42   22.95
  -5  -3  -5  174.45   18.79
  -5  -3  -5  210.63   17.03
  -5  -3  -5  192.68   21.65
  -5  -3  -5  166.06   17.23
   3   6   3   57.34    7.53
  -3  -6  -3   76.43    8.03
  -3  -6  -3   64.07    7.45
  -3  -6  -3   66.04   10.23
  -3  -6  -3   54.15    8.95
   3   6   3   58.77    9.00
   3   6   3   70.92    7.80
   4   1  -3   -2.59    3.08
  -4  -1   3    1.73    4.70
   4   1  -3    3.52    3.89
  -4  -1   3    0.65    2.99
   4   1  -3    3.48    3.08
  -4  -1   3   -0.93    3.14
  -4  -1   3   -0.75    1.37
   3  -3  -3  272.05   33.82
   3  -3  -3  227.08   25.65
   3  -3  -3  201.45   25.90
   3  -3  -3  230.95   22.43
  -3   3   3  240.49   28.88
   3  -3  -3  257.57   16.29
  -3   3   3  218.34   14.95
  -3   3   3  247.99   23.60
   2   5  -3  126.34   19.87
  -2  -5   3  154.77   24.56
  -2  -5   3  137.01   15.41
   2   5  -3  158.85   13.84
   2   5  -3  125.44   11.55
  -2  -5   3  111.43   12.93
   2   3   7  369.99   23.66
   2   3   7  455.24   26.13
  -2  -3  -7  448.71   37.91
  -2  -3  -7  393.33   35.12
  -2  -3  -7  377.78   22.67
  -2  -3  -7  488.64   39.68
  -2  -3  -7  390.47   46.62
   3   5  -2  255.31   30.78
   3   5  -2  270.69   28.66
   3   5  -2  245.52   16.04
  -3  -5   2  267.41   12.02
  -3  -5   2  232.61   18.39
  -3  -5   2  261.54   25.37
   1  -6   0   29.26    8.02
   1  -6   0   22.22    5.64
   1  -6   0   23.65    5.94
  -1   6   0   16.71    6.21
  -1   6   0   20.34    5.03
  -1   6   0   21.15    5.05
   4   0  -3  113.51   12.67
   4   0  -3   71.81    8.41
   4   0  -3   93.91   10.88
   4   0  -3   64.21    8.36
  -4   0   3   77.08    6.62
  -4   0   3   94.91   10.17
  -4   0   3   66.69    7.78
  -4   0   3   83.46   12.27
   5   4   4 1454.17  176.93
  -5  -4  -4 1683.65  132.20
   5   4   4 1544.13  109.45
   5   4   4 1747.61  152.17
  -5  -4  -4 1641.90   94.61
  -5  -4  -4 1674.08  224.97
  -2   5  -3  141.83   19.15
   2  -5   3  177.71   18.19
   2  -5   3  189.87   25.78
   2  -5   3  188.67   14.88
  -2   5  -3  228.70   28.71
  -2   5  -3  185.56   15.85
  -2   5  -3  228.29   18.24
  -1  -2   6  585.85   67.64
  -1  -2   6  479.60   63.64
  -1  -2   6  506.94   50.98
  -1  -2   6  532.66   40.42
   1   2  -6  549.25   41.26
   1   2  -6  463.25   26.83
   1   2  -6  497.75   57.36
   5   4   1   -0.22    3.38
  -5  -4  -1    2.71    3.75
   5   4   1    6.28    4.28
  -5  -4  -1    2.95    3.68
  -5  -4  -1   -4.14    3.31
   5   4   1    2.10    4.58
   4  -2  -2   10.67    5.92
   4  -2  -2    8.67    4.08
   4  -2  -2    3.18    3.83
  -4   2   2   12.37    4.32
   4  -2  -2    6.90    3.07
   4  -2  -2   12.02    3.90
  -4   2   2   18.38    5.17
  -4   2   2   11.73    5.87
   5   1  -1   53.59    6.44
  -5  -1   1   87.80   11.43
  -5  -1   1   53.68    5.16
   5   1  -1   71.27    6.91
   5   1  -1   69.96   10.67
  -5  -1   1   51.27    9.97
  -5  -1   1   70.61    7.66
   0  -5   4   51.10    6.66
   0   5  -4   56.06   11.13
   0   5  -4   47.13    7.30
   0  -5   4   44.75    6.53
   0  -5   4   53.06    9.54
   0   5  -4   58.13   11.01
  -5   1   0   19.93    4.45
  -5   1   0   27.52    6.06
  -5   1   0   45.16    6.45
   5  -1   0   33.35    6.58
   5  -1   0   43.45    6.58
   5  -1   0   27.62    5.61
   5  -1   0   26.43    3.84
   5  -1   0   24.38    5.65
  -5   1   0   33.21    7.93
   0  -6   2  332.71   44.07
   0  -6   2  296.80   25.09
   0  -6   2  265.58   34.23
   0   6  -2  311.63   24.13
   0   6  -2  323.54   44.04
   0   6  -2  347.76   15.49
   0   6  -2  264.08   39.06
  -1  -6   2  322.74   32.71
   1   6  -2  315.82   39.09
   1   6  -2  291.29   27.51
   1   6  -2  352.96   42.67
   1   6  -2  339.87   25.77
  -1  -6   2  285.45   26.05
  -1  -6   2  332.13   27.38
  -1  -6   2  303.18   34.47
   2  -5  -2   26.16    4.23
   2  -5  -2   22.94    2.75
  -2   5   2   17.79    4.20
  -2   5   2   18.39    3.94
  -2   5   2   16.32    3.72
  -2   5   2   38.54    5.86
   2  -5  -2   20.01    6.94
   2  -5  -2   21.96    4.85
   0   0  -7  656.14   64.90
   0   0   7  531.11   64.39
   0   0   7  583.87   37.73
   0   0   7  618.01   82.59
   0   0   7  626.05   65.16
   0   0  -7  636.17   54.03
   0   0  -7  621.84   66.98
   2  -3   6   96.31   17.44
   2  -3   6  110.09   11.55
  -2   3  -6   98.88   10.91
  -2   3  -6  118.56   12.03
  -2   3  -6  105.12   11.36
  -2   3  -6   86.83    9.39
  -2   3  -6   99.44   10.06
   2  -3   6  100.41   10.72
  -3  -6   0    1.15    4.83
  -3  -6   0   10.53    3.35
   3   6   0    6.11    4.37
   3   6   0    2.85    3.71
   3   6   0    3.16    3.94
  -3  -6   0   12.30    5.05
   2   6   4  315.08   22.51
   2   6   4  310.88   17.93
  -2  -6  -4  333.94   33.37
  -2  -6  -4  330.95   24.84
  -2  -6  -4  325.34   35.25
  -2  -6  -4  310.50   25.52
   2   6   4  319.97   16.11
  -3  -3  -7   40.32    5.45
  -3  -3  -7   23.83    2.87
  -3  -3  -7   29.14    7.53
  -3  -3  -7   38.44    5.53
   3   3   7   33.48    3.92
   0  -3   6  264.90   26.65
   0  -3   6  247.67   39.70
   0  -3   6  250.29   19.83
   0   3  -6  276.68   16.46
   0   3  -6  274.72   24.68
   0   3  -6  249.77   38.82
   0  -1  -7  814.50   54.89
   0  -1  -7  758.21   63.26
   0   1   7  753.65   63.40
   0   1   7  750.75  108.18
   0   1   7  763.04   77.43
   0   1   7  727.89   89.06
   0  -1  -7  814.59   77.60
   0  -1  -7  814.59   84.22
  -1   6  -1    0.68    4.11
  -1   6  -1    2.99    3.31
   1  -6   1    4.30    5.03
   1  -6   1   -1.19    6.39
   1  -6   1    1.82    4.26
  -1   6  -1   -3.31    4.41
  -1   6   1  102.31   17.18
  -1   6   1  133.70   15.59
  -1   6   1  108.68    9.61
   1  -6  -1  105.45   11.10
   1  -6  -1   75.67   10.50
   1  -6  -1  118.06   18.78
   4   2  -3  161.57   20.39
   4   2  -3  121.17   11.82
  -4  -2   3  153.20   14.00
  -4  -2   3  124.67   14.29
  -4  -2   3  142.87   17.80
  -4  -2   3  119.28    9.18
   4   2  -3  108.05   14.91
  -4   3  -4  148.13   13.82
  -4   3  -4  198.59   16.84
  -4   3  -4  165.04   15.59
   4  -3   4  172.58   19.98
   4  -3   4  167.82   18.99
   4  -3   4  131.22   13.55
  -4   3  -4  170.88   12.61
   4  -3   4  159.25   15.56
   3  -4   4  164.39   19.10
   3  -4   4  112.53   14.77
  -3   4  -4  163.19   14.90
  -3   4  -4  154.77   14.68
  -3   4  -4  166.50   22.24
  -3   4  -4  110.67   12.62
   3  -4   4  171.36   16.49
   5   2  -1    7.13    4.87
   5   2  -1    9.90    4.69
   5   2  -1   10.21    4.79
  -5  -2   1   -3.52    4.19
  -5  -2   1    7.18    3.06
  -5  -2   1   11.52    5.73
  -2   4  -5   30.91    4.93
  -2   4  -5   27.92    3.61
  -2   4  -5   36.82    7.33
  -2   4  -5   18.90    7.29
   2  -4   5   25.11    6.04
   2  -4   5   43.62    7.77
   2  -4   5   25.71    6.82
  -2   4  -5   19.42    5.96
   0  -6  -3  466.58   32.96
   0  -6  -3  409.34   49.99
   0  -6  -3  390.41   27.89
   0  -6  -3  450.58   43.65
   0  -6  -3  468.78   30.39
   0   6   3  387.62   17.87
   0   6   3  446.26   69.72
   0   6   3  402.12   41.69
  -1   5  -4  922.88   89.11
  -1   5  -4  838.52   41.84
  -1   5  -4 1027.90   61.29
  -1   5  -4 1056.71   85.18
   1  -5   4  991.10   70.68
   1  -5   4  951.21   90.68
   1  -5   4  953.45   66.97
   4   4   6   18.59    4.10
  -4  -4  -6   23.05    4.48
  -4  -4  -6   14.15    5.74
   4   4   6   21.44    5.12
   4   4   6   19.35    5.57
   3  -2  -4   37.24    5.35
  -3   2   4   50.72    7.64
  -3   2   4   52.01    7.68
  -3   2   4   50.27    7.39
   3  -2  -4   45.29    7.37
  -3   2   4   40.09    6.12
   3  -2  -4   50.45    6.33
   3  -2  -4   52.71    9.35
  -1   4   5  139.27   13.99
   1  -4  -5  146.73   21.49
   1  -4  -5  163.04   15.04
   1  -4  -5  169.14   24.94
  -1   4   5  169.01   12.75
  -1   4   5  153.16   11.66
   1  -4  -5  122.91   18.94
   1  -4  -5  145.57   15.85
  -3   1  -7   42.23    7.64
  -3   1  -7   45.00    8.99
  -3   1  -7   26.23    5.43
  -3   1  -7   31.67    6.20
   3  -1   7   34.50    6.82
   3  -1   7   44.08    6.77
   3  -1   7   50.87    8.48
   5   0  -1  317.61   36.03
   5   0  -1  325.80   19.03
   5   0  -1  312.90   26.30
  -5   0   1  304.92   25.17
  -5   0   1  404.02   45.47
  -5   0   1  320.76   37.60
   5   0  -1  353.89   38.37
  -3  -3   4  279.83   19.30
   3   3  -4  363.60   31.18
  -3  -3   4  354.70   31.94
   3   3  -4  338.62   34.82
  -3   4   2  171.18   13.66
  -3   4   2  171.05   13.55
  -3   4   2  154.31   14.68
  -3   4   2  181.46   18.42
   3  -4  -2  182.42   13.75
   3  -4  -2  194.34   25.49
   3  -4  -2  152.70   19.72
   3  -4  -2  161.46   13.56
  -4   3   1  236.68   32.89
  -4   3   1  315.43   27.25
   4  -3  -1  304.00   31.85
   4  -3  -1  293.32   39.74
  -4   3   1  300.37   20.18
   4  -3  -1  293.46   15.23
   4  -3  -1  257.01   19.58
  -4  -1  -7  628.77   49.78
  -4  -1  -7  581.52   28.95
   4   1   7  585.01   50.38
   4   1   7  580.02   51.82
   4   1   7  652.45  100.02
  -4  -1  -7  540.38   35.90
  -2  -3   5    7.85    5.55
   2   3  -5    6.94    3.61
  -2  -3   5   15.16    5.16
  -2  -3   5    7.25    3.78
  -1  -6  -4  454.93   31.54
   1   6   4  413.52   25.59
   1   6   4  390.07   24.34
  -1  -6  -4  437.87   41.49
  -1  -6  -4  396.09   38.99
  -1  -6  -4  372.78   47.02
  -1  -6  -4  399.04   38.95
  -5   2  -2   11.85    5.81
   5  -2   2   10.60    4.21
  -5   2  -2   23.80    5.60
  -5   2  -2    9.48    4.16
   5  -2   2   18.56    5.46
   5  -2   2    6.77    5.20
   5  -2   2   13.16    5.10
  -5   2  -2    1.06    4.62
  -1  -3  -7  154.34   25.26
  -1  -3  -7  166.02   18.73
  -1  -3  -7  170.06   14.34
  -1  -3  -7  183.98   17.03
   4   2   7   85.76    7.79
  -4  -2  -7   86.03    8.17
   4   2   7   84.35   11.09
  -4  -2  -7   99.32    9.81
  -4  -2  -7   81.73    9.66
  -4  -2  -7  100.74   10.04
   4   2   7   76.24   11.39
   4   5   5  154.30   15.38
   4   5   5  135.69   11.43
  -4  -5  -5  151.80   15.28
  -4  -5  -5  132.54   11.99
  -4  -5  -5  118.11   11.42
   4   5   5  142.18   20.38
  -1  -4   5  101.77   11.62
  -1  -4   5   75.73    6.61
  -1  -4   5   79.79   12.91
   1   4  -5   71.21    9.06
   1   4  -5   69.20   10.50
  -1  -4   5   80.82    7.36
   1   4  -5   80.70    9.88
   4   4  -2    9.78    3.50
   4   4  -2    7.19    5.14
  -4  -4   2    2.46    3.76
  -4  -4   2    4.47    2.48
  -4  -4   2    3.86    4.20
   4   4  -2   -8.31    4.45
  -3  -6  -4   31.85    4.63
  -3  -6  -4   42.74    5.23
  -3  -6  -4   39.19    5.49
   3   6   4   28.22    5.18
   3   6   4   29.80    5.88
   3   6   4   33.96    5.55
  -3  -6  -4   23.85    8.40
   0   1  -7   11.59    4.68
   0   1  -7    7.10    2.89
   0  -1   7    1.84    5.39
   0  -1   7    9.73    2.73
   0  -1   7    5.30    2.72
   0  -1   7   17.21    6.21
   0   1  -7    1.95    5.81
   0   1  -7   12.07    4.26
  -1  -5   4  291.34   30.03
  -1  -5   4  322.24   15.41
   1   5  -4  223.85   35.72
  -1  -5   4  305.83   41.26
   1   5  -4  279.95   30.82
  -1  -5   4  278.77   33.75
   1   5  -4  261.14   22.61
   5   2   6   48.53    8.36
  -5  -2  -6   50.06   10.16
   5   2   6   46.93    7.39
  -5  -2  -6   56.77    7.39
  -5  -2  -6   61.05    8.79
   5   2   6   64.57    7.84
   5   1   6  447.89   36.90
  -5  -1  -6  450.03   47.67
  -5  -1  -6  431.20   28.23
  -5  -1  -6  435.21   40.37
   5   1   6  457.13   40.87
   5   1   6  453.29   38.06
  -4   1   3   10.91    3.98
   4  -1  -3   26.94    7.35
  -4   1   3   29.66    5.35
  -4   1   3   11.27    4.30
   4  -1  -3   34.30    6.89
   4  -1  -3   38.92    8.20
   4  -1  -3   18.21    4.46
   4  -1  -3   16.68    4.36
  -1   5   4  319.46   32.09
  -1   5   4  339.32   29.82
  -1   5   4  305.57   25.20
   1  -5  -4  318.00   30.40
  -1   5   4  283.77   33.38
   1  -5  -4  291.26   23.11
   1  -5  -4  324.79   34.95
   1  -5  -4  275.49   31.45
   1  -5  -4  315.02   33.63
   5  -2   3   27.87    4.49
   5  -2   3   29.55    6.99
   5  -2   3   49.23    8.84
   5  -2   3   48.22    6.83
  -5   2  -3   27.61    6.56
  -5   2  -3   28.84    5.19
  -5   2  -3   35.55    6.36
  -5   2  -3   43.91    7.52
   0   5   5   40.62    4.99
   0  -5  -5   37.54    5.44
   0  -5  -5   33.96    5.16
   0  -5  -5   35.00    3.98
   0  -5  -5   38.89    5.78
   0  -5  -5   37.01    3.89
   0   5   5   32.66    4.34
   2  -4  -4   71.75    7.44
   2  -4  -4   68.96    8.02
   2  -4  -4   66.92   10.03
  -2   4   4   56.65    6.66
  -2   4   4   74.90    9.99
  -2   4   4   64.97    6.70
  -2   4   4   65.73   10.34
   0  -2  -7   31.14    5.39
   0  -2  -7   31.86    6.64
   0  -2  -7   42.08    2.79
   0  -2  -7   28.16    3.16
   0  -2  -7   26.20    8.05
   0   2   7   35.11    3.21
   0   2   7   39.54    5.56
   0   2   7   39.61    5.98
   0  -4  -6   43.10    7.88
   0  -4  -6   31.39    7.56
   0  -4  -6   24.36    4.91
  -5   2  -1   91.81   12.29
  -5   2  -1  100.65    9.75
  -5   2  -1   74.24    9.17
   5  -2   1  107.18   14.37
   5  -2   1   82.68    9.75
   5  -2   1   97.31   11.67
   5  -2   1   91.58   10.01
   5  -1   5  383.02   39.37
  -5   1  -5  402.45   27.57
  -5   1  -5  355.10   31.99
  -5   1  -5  403.53   35.68
  -5   1  -5  387.45   33.55
   5  -1   5  394.69   40.97
   5  -1   5  348.12   28.02
   5  -1   5  363.70   32.10
   1  -6   2   71.87   10.31
   1  -6   2  106.17   17.60
  -1   6  -2  103.00   11.01
  -1   6  -2  115.89   12.35
  -1   6  -2   99.62    5.74
  -1   6  -2  107.23    6.63
  -1   6  -2   76.12   17.77
   1  -6   2   81.68    9.39
   1  -2   7    1.78    4.10
   1  -2   7   -5.39    4.18
   1  -2   7   -4.20    4.12
  -1   2  -7    2.45    3.12
  -1   2  -7   -7.64    4.46
  -1   2  -7   -0.56    3.58
  -1   2  -7   -2.18    3.45
   5   4   5  123.12   10.97
   5   4   5  137.02   13.33
  -5  -4  -5  123.05   14.80
  -5  -4  -5  131.52   12.75
  -5  -4  -5  137.32    9.92
   5   4   5  174.59   17.96
   4   0   7   90.42   10.31
   4   0   7   78.31   11.00
   4   0   7   88.31   13.58
   4   0   7   71.15   11.08
  -4   0  -7   95.58    8.84
  -4   0  -7   62.66   11.02
  -4   0  -7   84.24   13.49
  -4   0  -7   70.40   10.14
   1  -6  -2   15.16    1.33
  -1   6   2   10.94    5.00
   1  -6  -2   24.43    6.62
   1  -6  -2   33.24    9.01
   1  -6  -2    9.80    5.12
  -1   6   2   11.83    3.63
  -1   6   2   17.46    5.52
   4   5  -1  692.94   67.10
  -4  -5   1  678.42   48.91
  -4  -5   1  680.12   91.77
  -4  -5   1  653.35   45.96
   4   5  -1  655.77   82.95
   4   5  -1  727.94   65.70
   5   4   0   -5.02    3.62
  -5  -4   0   -5.29    4.25
  -5  -4   0    5.67    6.30
   5   4   0    1.63    4.83
   5   4   0   -2.47    5.06
  -5  -4   0    1.45    3.61
  -2   2  -7   14.08    6.04
  -2   2  -7   11.12    3.54
  -2   2  -7   15.36    5.05
  -2   2  -7   17.93    4.58
  -2   2  -7   17.44    4.37
   2  -2   7   23.04    5.38
   2  -2   7   17.23    5.33
  -2  -5  -6  292.83   23.78
  -2  -5  -6  263.20   23.50
  -2  -5  -6  274.84   38.62
  -2  -5  -6  256.30   24.13
  -2  -5  -6  281.32   22.86
   2   5   6  239.44   28.94
   2   5   6  269.07   30.59
  -2  -6   2  629.17   53.83
   2   6  -2  623.95   53.71
   2   6  -2  645.74   54.15
   2   6  -2  636.35   33.75
   2   6  -2  556.60   46.53
  -2  -6   2  594.01   82.75
  -2  -6   2  636.17   58.29
   5   3  -1 1321.83  139.59
   5   3  -1 1459.76  124.71
  -5  -3   1 1461.96  117.42
  -5  -3   1 1320.23  127.73
   5   3  -1 1432.31  167.09
  -5  -3   1 1411.44   86.68
   1  -3  -6   40.34    6.51
   1  -3  -6   40.29    6.11
   1  -3  -6   25.04    6.60
   1  -3  -6   25.63    7.48
  -1   3   6   44.94    4.79
  -1   3   6   42.22    8.81
   1  -3  -6   34.77    2.70
  -1   3   6   44.21    3.90
   2  -3  -5   30.74    4.68
   2  -3  -5   18.48    5.75
  -2   3   5   18.15    5.16
  -2   3   5   23.00    3.73
  -2   3   5   31.67    7.46
   2  -3  -5   22.89    4.36
   2  -3  -5   12.49    4.55
  -3  -5  -6  395.24   43.45
  -3  -5  -6  431.29   59.57
   3   5   6  336.94   23.47
   3   5   6  404.90   49.65
  -3  -5  -6  458.33   49.46
   3   5   6  403.26   29.12
   4   6   2   66.99    9.01
   4   6   2   61.72    7.62
   4   6   2   59.96    6.95
  -4  -6  -2   51.72    9.77
  -4  -6  -2   74.99    9.94
  -4  -6  -2   56.56    8.63
  -4  -6  -2   58.93    9.65
   3  -5   1  219.57   21.24
   3  -5   1  215.56   17.03
   3  -5   1  218.11   22.07
  -3   5  -1  216.30   24.96
  -3   5  -1  189.10   12.23
  -3   5  -1  211.36   20.13
  -3   5  -1  256.54   19.44
  -3  -6   1   54.83   10.74
  -3  -6   1   43.51    7.12
   3   6  -1   60.99   11.14
   3   6  -1   55.78    8.03
   3   6  -1   66.31    9.87
  -3  -6   1   80.51   10.14
   4   3  -3   -2.47    4.68
  -4  -3   3    2.33    1.04
  -4  -3   3    2.04    1.35
  -4  -3   3    4.05    4.99
  -4  -3   3   -2.33    4.80
   4   3  -3    0.84    3.00
   4   3  -3    7.06    5.85
   5   3   6  243.87   27.09
   5   3   6  279.17   33.14
   5   3   6  296.04   31.78
  -5  -3  -6  298.31   20.15
  -5  -3  -6  219.12   18.52
  -5  -3  -6  261.17   19.36
  -5  -3  -6  265.25   31.88
   4   3   7   -4.30    4.10
   4   3   7    3.39    2.60
   4   3   7   -0.16    3.09
  -4  -3  -7    3.79    2.15
  -4  -3  -7    0.95    3.77
  -4  -3  -7   -0.22    3.21
  -5   0  -6  282.20   18.58
   5   0   6  283.79   21.52
   5   0   6  311.84   23.07
   5   0   6  303.14   33.88
  -5   0  -6  319.53   31.75
  -5   0  -6  262.75   19.35
   5   0   6  275.06   30.13
  -5   0  -6  354.63   40.01
   2   0  -6  211.47   15.45
  -2   0   6  186.32   16.81
   2   0  -6  203.32   12.24
  -2   0   6  223.40   33.56
  -2   0   6  209.06   34.65
   2   0  -6  187.57   15.92
  -4  -6  -3   49.76   10.88
   4   6   3   63.79    9.01
   4   6   3   73.75   11.37
   4   6   3   70.85    8.48
  -4  -6  -3   59.05   10.79
  -4  -6  -3   62.95    9.47
  -4  -6  -3   47.79    8.26
  -5  -5  -3  252.68   26.00
  -5  -5  -3  258.08   19.16
   5   5   3  244.60   23.82
   5   5   3  249.09   36.17
   5   5   3  258.13   18.16
  -5  -5  -3  214.79   31.59
   4  -2   6   85.35   10.35
   4  -2   6  119.91   10.40
  -4   2  -6  104.82   12.16
   4  -2   6   73.33   10.97
  -4   2  -6  108.84   12.67
  -4   2  -6   78.67    9.24
  -4   2  -6   84.95   10.90
   5  -1  -1  389.51   43.63
   5  -1  -1  341.82   39.14
  -5   1   1  402.62   49.89
   5  -1  -1  397.65   27.36
   5  -1  -1  404.66   38.96
   5  -1  -1  393.45   32.94
  -5   1   1  409.19   26.90
  -5   1   1  443.91   29.86
   5   5   2 1154.10  105.42
   5   5   2 1232.08  134.96
  -5  -5  -2 1256.09  113.58
   5   5   2 1221.40   66.96
  -5  -5  -2 1214.01  139.53
  -5  -5  -2 1176.74   72.16
  -3   3  -6   91.95   11.78
   3  -3   6   74.26    9.80
   3  -3   6   95.59   11.21
  -3   3  -6   94.22   12.82
   3  -3   6   76.10   12.02
  -3   3  -6   66.16   13.75
  -3   3  -6  104.98   12.14
  -3   3  -6   76.37   10.12
   5  -2   4  131.80   11.94
   5  -2   4  134.44   15.12
  -5   2  -4  108.06   19.78
   5  -2   4  125.16   13.40
  -5   2  -4  121.02   14.39
  -5   2  -4  120.43   13.76
   5  -2   4  102.90   13.14
  -5   2  -4  153.12   13.05
  -2   5  -4  281.23   21.23
   2  -5   4  314.48   33.81
  -2   5  -4  350.08   29.88
  -2   5  -4  362.63   33.89
   2  -5   4  337.83   24.64
   2  -5   4  326.80   22.64
  -2   5  -4  286.53   15.49
   6   2   3   14.48    6.10
  -6  -2  -3   13.46    5.46
  -6  -2  -3   12.73    7.28
  -6  -2  -3   11.33    5.79
  -6  -2  -3    8.37    5.45
   6   2   3    3.98    5.92
   6   2   3    9.97    5.50
  -2  -4  -7    6.08    5.36
  -2  -4  -7   17.07    6.08
  -2  -4  -7    2.33    4.72
  -2  -4  -7   18.88    6.76
  -3   5  -2  115.00   17.68
  -3   5  -2  109.58   17.08
   3  -5   2   99.96   12.11
  -3   5  -2  107.91    8.63
  -3   5  -2   97.19    7.97
   3  -5   2   95.10   12.06
   3  -5   2  117.02   18.87
   3  -5   0 1195.04  128.90
  -3   5   0 1272.82   74.80
  -3   5   0 1225.25   83.48
  -3   5   0 1224.91   84.58
   3  -5   0 1239.14   85.90
   3  -5   0 1333.09  102.02
   3  -5   0 1126.65   83.36
  -3   5   0 1214.68   70.09
   3   0  -5  245.89   23.74
  -3   0   5  265.10   25.17
  -3   0   5  287.74   24.17
  -3   0   5  274.17   28.54
  -3   0   5  244.82   23.06
   3   0  -5  220.78   20.43
   3   0  -5  250.01   13.76
  -6  -1  -3  402.97   31.17
  -6  -1  -3  417.76   38.24
   6   1   3  386.44   48.62
  -6  -1  -3  366.11   30.37
  -6  -1  -3  446.87   36.95
   6   1   3  454.93   40.63
   6   1   3  390.36   33.06
   0   6  -3   79.17    9.92
   0  -6   3  104.82   15.03
   0   6  -3   78.70   12.49
   0  -6   3   87.24   17.37
   0  -6   3   89.15   11.85
   0   6  -3  107.16   15.75
   1   3  -6  193.82   11.16
   1   3  -6  193.10   18.47
  -1  -3   6  201.96   29.72
  -1  -3   6  230.23   20.83
  -1  -3   6  238.07   29.28
   1   3  -6  218.95   22.93
  -3  -1   5   53.06   10.67
   3   1  -5   73.99   11.27
   3   1  -5   67.03    8.71
  -3  -1   5   57.91   12.77
  -3  -1   5   47.50    8.34
  -3  -1   5   71.00    8.62
  -4   4  -2  656.20   52.35
   4  -4   2  727.22   41.90
   4  -4   2  723.19   51.70
   4  -4   2  674.14   61.23
   4  -4   2  654.17   47.45
  -4   4  -2  655.13   48.49
  -4   4  -2  684.26   41.74
  -4   4  -2  690.86   56.03
  -4  -6  -1  100.05   12.93
   4   6   1  103.26   13.32
   4   6   1  107.49   11.82
   4   6   1   74.18   10.91
  -4  -6  -1  102.06    9.19
  -4  -6  -1  126.92   14.91
  -4   4  -1  134.28   16.37
   4  -4   1  138.09   16.53
  -4   4  -1  119.34   11.04
   4  -4   1  114.41   11.97
   4  -4   1  154.40   12.44
  -4   4  -1  109.97   15.99
  -4   4  -1  136.10   10.73
   4  -4   1  127.32   12.29
  -2  -1   6  237.74   26.89
  -2  -1   6  221.49   16.66
  -2  -1   6  262.19   21.71
  -2  -1   6  210.76   32.57
   2   1  -6  255.36   14.21
   2   1  -6  239.11   15.37
  -3  -4  -7   77.02   10.13
  -3  -4  -7   56.75    8.70
   3   4   7   58.66    5.10
  -3  -4  -7   59.45    5.19
  -3  -4  -7   73.20   10.86
  -6  -2  -2  157.10   20.42
  -6  -2  -2  143.89   13.81
  -6  -2  -2  124.12   21.32
   6   2   2  128.82   16.88
   6   2   2  142.12   17.96
   6   2   2  115.56   16.70
  -6  -2  -2  104.45   10.87
   6   1   2   -2.42    5.24
   6   1   2   -6.52    4.29
   6   1   2    3.48    4.43
  -6  -1  -2    2.71    4.70
  -6  -1  -2    5.79    5.32
  -6  -1  -2    9.09    6.46
  -6  -1  -2   -1.38    3.35
  -2   5   3  268.22   22.04
   2  -5  -3  233.65   24.62
   2  -5  -3  248.86   19.95
   2  -5  -3  225.91   14.99
  -2   5   3  256.40   19.57
   2  -5  -3  256.39   25.36
  -2   5   3  266.47   23.60
  -2   5   3  242.16   15.80
   5  -2   0  372.83   27.15
   5  -2   0  407.47   31.02
  -5   2   0  393.21   32.45
  -5   2   0  419.59   30.63
   5  -2   0  350.04   25.89
   5  -2   0  397.14   41.91
   5  -2   0  390.96   43.52
  -4   3  -5  204.28   22.18
   4  -3   5  179.04   13.96
  -4   3  -5  174.89   14.92
   4  -3   5  191.56   14.89
   4  -3   5  201.96   21.16
  -4   3  -5  208.31   17.84
  -4   3  -5  197.13   17.07
   2  -1  -6    5.35    2.98
   2  -1  -6    7.33    3.58
  -2   1   6    2.49    4.49
  -2   1   6    4.53    2.86
  -2   1   6   10.03    3.88
  -2   1   6   -0.99    4.82
   2  -1  -6    5.66    2.79
   2   6   5  436.09   33.96
  -2  -6  -5  465.13   43.70
  -2  -6  -5  388.44   62.15
  -2  -6  -5  423.65   38.23
  -2  -6  -5  350.03   50.11
  -2  -6  -5  397.60   30.67
   2   6   5  419.46   68.91
  -1  -5  -6  146.67   20.29
  -1  -5  -6  112.99   14.61
  -1  -5  -6  110.37   10.84
   1   6  -3  225.50   17.18
   1   6  -3  217.69   29.15
  -1  -6   3  206.66   21.66
  -1  -6   3  221.69   20.55
  -1  -6   3  225.06   31.17
   1   6  -3  167.92   17.15
   1   6  -3  214.44   22.12
  -1  -6   3  206.98   44.39
  -1  -7  -1   49.51    8.84
  -1  -7  -1   50.77    7.53
  -1  -7  -1   61.77    8.56
  -1  -7  -1   55.95    7.83
   1   7   1   57.53    6.28
   1   7   1   60.99    8.65
   1   7   1   76.38   11.52
   1   7   1   69.95    8.83
   0  -2   7  198.43   30.37
   0   2  -7  200.52   24.14
   0   2  -7  167.34   27.42
   0  -2   7  182.42   20.58
   0  -2   7  175.12   16.48
   0  -2   7  179.90   16.64
   0   2  -7  210.05   12.57
   0   2  -7  197.22   21.71
  -6  -2  -4   63.16    8.06
  -6  -2  -4   57.91    8.91
  -6  -2  -4   74.37   11.83
   6   2   4  108.94   16.59
   6   2   4   43.83   10.67
   6   2   4   87.69   12.01
  -6  -2  -4   72.89   13.03
   2   1   8    0.77    4.94
  -2  -1  -8    5.34    5.66
  -2  -1  -8    0.65    2.94
  -2  -1  -8    1.00    3.03
  -2  -1  -8    4.55    5.42
   2   1   8   -0.57    3.18
  -5  -5  -4  399.16   24.50
   5   5   4  421.11   35.41
   5   5   4  398.24   39.22
   5   5   4  435.87   31.40
  -5  -5  -4  423.67   44.51
  -5  -5  -4  486.35   37.22
   0   6   4  578.87   51.13
   0   6   4  557.83   58.21
   0  -6  -4  558.69   32.82
   0  -6  -4  561.56   54.53
   0  -6  -4  558.83   42.19
   0  -6  -4  508.51   43.34
   0  -6  -4  601.69   80.27
   0   6   4  530.54   32.14
   6   1   4   47.61   11.57
   6   1   4   61.33    8.24
  -6  -1  -4   40.66    7.67
  -6  -1  -4   38.09    8.27
  -6  -1  -4   43.64    7.99
   6   1   4   83.14   12.38
  -6  -1  -4   57.45   10.11
  -2  -7  -1    0.93    4.24
   2   7   1    3.71    3.54
   2   7   1   12.26    4.83
   2   7   1    7.06    2.69
  -2  -7  -1    8.99    5.94
  -2  -7  -1   -2.59    3.38
  -5  -1   2  916.77   52.71
  -5  -1   2 1005.04   75.72
  -5  -1   2  893.80   68.39
  -5  -1   2  865.36   78.64
   5   1  -2  969.83  119.61
   5   1  -2 1009.90   83.42
   5   1  -2 1009.49  119.52
  -3   4  -5  542.43   27.70
   3  -4   5  527.87   46.77
   3  -4   5  520.22   41.03
   3  -4   5  649.79   59.80
  -3   4  -5  508.69   41.07
  -3   4  -5  524.63   48.66
  -3   4  -5  545.12   43.61
   5   5   1  100.43   11.24
   5   5   1  109.73    9.18
   5   5   1  111.06   16.83
  -5  -5  -1  112.30   15.60
  -5  -5  -1   94.97    9.52
  -5  -5  -1   87.44   14.16
  -3   2  -7  504.67   33.15
   3  -2   7  478.30   70.06
  -3   2  -7  510.68   46.09
  -3   2  -7  492.97   45.95
   3  -2   7  491.46   35.52
  -3   2  -7  494.96   31.56
  -3   2  -7  550.72   48.77
  -2  -7  -2  145.04   12.98
  -2  -7  -2  180.45   14.52
  -2  -7  -2  121.76   14.94
  -2  -7  -2  105.47   14.24
   2   7   2  130.58   16.43
   2   7   2  139.49   13.92
   2   7   2  135.19   12.62
  -3  -6  -5   25.24    7.36
  -3  -6  -5   20.33    6.35
   3   6   5   26.81    5.55
   3   6   5   14.54    4.76
   3   6   5   14.47    2.74
  -3  -6  -5   16.78    3.83
  -3  -6  -5   18.43    4.44
  -4  -6  -4  498.67   43.60
   4   6   4  411.26   18.82
  -4  -6  -4  381.03   38.24
  -4  -6  -4  440.20   25.37
   4   6   4  422.88   64.94
   4   6   4  448.52   43.89
  -4  -6  -4  450.14   40.36
   4  -3  -2  950.05   68.44
  -4   3   2  876.09   79.52
   4  -3  -2  988.01   82.10
   4  -3  -2  899.51   97.37
   4  -3  -2 1004.68   91.40
  -4   3   2  985.74   84.28
  -4   3   2  894.83  108.62
   4  -3  -2 1006.01   99.22
  -6  -3  -3   28.69    8.29
  -6  -3  -3   49.73    9.44
   6   3   3   47.19    9.55
   6   3   3   58.28    9.31
   6   3   3   48.65    9.32
  -6  -3  -3   35.55    8.66
   1   7   0   15.33    6.92
   1   7   0   31.04    8.06
   1   7   0   30.60    4.05
   1   7   0   26.12    5.95
  -1  -7   0   19.10    5.98
  -1  -7   0   27.49    7.20
  -1  -7   0   27.25    4.63
  -1  -7   0   15.79    5.40
   3   5  -3  199.12   25.18
   3   5  -3  207.32   25.75
   3   5  -3  191.95   23.67
  -3  -5   3  151.80   26.70
  -3  -5   3  168.03   13.82
  -3  -5   3  179.75   25.46
   4  -4   3    4.37    4.83
   4  -4   3    0.11    4.52
  -4   4  -3   -2.17    3.68
  -4   4  -3   -4.12    4.39
  -4   4  -3   -1.91    2.15
  -4   4  -3   -0.67    4.17
   4  -4   3   -7.98    4.28
   4  -4   3    0.67    2.34
   3  -1  -5    4.91    2.08
   3  -1  -5    6.21    2.94
   3  -1  -5   -0.17    3.36
  -3   1   5    0.11    2.38
  -3   1   5   -0.89    6.96
  -3   1   5    2.48    2.70
  -3   1   5    2.78    2.80
  -2   0  -8   16.42    6.37
   2   0   8   28.40    6.05
   2   0   8   12.83    5.95
   2   0   8    8.82    3.88
  -2   0  -8   23.45    4.68
  -2   0  -8   35.13    9.84
  -2   0  -8   16.73    5.57
   4  -4   0  651.78   39.39
   4  -4   0  736.22   60.15
   4  -4   0  698.88   43.23
  -4   4   0  631.77   69.88
   4  -4   0  679.82   56.36
  -4   4   0  686.79   56.00
  -4   4   0  737.19   44.99
  -1  -7  -2   24.06    4.68
  -1  -7  -2   16.89    5.51
   1   7   2   39.94    4.08
   1   7   2   54.52    8.84
   1   7   2   45.32    7.50
  -1  -7  -2   35.74    5.83
  -1  -7  -2   39.24    8.02
  -1  -7  -2   24.68    6.21
   1   7   2   26.48    5.35
   4  -2  -3   91.79   11.56
   4  -2  -3   97.14   12.08
  -4   2   3  123.76   15.79
   4  -2  -3  112.66   13.42
   4  -2  -3  115.94   13.43
  -4   2   3  135.90   17.90
  -4   2   3  124.59   16.17
  -4   2   3  126.09   11.09
   4  -2  -3  106.93    9.85
   4  -1   7  123.76   16.66
   4  -1   7  144.08   20.24
   4  -1   7  131.17   12.32
  -4   1  -7  142.10   14.61
  -4   1  -7  141.79   13.32
  -4   1  -7  138.43   13.97
  -4   1  -7  107.62   18.00
   0  -3  -7  437.43   30.34
   0   3   7  442.08   34.03
   0  -3  -7  446.51   41.23
   0  -3  -7  480.24   35.50
   0  -3  -7  495.68   40.81
   3   1   8  250.15   25.99
  -3  -1  -8  262.05   32.83
  -3  -1  -8  275.21   26.19
  -3  -1  -8  270.90   27.51
  -3  -1  -8  279.16   23.65
   3   1   8  253.42   31.74
   3   1   8  263.93   21.57
   1   0  -7  152.38   20.41
   1   0  -7  162.34   15.56
  -1   0   7  156.27   10.13
   1   0  -7  128.12   12.82
  -1   0   7  151.59   14.50
  -1   0   7  202.31   31.92
  -1   0   7  140.25   13.58
  -2   6   0   -1.28    3.39
  -2   6   0   -1.04    3.55
   2  -6   0    3.61    4.36
   2  -6   0   -0.92    2.94
   2  -6   0   -9.97    4.28
  -2   6   0    8.38    5.17
  -2   6   0    0.34    2.06
   1  -6   3  366.27   31.02
   1  -6   3  382.92   54.44
   1  -6   3  378.71   38.16
  -1   6  -3  349.07   22.35
  -1   6  -3  324.24   54.62
  -1   6  -3  302.50   20.60
  -1   6  -3  323.82   27.86
   3  -3  -4  122.35   18.86
   3  -3  -4  124.27   19.20
   3  -3  -4  123.96   12.41
   3  -3  -4  130.08   14.33
  -3   3   4  124.17   12.42
  -3   3   4  128.78   12.47
  -3   3   4  102.29   13.29
  -2   6  -1  314.55   23.19
  -2   6  -1  311.97   43.39
   2  -6   1  298.74   22.33
   2  -6   1  272.06   29.08
   2  -6   1  321.18   39.28
  -2   6  -1  333.28   28.88
  -1   4  -6  250.10   17.04
  -1   4  -6  223.52   14.33
  -1   4  -6  253.76   45.91
   1  -4   6  219.66   32.11
  -1   4  -6  238.67   19.63
   1  -4   6  250.08   23.51
   1  -4   6  212.48   20.41
   2   2   8  930.80  107.82
  -2  -2  -8  932.84   83.94
  -2  -2  -8  854.61   64.75
  -2  -2  -8  918.33  112.48
  -2  -2  -8  886.78   53.77
  -2  -2  -8  950.32  149.91
  -6   0  -3  301.96   32.71
  -6   0  -3  291.54   23.08
   6   0   3  320.20   28.00
   6   0   3  334.96   36.53
  -6   0  -3  357.77   32.08
   6   0   3  243.33   29.11
  -6   0  -3  299.49   24.80
   3   2  -5  454.84   31.42
  -3  -2   5  407.61   30.48
   3   2  -5  425.78   35.14
  -3  -2   5  450.65   37.97
  -3  -2   5  442.89   53.10
  -3  -2   5  371.26   27.85
   5   2  -2  563.93   54.71
   5   2  -2  521.04   58.67
   5   2  -2  449.09   58.81
  -5  -2   2  484.42   32.71
  -5  -2   2  473.56   73.47
  -5  -2   2  479.93   48.87
  -5  -2   2  499.93   63.22
  -6  -3  -2  486.45   26.95
  -6  -3  -2  464.87   51.84
  -6  -3  -2  436.26   31.78
  -6  -3  -2  513.66   40.69
   6   3   2  460.81   51.81
   6   3   2  402.47   66.16
   6   3   2  485.78   30.49
  -2  -5   4   29.09    7.42
  -2  -5   4   34.68    6.02
  -2  -5   4   39.26    7.81
  -2  -5   4   31.86    4.90
   2   5  -4   16.22    6.83
  -3  -4   4   42.24    7.56
  -3  -4   4   30.79    8.37
   3   4  -4   39.99    6.63
   3   4  -4   66.77   11.10
   3   4  -4   35.08    9.09
  -3   4   3  100.97   14.06
  -3   4   3   98.26   11.41
   3  -4  -3   78.27    7.56
   3  -4  -3  103.19   12.53
   3  -4  -3  114.35   13.28
  -3   4   3   94.06   12.32
  -3   4   3   83.81   10.69
   3  -5   3  343.29   22.83
  -3   5  -3  324.17   28.26
  -3   5  -3  339.77   29.52
  -3   5  -3  345.84   35.42
   3  -5   3  333.34   26.30
  -3   5  -3  397.46   30.93
   3  -5   3  341.60   37.71
   3  -5  -1   33.82    7.28
   3  -5  -1   36.72    7.96
  -3   5   1   16.15    6.12
  -3   5   1   38.89    7.57
  -3   5   1   46.42    6.38
  -3   5   1   39.85    7.92
   3  -5  -1   31.89    4.08
   3  -5  -1   30.00    8.51
  -6   0  -2  618.84   60.92
  -6   0  -2  678.30   52.08
  -6   0  -2  612.66   72.63
   6   0   2  620.18   30.75
   6   0   2  604.49   58.47
  -6   0  -2  653.99   38.88
   6   0   2  616.73   64.30
   1  -6  -3  550.25   40.38
  -1   6   3  524.15   32.17
  -1   6   3  517.00   85.00
  -1   6   3  564.40   57.79
   1  -6  -3  548.32   92.66
   1  -6  -3  503.24   44.44
  -1  -4  -7    7.22    4.27
  -1  -4  -7    7.70    7.06
  -1  -4  -7    7.02    4.99
  -1  -4  -7    1.80    3.01
  -6  -1  -1 1362.99  144.69
  -6  -1  -1 1293.09  132.35
  -6  -1  -1 1305.45   59.65
  -6  -1  -1 1266.09  132.90
   6   1   1 1315.84  123.68
   6   1   1 1350.15  120.71
   6   1   1 1238.19  104.57
  -4  -5  -6  208.69   22.61
  -4  -5  -6  185.75   17.50
   4   5   6  193.16   23.41
   4   5   6  173.07   16.50
  -4  -5  -6  179.58   12.33
   4   5   6  160.12   15.11
  -5   0   2   -0.59    2.39
   5   0  -2    7.30    4.00
   5   0  -2   -3.43    5.43
  -5   0   2   -3.46    5.86
   5   0  -2    3.08    5.25
   5   0  -2    4.93    2.16
  -5   0   2   -1.34    5.50
  -6  -2  -1  233.08   17.87
  -6  -2  -1  205.76   15.08
  -6  -2  -1  196.84   17.40
  -6  -2  -1  229.74   19.69
   6   2   1  211.82   22.06
   6   2   1  231.27   24.19
   6   2   1  203.03   22.90
  -6  -2  -1  179.80   14.53
  -6  -3  -4   60.24    8.60
  -6  -3  -4   60.57   12.27
   6   3   4   58.86   11.09
  -6  -3  -4   67.51    8.70
   6   3   4   65.77   10.23
   6   3   4   57.78   11.36
  -6  -3  -4   96.84   12.30
   3   2   8   81.77    9.45
  -3  -2  -8   73.66    8.90
  -3  -2  -8  106.00   12.00
  -3  -2  -8   71.45   13.24
   3   2   8   75.98   14.15
  -3  -2  -8   61.20   11.47
  -3  -2  -8   77.52    9.75
   1  -1  -7   86.08   11.50
   1  -1  -7   86.54   14.09
  -1   1   7  107.58   16.56
  -1   1   7   90.67   14.38
  -1   1   7  101.54   14.71
   1  -1  -7   80.96   12.95
   1  -1  -7   94.09    8.73
  -1   1   7   84.63   12.69
   2   7   0  443.78   42.53
  -2  -7   0  448.79   45.93
  -2  -7   0  391.08   28.18
   2   7   0  423.17   39.39
   2   7   0  463.06   51.54
  -2  -7   0  386.63   27.87
  -1  -6  -5  678.87   95.77
  -1  -6  -5  596.15   41.24
   1   6   5  558.69   29.25
  -1  -6  -5  573.25   47.26
  -1  -6  -5  581.49   44.81
  -1  -6  -5  617.20   72.21
   2   2  -6  135.29   19.38
  -2  -2   6  127.05   19.99
  -2  -2   6   92.28   21.35
   2   2  -6  109.38   13.32
  -2  -2   6  123.53   14.18
  -2  -2   6  137.34   14.77
   4   6   0   12.54    4.19
   4   6   0   22.70    6.36
   4   6   0   16.45    5.21
  -4  -6   0   21.98    6.85
  -4  -6   0   13.05    4.91
  -4  -6   0   14.08    6.40
   1   1   8  556.28   55.21
   1   1   8  429.59   19.21
  -1  -1  -8  433.47   45.34
  -1  -1  -8  462.81   29.93
  -1  -1  -8  487.50   53.48
  -1  -1  -8  444.85   38.65
   1   1   8  464.36   41.11
  -5  -4  -6  373.63   23.20
  -5  -4  -6  380.61   22.20
  -5  -4  -6  345.91   32.51
   5   4   6  353.89   23.68
  -5  -4  -6  369.14   39.66
   5   4   6  383.97   35.27
   5   4   6  384.80   41.13
   0  -5   5  129.97   20.20
   0   5  -5  176.65   23.51
   0   5  -5  185.67   24.08
   0   5  -5  151.92   11.44
   0  -5   5  144.11   22.30
   0  -5   5  138.98   13.94
   4   1  -4  148.48   15.82
  -4  -1   4  168.83   22.30
   4   1  -4  107.47   13.23
  -4  -1   4  101.21   20.34
  -4  -1   4  154.47   14.10
  -4  -1   4  117.21   14.08
   4   1  -4  153.19   26.09
   0  -4   6  275.01   43.25
   0  -4   6  344.21   29.89
   0   4  -6  359.43   42.04
   0   4  -6  346.80   34.19
   0   4  -6  370.87   26.51
   0  -4   6  310.79   21.18
   0  -4   6  334.76   39.64
   2   4  -5   10.26    6.86
   2   4  -5   20.30    5.40
  -2  -4   5   14.00    5.78
  -2  -4   5   10.18    5.07
  -2  -4   5   18.83   20.03
  -1   5  -5  279.35   54.46
   1  -5   5  325.79   21.51
   1  -5   5  289.87   14.04
  -1   5  -5  285.37   28.13
   1  -5   5  296.95   46.56
  -1   5  -5  315.03   30.78
  -1   5  -5  326.08   19.07
   3   0   8  236.21   23.16
   3   0   8  213.32   24.08
   3   0   8  206.63   24.69
  -3   0  -8  205.61   22.50
  -3   0  -8  246.69   30.41
  -3   0  -8  304.68   37.70
  -3   0  -8  246.26   19.53
  -3   0  -8  264.37   25.14
   5   4  -1  124.63   16.03
   5   4  -1  112.22   16.98
  -5  -4   1  120.34   15.57
  -5  -4   1  119.31   15.36
   5   4  -1  137.98   20.79
   5  -1   6   -0.57    3.69
   5  -1   6   11.40    3.55
   5  -1   6   11.99    4.62
  -5   1  -6   -3.74    4.81
  -5   1  -6    9.55    4.86
  -5   1  -6    7.97    5.32
   1   0   8    7.26    6.12
   1   0   8    9.97    3.15
  -1   0  -8   13.63    6.83
  -1   0  -8    4.35    6.55
   1   0   8   12.93    3.41
  -1   0  -8    9.04    2.97
  -1   0  -8    7.26    2.32
   1   1  -7  331.11   21.36
   1   1  -7  347.08   39.33
  -1  -1   7  344.99   40.57
  -1  -1   7  371.75   34.54
  -1  -1   7  344.60   44.06
  -1  -1   7  360.29   30.07
   1   1  -7  393.05   35.52
   1   1  -7  379.17   37.90
   2   7   3  180.01   15.49
  -2  -7  -3  168.05    9.62
  -2  -7  -3  142.12   17.03
  -2  -7  -3  164.64   16.77
  -2  -7  -3  173.96   17.80
   2   7   3  173.96   14.53
   2   7   3  129.71   27.77
   0   7   0   26.40    7.95
   0   7   0   48.81   10.41
   0  -7   0   29.36    7.80
   0  -7   0   25.43    7.33
   0  -7   0   26.83    6.87
   0  -7  -1    0.40    1.22
   0   7   1    0.43    3.56
   0   7   1   -1.22    2.98
   0   7   1    3.70    3.08
   0  -7  -1   -3.57    3.67
   0  -7  -1    2.22    5.91
   0  -7  -1    3.77    6.77
   4   4   7  109.87   11.56
   4   4   7   90.30   10.49
   4   4   7   97.64    8.82
  -4  -4  -7   87.37   11.26
  -4  -4  -7   92.83   16.87
  -4  -4  -7   99.16    8.03
  -4  -4  -7   95.46   10.28
   6   0   4  165.94   18.27
  -6   0  -4  148.64   12.72
   6   0   4  141.87   14.26
   6   0   4  109.58   15.62
  -6   0  -4  119.24   16.78
  -6   0  -4  131.19   14.03
  -6   0  -4   91.77   10.86
   4   0  -4  223.97   16.25
   4   0  -4  205.39   20.31
  -4   0   4  198.67   24.03
  -4   0   4  162.80   25.40
  -4   0   4  187.54   16.82
  -4   0   4  234.22   27.20
  -4   0   4  255.84   20.58
   4   0  -4  232.00   17.82
   4   0  -4  237.87   27.77
   6   2   5    0.66    4.29
  -6  -2  -5   -0.22    3.06
  -6  -2  -5    0.17    6.86
   6   2   5   -0.33    3.26
   6   2   5   11.87   13.86
  -6  -2  -5   -0.93    4.35
  -6  -2  -5    8.41    5.08
  -5   2  -5  321.84   18.39
  -5   2  -5  304.75   28.59
   5  -2   5  277.22   18.23
  -5   2  -5  306.26   24.05
  -5   2  -5  305.14   20.91
   5  -2   5  317.61   28.04
   5  -2   5  325.24   26.72
  -2   6   1  340.74   17.96
   2  -6  -1  312.41   34.37
   2  -6  -1  366.23   25.60
   2  -6  -1  332.96   44.57
  -2   6   1  338.95   18.20
  -2   6   1  344.12   40.93
  -2   6   1  304.05   37.37
  -2   6  -2   34.63    7.08
  -2   6  -2   18.01    5.32
  -2   6  -2   24.83    7.25
  -2   6  -2   28.50    2.03
   2  -6   2   35.34    8.01
   2  -6   2   19.63    6.56
   2  -6   2   49.66   11.90
  -2   2   6    0.87    2.37
  -2   2   6    4.03    2.45
   2  -2  -6   -0.22    2.29
   2  -2  -6   -0.47    2.62
   2  -2  -6    0.86    2.39
   2  -2  -6    6.32    4.31
  -2   2   6   12.16    8.34
  -2   4  -6   16.31    4.05
  -2   4  -6    5.06    2.05
  -2   4  -6    0.95    3.90
  -2   4  -6   11.72    6.20
   2  -4   6    5.72    4.13
  -2   4  -6    9.82    3.90
   2  -4   6   13.33    4.86
   2  -4   6    0.22    3.57
   1   7  -1  105.11   19.14
  -1  -7   1  124.11   19.96
  -1  -7   1  131.49   22.39
   1   7  -1  133.83   13.14
   1   7  -1  127.47   28.47
   1   7  -1  136.84   11.33
  -1  -7   1  173.95   20.40
   5   2   7  337.53   28.81
   5   2   7  324.36   32.25
  -5  -2  -7  288.43   23.40
   5   2   7  288.17   38.80
  -5  -2  -7  322.43   27.54
  -5  -2  -7  277.60   33.15
   6   1   5    5.77    5.13
  -6  -1  -5    0.57    4.00
   6   1   5    4.57    3.68
   6   1   5   -0.06    4.85
  -6  -1  -5   -3.37    5.50
  -6  -1  -5    2.40    3.43
  -6  -1  -5    6.29    5.34
  -3  -7  -2   57.99    9.02
  -3  -7  -2   48.18   10.21
  -3  -7  -2   60.01    8.84
  -3  -7  -2   50.88    8.18
   3   7   2   58.26   10.32
   3   7   2   62.31    8.91
   3   7   2   55.05    8.77
   5   5   5   44.93    7.57
  -5  -5  -5   45.80    9.48
  -5  -5  -5   61.81   10.92
  -5  -5  -5   47.93    8.39
   5   5   5   29.68    7.39
   5   5   5   52.05    8.55
   5   1   7  152.22   23.23
   5   1   7  156.63   16.36
  -5  -1  -7  133.86   18.69
  -5  -1  -7  140.35   15.77
  -5  -1  -7  160.61   18.12
  -5  -1  -7  172.61   22.25
   4   5  -2   57.47   11.99
   4   5  -2   65.30   12.11
  -4  -5   2   45.71    7.83
  -4  -5   2   52.13    6.55
  -4  -5   2   51.02    9.61
  -5   3  -2  251.67   19.02
   5  -3   2  255.31   15.86
   5  -3   2  261.06   32.51
  -5   3  -2  229.27   15.60
   5  -3   2  241.53   18.94
   5  -3   2  225.29   25.79
  -5   3  -2  213.24   24.63
  -5   3  -2  248.68   23.51
   1  -3   7   18.51    6.36
   1  -3   7   29.20    5.11
  -1   3  -7   33.58    7.68
  -1   3  -7   41.86    6.26
  -1   3  -7   39.04    5.35
   6   0   1  319.44   33.11
  -6   0  -1  366.91   41.67
  -6   0  -1  265.65   24.28
   6   0   1  251.87   32.10
  -6   0  -1  292.86   22.09
  -6   0  -1  316.92   41.23
   6   0   1  240.81   38.17
  -1  -7  -3    1.40    5.56
  -1  -7  -3   13.24    4.89
  -1  -7  -3    6.13    2.57
   1   7   3    9.25    4.46
  -1  -7  -3   11.23    3.45
   1   7   3   11.78    5.55
  -1  -7  -3   -0.36    2.60
   3   6  -2   -2.11    3.91
  -3  -6   2   -2.94    2.75
   3   6  -2   -0.84    3.29
   3   6  -2    2.58    5.02
  -3  -6   2   -0.39    3.64
  -3  -6   2    2.07    4.55
  -1  -2  -8   19.08    2.42
   1   2   8   19.42    2.80
  -1  -2  -8   17.47    2.53
  -1  -2  -8    8.45    5.23
  -1  -2  -8   15.90    6.04
   1   2   8   13.43    1.93
   4   4  -3   40.16    8.08
  -4  -4   3   49.00    4.63
  -4  -4   3   45.65    8.67
  -4  -4   3   54.99    8.41
  -4  -4   3   40.52    5.30
   4   4  -3   25.70    6.37
   4   4  -3   28.40    6.27
   6   3   1   33.04    8.39
  -6  -3  -1   40.32    9.05
   6   3   1   25.06    7.07
  -6  -3  -1   32.28    9.00
  -6  -3  -1   28.77    8.03
  -6  -3  -1   22.08    5.87
   6   3   1   29.65    6.96
   2  -1   8  264.79   27.34
  -2   1  -8  235.39   23.80
  -2   1  -8  239.08   16.91
   2  -1   8  238.93   24.35
  -2   1  -8  223.06   31.65
   2  -1   8  242.87   30.90
  -2   1  -8  212.48   20.44
  -2   1  -8  226.57   24.58
  -3  -7  -1   60.85    9.15
  -3  -7  -1   46.66    7.88
   3   7   1   78.49    8.34
  -3  -7  -1   57.16   10.35
  -3  -7  -1   49.04    9.37
   3   7   1   59.85    8.84
   3   7   1   59.81    8.88
   4   2  -4    6.35    6.07
  -4  -2   4    2.78    4.77
   4   2  -4    2.70    3.74
   4   2  -4    0.75    4.78
  -4  -2   4    4.18    5.37
  -4  -2   4   -1.81    4.20
  -2  -6   3  333.92   56.87
  -2  -6   3  392.09   33.79
  -2  -6   3  301.72   42.02
   2   6  -3  369.31   37.43
   2   6  -3  307.08   22.68
   2   6  -3  329.38   21.23
   2   6  -3  323.61   39.91
  -5   2   1  181.37   21.42
   5  -2  -1  184.22   15.57
   5  -2  -1  210.04   19.52
  -5   2   1  210.44   20.74
   5  -2  -1  179.23   21.36
   5  -2  -1  169.92   20.93
   5  -2  -1  174.74   18.56
  -5   2   1  167.45   18.41
  -5  -5   0  191.01   20.49
   5   5   0  204.35   19.83
  -5  -5   0  261.35   24.15
  -5  -5   0  261.17   24.10
   5   5   0  244.00   21.39
   5   5   0  234.82   26.09
  -2   3  -7  271.38   32.18
  -2   3  -7  251.82   25.59
  -2   3  -7  209.88   46.27
  -2   3  -7  268.23   21.40
   2  -3   7  260.75   16.67
   2  -3   7  227.45   28.49
  -2   3  -7  336.81   34.13
  -4   4  -4   41.31    8.25
  -4   4  -4   36.72   11.23
  -4   4  -4   54.12   12.09
   4  -4   4   32.94    6.76
   4  -4   4   61.63    9.38
  -4   4  -4   43.28    8.11
   4  -4   4   54.58    7.76
   1  -5  -5  109.32   16.95
  -1   5   5   93.78   11.06
  -1   5   5  121.69   13.33
  -1   5   5  109.95   13.63
   1  -5  -5   96.15   11.73
   1  -5  -5   99.64    9.35
   1  -5  -5  109.66    9.92
   1  -5  -5  134.74   14.50
   0   7  -1   21.41    2.41
   0   7  -1   18.90   20.07
   0   7  -1   17.22    2.32
   0  -7   1   11.86    7.70
   0  -7   1   28.02    5.46
   0  -7   1    6.30    5.06
   0   7  -1   17.75    6.65
   0   7  -1   16.53    6.39
  -5   3  -3    4.78    7.69
   5  -3   3    0.33    2.32
   5  -3   3   -0.06    4.41
   5  -3   3   -1.24    4.44
   5  -3   3    0.56    4.86
  -5   3  -3    0.77    4.85
  -5   3  -3   12.32    6.31
  -5   3  -3   -1.54    3.99
   5   3  -2  116.94   16.20
   5   3  -2  141.95   17.66
   5   3  -2  124.11   20.93
  -5  -3   2  127.25    9.42
  -5  -3   2  152.27   19.36
  -5  -3   2  126.73   19.81
   0  -7  -2  116.84   14.30
   0  -7  -2  139.37   19.27
   0  -7  -2  177.77   17.20
   0   7   2  134.71   11.23
   0   7   2  136.20   17.50
   0   7   2  124.12   17.89
   0  -7  -2  164.86   12.93
  -4   4   1   -1.87    3.10
  -4   4   1   10.64    6.38
  -4   4   1   -7.22    4.92
  -4   4   1    4.29    3.72
   4  -4  -1    8.86    4.34
   4  -4  -1    2.70    2.48
   4  -4  -1   -0.23    4.16
   4  -4  -1    0.85    4.17
  -5   3  -1   65.26    8.98
  -5   3  -1   39.51    7.25
   5  -3   1   71.51   10.85
   5  -3   1   77.99    8.99
   5  -3   1   60.19    9.79
   5  -3   1   51.95   10.01
  -5   3  -1   56.58    7.12
  -5   3  -1   43.51    8.28
  -2  -3  -8  841.55   79.76
  -2  -3  -8  852.03  107.11
  -2  -3  -8  839.46   72.06
  -6  -3  -5   30.49    4.87
  -6  -3  -5   35.84    8.33
   6   3   5   27.97    7.12
  -6  -3  -5   29.99    5.54
  -6  -3  -5   32.51    9.12
   6   3   5   14.38   10.01
   6   3   5   37.51    5.49
  -3  -3  -8  134.90   31.23
  -3  -3  -8  164.22   24.04
  -3  -3  -8  131.00   16.94
  -3  -3  -8  146.62   12.64
   3   3   8  141.31   13.39
  -3  -3  -8  114.94   14.57
   3   7   3  177.76   18.94
   3   7   3  163.50   16.33
  -3  -7  -3  188.55   17.75
  -3  -7  -3  123.60   19.66
   3   7   3  153.28   15.15
  -3  -7  -3  118.37   11.18
  -3  -7  -3  178.66   17.37
   1  -2  -7  149.70   17.48
   1  -2  -7  151.20   12.71
   1  -2  -7  137.98   13.30
   1  -2  -7  145.18   12.42
   1  -2  -7  132.83   13.29
  -1   2   7  109.03   13.96
  -1   2   7  121.23   19.77
   4   6   5   75.33   10.04
  -4  -6  -5   76.43    9.14
  -4  -6  -5   95.86   14.84
   4   6   5   82.88   10.63
  -4  -6  -5  108.82   14.08
   4   6   5   71.55    8.03
   6   4   3  188.15   18.60
   6   4   3  262.19   30.61
  -6  -4  -3  227.26   19.54
   6   4   3  227.58   18.80
  -6  -4  -3  211.85   14.53
  -6  -4  -3  203.32   23.10
   1  -4  -6  148.85   18.17
   1  -4  -6  140.01   11.04
   1  -4  -6  130.38   14.49
  -1   4   6  138.82   15.42
  -1   4   6  130.15   10.39
  -1   4   6  126.44   13.01
   1  -4  -6  124.86   14.85
   1  -4  -6  118.53   11.85
   3  -2  -5   99.35   16.42
   3  -2  -5   99.73   25.57
  -3   2   5   82.17    8.50
   3  -2  -5   99.84   11.69
   3  -2  -5   94.74   11.74
  -3   2   5   95.39   12.47
  -3   2   5   94.84   13.29
  -3   2   5   77.05   12.03
   5  -1  -2  339.85   30.55
   5  -1  -2  296.21   38.77
  -5   1   2  301.16   31.47
  -5   1   2  303.30   28.90
  -5   1   2  338.53   47.11
   5  -1  -2  343.23   33.03
   5  -1  -2  252.42   24.40
   1  -1   8    4.95    3.95
  -1   1  -8    0.06    2.31
  -1   1  -8   -0.68    3.20
  -1   1  -8   11.65    7.59
   1  -1   8    2.45    2.93
   1  -1   8    1.36    4.08
  -1   1  -8    2.48    3.02
  -2  -7   1  422.12   41.41
  -2  -7   1  386.83   37.59
  -2  -7   1  371.99   28.06
   2   7  -1  397.20   35.54
   2   7  -1  385.97   34.53
   2   7  -1  421.23   31.25
  -5  -3  -7  160.45   23.85
   5   3   7  115.57   16.58
  -5  -3  -7  112.45   16.88
  -5  -3  -7  143.01   13.43
   5   3   7  141.29   15.64
  -5  -3  -7  138.89   15.79
   5   3   7  135.99   19.93
   4   1   8  149.14   13.09
   4   1   8  171.20   24.81
  -4  -1  -8  158.58   18.76
  -4  -1  -8  167.20   22.16
  -4  -1  -8  173.18   16.21
   1   5  -5  555.90   49.16
  -1  -5   5  619.69   83.30
   1   5  -5  492.03   86.21
   1   5  -5  549.76   62.88
  -1  -5   5  541.59   59.16
  -1  -5   5  597.31   42.93
  -1  -5   5  605.53   80.06
  -4   1   4   12.95    4.05
  -4   1   4    2.94    3.11
   4  -1  -4    2.84    3.27
  -4   1   4   -0.57    3.93
   4  -1  -4    3.81    4.10
   4  -1  -4    8.65    7.01
   4  -1  -4    5.91    4.58
  -4   1   4    1.71    7.33
   0  -5  -6   -1.20    3.42
   0  -5  -6    8.99    3.93
   0  -5  -6    0.93    4.12
  -4  -2  -8  213.16   11.64
  -4  -2  -8  240.98   24.81
  -4  -2  -8  250.36   20.29
   4   2   8  237.68   26.15
   4   2   8  210.80   21.73
   4   2   8  187.69   22.24
  -6  -4  -2  180.27   19.01
   6   4   2  214.11   19.35
  -6  -4  -2  216.49   12.10
   6   4   2  225.85   20.90
   6   4   2  232.09   25.06
  -6  -4  -2  247.38   27.00
  -2   4   5   84.55   11.95
  -2   4   5   61.30    8.94
  -2   4   5   74.54    8.80
  -2   4   5   79.86   11.62
   2  -4  -5   86.33   11.18
   2  -4  -5   76.35   10.45
   2  -4  -5   77.00    9.81
   2  -4  -5   81.52   10.01
   6   1   0  130.39   14.98
   6   1   0  111.53   18.77
   6   1   0  134.01   14.55
  -6  -1   0  113.85   13.57
  -6  -1   0  121.08   14.61
  -6  -1   0  120.50   17.15
  -6  -1   0  114.96   18.14
  -6   1  -3  127.78   12.42
  -6   1  -3  157.29   18.21
  -6   1  -3  159.29   13.85
   6  -1   3  183.79   19.34
   6  -1   3  152.94   17.40
   6  -1   3  146.61   14.48
  -2   5  -5   82.76    6.24
  -2   5  -5   68.95    7.97
  -2   5  -5   75.99   17.08
   2  -5   5   95.27   12.39
   2  -5   5  105.93   10.59
   2  -5   5   69.25   14.70
  -2   5  -5   96.79   11.43
  -2   5  -5   87.39   10.13
  -6  -4  -4   30.44    8.12
  -6  -4  -4   32.63    9.39
   6   4   4   36.21    8.32
   6   4   4   19.67    6.75
   6   4   4   30.53    7.71
  -5   0  -7    3.58    5.35
  -5   0  -7   -1.34    5.03
   5   0   7   -6.23    4.35
   5   0   7    2.90    2.84
   5   0   7    2.06    5.45
   5   0   7   -2.69    4.21
  -5   0  -7    0.93    6.27
  -5   0  -7    7.19    4.79
   3   3  -5   62.74   10.00
   3   3  -5   51.41   10.16
  -3  -3   5   53.78    8.94
  -3  -3   5   52.43    9.33
  -3  -3   5   57.08    6.79
  -6  -2   0  152.04   13.03
  -6  -2   0  108.52   15.99
  -6  -2   0  129.26   21.28
  -6  -2   0  137.88   18.64
  -6  -2   0  132.76   14.97
   6   2   0  144.79   17.50
   6   2   0  154.22   25.54
   6   2   0  136.97   26.14
  -6   0  -5   98.48   13.54
   6   0   5  152.85   16.32
   6   0   5  121.31   18.01
   6   0   5   80.40   13.65
  -6   0  -5  128.68   17.44
  -6   0  -5  100.85   11.38
   0  -6   4    5.85    6.16
   0  -6   4   -0.22    3.09
   0  -6   4   -1.33    3.68
   0   6  -4    5.02    4.43
   0   6  -4    5.63    3.76
   0   6  -4    5.66    6.72
  -6   1  -2  446.34   34.47
  -6   1  -2  347.48   27.77
  -6   1  -2  394.77   32.26
  -6   1  -2  363.74   51.90
   6  -1   2  417.71   39.46
   6  -1   2  371.20   42.00
   6  -1   2  404.05   49.36
   3  -5   4   43.26    8.12
  -3   5  -4   34.41    3.63
  -3   5  -4   31.19    8.16
   3  -5   4   36.82    6.85
   3  -5   4   52.07   11.69
  -3   5  -4   37.11    8.12
  -3   5  -4   34.16    8.00
  -3   1  -8    0.85    3.11
  -3   1  -8    9.90    4.25
  -3   1  -8    2.09    5.60
  -3   1  -8    8.37    6.73
   3  -1   8    5.91    3.83
   3  -1   8   10.44    5.94
   3  -1   8    4.15    4.62
  -3   1  -8    2.05    3.62
  -3   5   2  228.47   18.79
  -3   5   2  239.36   20.48
  -3   5   2  237.73   18.78
   3  -5  -2  201.63   18.17
  -3   5   2  265.62   27.24
   3  -5  -2  234.67   21.39
   3  -5  -2  236.65   22.78
   3  -5  -2  227.41   20.52
  -1  -2   7   21.48    5.87
   1   2  -7   14.50    1.96
  -1  -2   7   21.04    6.43
  -1  -2   7   26.73    6.88
  -1  -2   7   15.50    5.66
   1   2  -7   17.96    6.09
   1   2  -7   30.89    6.95
   1   2  -7   18.92    2.02
   0   3  -7 1072.99   86.30
   0  -3   7  986.03  105.35
   0  -3   7 1005.94   92.67
   0   3  -7 1101.35  139.72
   0   3  -7  973.04   65.99
   0  -3   7 1007.77  125.22
  -3  -7   0    0.79    3.38
  -3  -7   0    5.93    4.14
   3   7   0    3.82    4.85
   3   7   0   13.59    4.77
   3   7   0    7.59    4.81
  -3  -7   0   -2.14    4.71
   3   5   7    1.32    3.69
   3   5   7    2.40    2.04
  -3  -5  -7    8.75    6.38
   3   5   7    3.37    1.99
  -3  -5  -7    2.30    1.62
  -3  -5  -7    0.28    1.56
  -3  -5  -7    6.02    4.04
  -2  -7  -4   34.29    7.80
   2   7   4   56.67   12.20
   2   7   4   59.45    9.49
   2   7   4   46.07    7.89
  -2  -7  -4   33.16    8.38
  -2  -7  -4   41.96    6.33
  -2  -7  -4   31.85    8.36
  -2  -7  -4   59.06    9.79
  -2   6   2  264.82   23.25
  -2   6   2  245.39   26.76
   2  -6  -2  251.40   31.57
  -2   6   2  245.19   22.31
   2  -6  -2  239.00   25.03
   2  -6  -2  244.97   24.71
   2  -6  -2  248.64   26.06
  -2   6   2  240.06   32.40
  -4   3  -6   -4.91    3.48
  -4   3  -6   -1.97    3.37
   4  -3   6   -1.44    4.49
  -4   3  -6   -0.28    6.22
   4  -3   6    0.28    3.65
  -4   3  -6   -2.80    3.98
  -2  -5  -7  461.81   45.10
  -2  -5  -7  469.76   47.97
  -2  -5  -7  440.97   30.88
   2  -6   3  102.32   12.02
   2  -6   3  106.79   10.37
   2  -6   3  136.46   18.64
  -2   6  -3  123.89   15.22
  -2   6  -3   90.24   14.04
  -2   6  -3  102.01   10.75
  -2   6  -3  115.99   11.08
   2  -5  -4   20.10    5.28
  -2   5   4   11.30    5.14
  -2   5   4    2.56    3.68
  -2   5   4   10.31    5.11
  -2   5   4   12.87    4.29
   2  -5  -4    9.02    3.57
   2  -5  -4   12.44    4.51
   1   4  -6   77.44   12.63
   1   4  -6   71.78   10.19
   1   4  -6   56.95   10.35
  -1  -4   6   86.69   12.70
  -1  -4   6   85.24   14.92
  -1  -4   6   75.42   10.86
  -4  -6   1    8.25    5.80
  -4  -6   1    8.55    4.15
   4   6  -1   25.01    6.77
   4   6  -1   22.49    7.44
   4   6  -1    7.28    5.21
  -4  -6   1    7.81    6.37
  -5   3  -4   47.39    9.33
  -5   3  -4   38.73    7.65
  -5   3  -4   33.73    8.25
   5  -3   4   42.86    8.26
  -5   3  -4   42.30    8.34
   5  -3   4   42.48    7.18
   5  -3   4   52.92    9.51
  -4   2  -7   92.00   11.67
  -4   2  -7   98.45   16.81
   4  -2   7  121.02   12.49
  -4   2  -7   92.95   16.04
  -4   2  -7  108.71   12.82
   2   3  -6  159.20   18.75
   2   3  -6  140.87   14.50
  -2  -3   6  172.11   24.11
  -2  -3   6  130.60   15.65
  -2  -3   6  154.04   26.14
   2   6   6  252.83   27.35
  -2  -6  -6  280.05   38.95
  -2  -6  -6  311.05   18.96
   2   6   6  278.97   25.96
  -2  -6  -6  258.07   28.27
  -2  -6  -6  274.43   29.95
  -2  -6  -6  308.57   34.17
  -4   0  -8  264.57   29.14
  -4   0  -8  226.28   23.80
   4   0   8  279.38   30.43
   4   0   8  251.20   28.54
   4   0   8  223.37   19.74
  -4   0  -8  271.25   18.47
  -4   0  -8  235.89   24.72
  -5  -6  -3   61.04   13.83
  -5  -6  -3   60.36   11.45
  -5  -6  -3   48.46    6.06
   5   6   3   98.85   14.41
   5   6   3   60.58    9.82
   5   6   3   62.54   10.69
  -6   1  -4   85.66    8.72
  -6   1  -4  104.94   12.53
  -6   1  -4   75.44   13.78
  -6   1  -4  113.97   15.64
   6  -1   4   82.22   10.77
   6  -1   4  100.91   18.34
   6  -1   4   89.94   11.42
  -5   3   0    9.54    4.86
  -5   3   0   33.43    8.33
   5  -3   0   20.39    6.01
   5  -3   0   22.04    6.27
   5  -3   0   19.81    5.76
  -5   3   0   14.32    5.23
  -3  -6  -6  112.91   13.92
   3   6   6   92.45    8.40
   3   6   6  107.97   12.56
   3   6   6  106.11   38.88
  -3  -6  -6   83.71   12.06
  -3  -6  -6  111.65   13.02
  -3  -6  -6   84.33   12.58
   0   0   8    1.24    2.47
   0   0   8    3.43    3.64
   0   0   8  -11.24    6.96
   0   0   8    0.73    3.60
   0   0  -8   -3.71    6.01
   0   0  -8    0.00    2.63
   0   0  -8    2.85    3.40
   1  -6   4  325.51   60.41
  -1   6  -4  355.18   28.37
   1  -6   4  330.61   36.64
  -1   6  -4  370.02   66.54
  -1   6  -4  336.98   26.76
  -1   6  -4  322.05   23.38
   1  -6   4  323.56   26.79
   0  -6  -5   20.67    3.75
   0  -6  -5   26.60    7.01
   0  -6  -5   15.71    6.79
   0  -6  -5   23.02    4.16
   0  -6  -5   22.05    3.96
   0   6   5   24.27    4.33
   0  -1  -8  215.25   25.24
   0   1   8  196.72   18.66
   0   1   8  175.15   16.74
   0  -1  -8  203.42   20.57
   0   1   8  223.93   24.38
   0  -1  -8  208.18   15.45
   0   1   8  208.65   24.06
   0  -1  -8  222.35   19.38
   5   6   2    5.70    6.81
   5   6   2    1.84    4.00
  -5  -6  -2   -5.26    5.06
  -5  -6  -2   -5.31    5.48
  -5  -6  -2    0.94    4.28
   5   6   2    1.61    5.19
   1   7  -2    1.63    1.87
   1   7  -2   12.86    5.83
  -1  -7   2    6.38    4.34
  -1  -7   2   -0.62    3.96
   1   7  -2    5.74    5.91
   1   7  -2   -2.87    4.49
  -1  -7   2    4.20    4.90
  -6   0   0  140.61   14.19
   6   0   0  102.38   12.99
   6   0   0  119.92   17.03
  -6   0   0  120.51   11.53
   6   0   0  129.70   13.73
  -6   0   0  125.55   16.64
  -6   0   0  128.25    9.36
  -3  -7  -4  309.21   42.61
  -3  -7  -4  262.87   21.80
   3   7   4  248.63   30.23
   3   7   4  288.95   30.14
  -3  -7  -4  289.23   33.32
   3   7   4  271.56   20.75
  -3  -7  -4  288.43   21.27
   0  -4  -7   33.93    7.49
   0  -4  -7   15.54    6.66
   0  -4  -7   39.03    8.65
   0  -4  -7   52.06   10.31
  -1  -6   4  173.48   15.44
  -1  -6   4  162.69   17.97
  -1  -6   4  147.56   21.08
   1   6  -4  147.72   23.03
   1   6  -4  185.28   27.29
   1   6  -4  173.41   17.69
  -1  -6   4  163.75   25.13
  -6  -2  -6  550.86   73.91
  -6  -2  -6  594.73   50.83
   6   2   6  582.71   67.86
   6   2   6  570.30   52.59
  -6  -2  -6  615.09   63.52
  -6  -2  -6  575.95   67.92
   6   2   6  683.13   79.23
  -1  -3  -8    4.89    6.50
  -1  -3  -8   12.15    4.07
  -1  -3  -8    2.49    5.29
  -1  -3  -8   16.26    5.41
   1  -7   0   12.99    5.30
   1  -7   0    0.34    3.64
   1  -7   0    3.65    4.94
  -1   7   0   -7.91    5.69
  -1   7   0    6.95    4.41
  -1   7   0   -7.19    6.21
   4   3  -4  135.51   13.75
   4   3  -4   92.65   17.31
  -4  -3   4  140.23   15.08
  -4  -3   4  131.73   17.43
   4   3  -4  145.47   23.54
  -4  -3  -8   21.42    3.75
  -4  -3  -8   23.96    6.89
  -4  -3  -8   24.08    5.00
   4   3   8   41.07    7.11
   4   3   8   27.43    9.54
  -4  -3  -8   23.47    5.32
   0   7  -2  365.67   25.76
   0   7  -2  318.00   45.01
   0   7  -2  369.01   25.60
   0   7  -2  350.13   69.40
   0  -7   2  380.74   57.81
   0  -7   2  372.28   42.85
   0  -7   2  351.48   37.64
   1  -6  -4    1.11    3.35
   1  -6  -4   -2.57    2.18
   1  -6  -4    4.47    4.76
   1  -6  -4    1.65    2.13
  -1   6   4    0.92    3.29
  -1   6   4   -0.39    2.39
  -1   6   4   -1.58    3.57
   6  -1   1  369.41   21.85
   6  -1   1  390.57   32.29
   6  -1   1  375.21   46.39
   6  -1   1  390.43   53.87
  -6   1  -1  375.28   30.17
  -6   1  -1  312.23   39.25
  -6   1  -1  368.01   23.90
  -6   1  -1  396.68   43.99
  -4   3   3  204.17   31.83
   4  -3  -3  162.02   20.34
   4  -3  -3  164.05   13.19
   4  -3  -3  136.07   14.99
   4  -3  -3  208.04   18.09
  -4   3   3  211.68   23.63
   4  -3  -3  162.09   23.42
  -4   3   3  167.00   47.62
   0  -7  -3    7.50    7.15
   0  -7  -3   16.34    5.00
   0  -7  -3    3.57    3.51
   0  -7  -3    5.21    3.53
   0  -7  -3    5.61    1.68
   0   7   3    3.98    3.11
   0   7   3   11.63    4.52
   0   7   3   12.22    6.11
   6   3   0   16.99    6.57
  -6  -3   0    7.76    5.61
  -6  -3   0   23.80    8.96
  -6  -3   0   23.51    5.94
  -6  -3   0   15.75    6.12
   6   3   0   26.90    8.27
   6   3   0    7.21    5.96
  -3   3  -7  154.38   14.54
  -3   3  -7  128.47   15.05
   3  -3   7  154.13   20.31
   3  -3   7  147.58   20.87
  -3   3  -7  136.03   14.65
  -3   3  -7  153.16   15.74
  -3   3  -7  110.39   10.91
   6   4   1  743.07   75.01
   6   4   1  687.11   80.63
  -6  -4  -1  731.15   59.65
  -6  -4  -1  746.93   68.58
  -6  -4  -1  729.03   70.68
   6   4   1  709.65   55.55
  -6  -1  -6   97.81   12.73
  -6  -1  -6   96.47   13.87
  -6  -1  -6   76.48   12.26
   6   1   6   99.97   12.15
   6   1   6   94.78   13.86
   6   1   6  148.46   18.59
   1   7   4  980.82   68.61
  -1  -7  -4  753.42   50.12
  -1  -7  -4  958.73   89.25
   1   7   4  858.75   81.42
  -1  -7  -4  935.69   86.01
  -1  -7  -4  950.67   67.02
  -1  -7  -4 1011.37  124.29
  -3   4  -6  396.52   33.43
  -3   4  -6  351.12   40.55
  -3   4  -6  388.48   38.29
   3  -4   6  437.82   33.74
   3  -4   6  439.13   41.48
  -3   4  -6  346.46   38.44
   3  -4   6  343.41   26.58
  -3   4  -6  399.35   29.99
  -6  -4  -5   33.47   10.49
   6   4   5   29.65    6.70
   6   4   5   28.98    8.06
  -6  -4  -5   42.80    7.96
  -6  -4  -5   47.57    8.98
   6   4   5   50.71    9.57
  -1   7   1  170.11   14.91
  -1   7   1  181.35   19.02
   1  -7  -1  134.64   32.27
   1  -7  -1  163.09   15.84
   1  -7  -1  136.17   23.27
  -1   7   1  164.58   28.31
  -5  -5  -6  111.78   13.41
   5   5   6  153.25   15.72
   5   5   6  142.12   21.53
   5   5   6  117.02   17.60
  -5  -5  -6  136.34   25.23
  -5  -5  -6  123.54   16.45
   1  -7   1  331.13   36.04
   1  -7   1  271.67   47.81
   1  -7   1  300.35   20.59
  -1   7  -1  296.53   32.32
  -1   7  -1  309.40   24.55
  -1   7  -1  304.75   65.78
   5   6   4   92.89    9.74
  -5  -6  -4   92.89   11.46
  -5  -6  -4   74.57   10.72
  -5  -6  -4  100.95    8.87
   5   6   4   88.47   10.24
   5   6   4  138.28   14.31
   2  -3  -6    7.38    4.08
   2  -3  -6   10.63    3.05
   2  -3  -6   18.62    7.10
   2  -3  -6   14.61    3.90
  -2   3   6    8.49    2.23
  -2   3   6    5.62    5.84
  -5   2  -6  188.74   20.19
  -5   2  -6  177.65   20.21
  -5   2  -6  170.54   17.85
   5  -2   6  175.34   22.52
   5  -2   6  163.46   15.28
   5  -2   6  190.30   17.50
  -5   2  -6  186.69   18.18
  -5  -1   3  323.31   31.37
  -5  -1   3  262.10   32.04
  -5  -1   3  317.57   30.31
   5   1  -3  234.63   23.94
   5   1  -3  237.71   27.55
   5   1  -3  266.06   27.65
  -5  -1   3  244.35   30.82
  -2   2  -8  342.39   38.44
  -2   2  -8  339.41   30.96
   2  -2   8  300.91   34.81
   2  -2   8  317.79   29.64
  -2   2  -8  280.21   24.67
   2  -2   8  372.30   47.54
  -2   2  -8  307.60   42.02
  -2   2  -8  358.58   23.96
   6   3   6   12.65    7.32
  -6  -3  -6   15.68    6.29
  -6  -3  -6   26.71    7.32
  -6  -3  -6   12.14    3.77
  -6  -3  -6   14.31    5.51
   6   3   6   11.55    5.66
   6   3   6   18.49    6.61
   0   1  -8  479.05   63.28
   0  -1   8  475.55   52.48
   0   1  -8  437.81   33.83
   0  -1   8  364.72   25.52
   0  -1   8  451.32   55.18
   0   1  -8  432.09   56.97
   0  -1   8  368.50   47.48
   0   1  -8  427.47   33.79
  -5  -4  -7  172.74   18.21
  -5  -4  -7  179.86   25.44
   5   4   7  176.73   22.00
   5   4   7  177.73   19.81
   5   4   7  174.23   25.64
  -5  -4  -7  183.51   17.81
  -5  -4  -7  166.14   23.40
   4   5   7   41.55    7.98
  -4  -5  -7   19.28    6.35
  -4  -5  -7   19.25    6.98
   4   5   7   26.51    4.28
  -4  -7  -2  108.12   14.06
  -4  -7  -2  109.01   14.50
  -4  -7  -2   95.29   10.25
   4   7   2  126.11   16.80
   4   7   2  115.31   15.41
  -4  -7  -2   89.78   10.35
   4   7   2  110.76   14.51
  -5  -6  -1  263.71   33.85
  -5  -6  -1  255.16   27.03
  -5  -6  -1  287.18   28.97
  -5  -6  -1  343.61   36.11
   5   6   1  286.92   44.56
   5   6   1  331.93   41.05
   5   6   1  277.55   35.79
  -3  -4  -8   65.76   12.99
   3   4   8   57.34    5.33
  -3  -4  -8   55.86    6.51
   3   4   8   59.41    6.00
  -3  -4  -8   64.41    6.58
  -3  -4  -8   40.58    7.48
  -3  -4  -8   62.63   10.02
  -5  -4   2  157.78   20.03
   5   4  -2  115.44   17.26
   5   4  -2  121.65   20.44
   5   4  -2  116.15   16.24
  -5  -4   2  117.63   11.48
  -5  -4   2  133.34   20.06
  -4   4  -5  326.19   24.78
   4  -4   5  268.93   34.83
   4  -4   5  225.05   21.27
  -4   4  -5  239.08   18.70
  -4   4  -5  251.58   18.86
  -4   4  -5  258.64   25.17
   0  -2  -8  550.78   51.13
   0  -2  -8  603.94   61.93
   0  -2  -8  589.35   48.58
   0   2   8  540.86   36.48
   0   2   8  596.00   51.05
   0  -2  -8  602.33   84.04
   0  -2  -8  595.22   53.09
   3  -4  -4  749.16   89.33
   3  -4  -4  698.44   85.29
   3  -4  -4  734.31   52.43
   3  -4  -4  708.44   81.77
   3  -4  -4  712.44   59.18
  -3   4   4  661.56   69.94
  -3   4   4  716.62   77.61
  -3   4   4  754.87   43.80
  -3   4   4  721.59   82.62
   5   5  -1   48.85   11.63
   5   5  -1   18.12    8.41
   5   5  -1   21.25    6.96
  -5  -5   1   19.53    7.62
  -5  -5   1   30.93   10.39
   1  -3  -7   47.18   11.07
   1  -3  -7   75.23    8.64
  -1   3   7   44.98   10.77
  -1   3   7   43.18    6.40
  -1   3   7   59.75    5.08
   1  -3  -7   43.39   10.72
   1  -3  -7   46.44    4.47
   1  -3  -7   60.97    6.55
   1  -2   8    5.10    4.09
  -1   2  -8    0.23    4.24
  -1   2  -8   -3.08    2.87
   1  -2   8    3.02    3.56
  -1   2  -8   -1.70   16.44
  -1   2  -8   10.59    3.63
  -1   2  -8   -0.43    4.13
   1  -2   8   -7.97    5.97
  -4  -7  -3  127.42   17.36
   4   7   3  100.58   15.33
   4   7   3  108.03   12.85
  -4  -7  -3  106.79   13.89
   4   7   3  102.02   18.12
  -4  -7  -3   86.06   12.05
  -4  -7  -3  122.71   18.45
  -1  -5  -7    3.48    6.83
  -1  -5  -7    3.78    4.65
  -1  -5  -7   -0.12    4.28
  -1  -5  -7    0.35    6.76
  -4   4   2  107.38   13.04
  -4   4   2  146.11   18.56
  -4   4   2  112.76   14.62
  -4   4   2   81.57   10.22
   4  -4  -2   98.23   12.02
   4  -4  -2   86.56   10.90
   4  -4  -2  117.15   14.62
   4  -4  -2   86.53   10.27
  -3  -5   4   57.53    5.31
  -3  -5   4   53.54   10.20
   3   5  -4   38.81   10.03
   3   5  -4   53.48   10.45
  -3  -5   4   46.01    8.18
  -3  -5   4   60.16   11.97
   3   5  -4   78.05    9.38
  -5  -2   3   78.85    9.06
  -5  -2   3   68.17   12.79
  -5  -2   3   61.91   12.68
  -5  -2   3   60.65   14.37
   5   2  -3   57.69   11.16
   5   2  -3   59.00   10.04
   5   2  -3   65.87    9.89
  -2  -4  -8   27.25    8.87
  -2  -4  -8   54.70    9.91
  -2  -4  -8   32.07    7.38
  -2  -4  -8   21.66    6.49
   5   0  -3    5.74    6.21
   5   0  -3    9.10    5.94
  -5   0   3   -1.65    5.90
  -5   0   3   -4.33    4.25
   5   0  -3    9.29    4.96
   4  -2  -4  365.42   31.33
   4  -2  -4  332.36   30.60
   4  -2  -4  324.12   59.55
  -4   2   4  350.04   30.81
  -4   2   4  391.71   37.03
  -4   2   4  350.43   30.49
  -4   2   4  308.53   22.94
   4  -2  -4  323.10   23.75
   4  -2  -4  333.58   31.03
   5  -1   7   38.04    8.55
   5  -1   7   52.11    8.86
   5  -1   7   24.29    5.09
  -5   1  -7   32.24    8.00
   5  -1   7   24.72    5.33
  -5   1  -7   28.34    6.03
  -5   1  -7   26.76    6.65
  -5   1  -7   30.85    6.24
  -1  -6  -6   56.71   10.69
  -1  -6  -6   35.06    5.66
   1   6   6   31.52    3.90
  -1  -6  -6   38.53    8.99
  -1  -6  -6   39.46    6.81
   1   6   6   30.25    3.46
  -1  -6  -6   28.79    3.41
  -2  -7   2    0.00    3.96
  -2  -7   2   -8.55    3.96
  -2  -7   2   -4.80    5.06
   2   7  -2    3.36    3.34
   2   7  -2    3.39    5.42
   2   7  -2   -4.01    3.81
   2   7  -2    1.72    3.75
   5  -2  -2  758.65   82.52
  -5   2   2  707.43   52.78
  -5   2   2  816.60   82.22
  -5   2   2  770.78   61.29
   5  -2  -2  801.99   46.56
   5  -2  -2  726.41   80.82
   5  -2  -2  777.35   69.05
   5  -2  -2  789.67  110.65
  -3  -7   1  317.62   47.28
  -3  -7   1  271.83   40.01
  -3  -7   1  336.44   27.29
   3   7  -1  369.74   44.13
   3   7  -1  323.92   29.56
   3   7  -1  366.19   40.69
  -6   1  -5   16.40    8.35
  -6   1  -5   14.66    5.71
   6  -1   5   27.01    6.96
   6  -1   5   18.00    2.26
   6  -1   5   20.67    5.75
  -6   1  -5   12.37    5.18
  -6   1  -5   21.47    5.83
  -4  -6  -6   41.50    7.31
   4   6   6   40.24    7.47
   4   6   6   33.04    9.40
   4   6   6   33.69    6.32
  -4  -6  -6   36.42    8.34
  -4  -6  -6   41.51    7.36
  -4  -7  -1   35.67    8.68
  -4  -7  -1   48.17    6.31
   4   7   1   39.89    9.96
   4   7   1   31.78    5.10
   4   7   1   42.56    9.45
  -4  -7  -1   44.02    9.09
  -4  -7  -1   47.31   10.20
   4  -5   1   11.01    6.35
   4  -5   1    2.88    4.66
  -4   5  -1    5.74    7.33
  -4   5  -1    7.04    6.70
  -4   5  -1    1.94    4.64
   4  -5   1    3.00    4.51
   4  -5   1    5.64    2.27
   6   0   6   23.03    8.62
  -6   0  -6    5.93    3.95
  -6   0  -6   26.97    6.09
  -6   0  -6   14.25    6.69
   6   0   6   26.57    7.59
   6   0   6   15.98    5.35
  -6   0  -6   20.26    8.39
   4  -5   2    3.46    5.27
   4  -5   2    5.51    2.43
  -4   5  -2   -0.17    5.53
  -4   5  -2    3.91    5.30
  -4   5  -2    2.93    1.87
   4  -5   2   -6.98    4.25
   4  -5   2    4.25    5.38
  -4   5  -2   14.14    5.94
   6   5   3   29.99   10.69
   6   5   3   13.66    7.80
  -6  -5  -3   29.53    7.93
  -6  -5  -3   31.09    8.07
   6   5   3   43.57    8.20
  -3   0   6   96.47   13.55
  -3   0   6  108.08   12.16
  -3   0   6   91.81   14.80
   3   0  -6  102.21    8.75
   3   0  -6   72.86   12.71
  -3   0   6   58.85   11.46
   3   0  -6   89.42   13.87
  -1   7   2   27.46    9.61
   1  -7  -2   34.71   10.06
  -1   7   2   24.82    4.72
  -1   7   2   14.76    6.15
   1  -7  -2   30.90    8.97
   3  -3  -5 1613.45  130.97
   3  -3  -5 1720.77  181.93
   3  -3  -5 1580.91  133.72
   3  -3  -5 1653.41  201.80
  -3   3   5 1619.42  206.47
  -3   3   5 1527.00  167.58
  -3   3   5 1509.14  141.92
   4  -1   8  282.25   32.83
  -4   1  -8  338.33   28.80
   4  -1   8  259.01   22.37
  -4   1  -8  254.95   19.94
  -4   1  -8  296.86   41.31
  -4   1  -8  268.84   35.22
   4  -1   8  251.47   36.98
  -3   6  -1  193.36   18.90
  -3   6  -1  228.14   26.16
  -3   6  -1  195.57   24.12
   3  -6   1  182.26   26.39
  -3   6  -1  247.15   25.36
   3  -6   1  179.93   19.26
  -3  -1   6  119.74   16.18
  -3  -1   6  125.67   18.22
   3   1  -6  119.53   10.01
   3   1  -6  130.09   18.80
  -3  -1   6  126.31   14.59
  -3  -1   6  161.31   18.69
  -5   3  -5   41.44    8.43
   5  -3   5   62.20    8.63
   5  -3   5   58.88   10.58
   5  -3   5   44.38    9.84
  -5   3  -5   44.36    9.51
   5  -3   5   44.01    7.60
  -5   3  -5   56.41   12.49
  -5   3  -5   67.14   11.12
  -3  -6   3   -0.80    4.48
   3   6  -3   -1.11    3.54
  -3  -6   3   -3.50    4.58
   3   6  -3    7.09    5.28
   3   6  -3   -0.86    3.88
  -3  -6   3    2.08    2.01
  -1   7  -2   84.77   19.44
  -1   7  -2   93.51   12.47
  -1   7  -2   74.75   15.62
   1  -7   2   84.17   16.16
   1  -7   2   96.35   15.44
  -6  -1   1   28.21    7.81
  -6  -1   1   19.57    5.00
  -6  -1   1   27.39    6.63
   6   1  -1   18.15    6.34
   6   1  -1   25.47    7.84
   6   1  -1   21.86    6.88
  -2   0   7   55.24    9.50
  -2   0   7   69.52   11.85
  -2   0   7   55.79   15.70
  -2   0   7   56.30   12.66
   2   0  -7   82.96   13.53
   2   0  -7   68.78    6.93
   2   0  -7   54.66   12.50
  -2  -5   5   18.68    6.77
   2   5  -5   18.41    6.78
   2   5  -5   15.18    5.78
  -2  -5   5   31.33    6.81
  -2  -5   5   23.88    4.31
  -2  -5   5   42.75   10.15
   3  -2   8   -2.00    5.29
   3  -2   8    1.03    4.06
  -3   2  -8   -5.92    3.15
  -3   2  -8   -1.68    4.00
  -3   2  -8    4.77    4.90
  -3   2  -8   -4.53    3.50
  -3   2  -8    4.80    6.38
   3  -2   8   -8.04    3.81
   6  -1   0  177.77   17.62
  -6   1   0  163.99   23.56
  -6   1   0  181.16   19.09
  -6   1   0  153.41   20.16
   6  -1   0  163.51   22.89
   6  -1   0  169.14   15.97
   6  -1   0  173.33   20.02
  -6  -2   1  298.03   27.27
   6   2  -1  286.37   33.94
  -6  -2   1  261.93   22.63
  -6  -2   1  310.60   42.84
  -6  -2   1  316.97   45.66
   6   2  -1  323.08   32.01
   6   2  -1  292.23   45.59
   2  -6  -3    0.47    3.53
   2  -6  -3   13.66    8.79
   2  -6  -3    2.98    1.49
  -2   6   3   -2.02    2.87
  -2   6   3    0.06    3.06
  -2   6   3   -2.88    3.59
  -2   6   3    3.22    3.88
   2  -6  -3    0.35    3.15
   2  -6  -3    2.48    2.38
  -1  -3   7   52.47    7.18
   1   3  -7   55.31   10.51
  -1  -3   7   57.29   11.34
   1   3  -7   59.69    5.09
   1   3  -7   51.21   10.65
  -1  -3   7   63.31   13.70
  -5   3   1   59.98   11.11
   5  -3  -1   37.75    8.47
  -5   3   1   59.86   10.12
   5  -3  -1   41.67    7.70
  -5   3   1   49.53   10.66
   5  -3  -1   41.13    5.74
   5  -3  -1   46.86    6.60
   5  -3  -1   46.35    9.55
   4   5  -3  187.31   24.17
  -4  -5   3  203.06   14.29
   4   5  -3  192.33   18.34
   4   5  -3  187.96   22.29
  -4  -5   3  242.43   29.42
  -4  -5   3  183.47   15.68
  -6  -5  -4   -0.34    3.56
  -6  -5  -4    0.06    3.67
   6   5   4    1.60    4.84
   6   5   4   16.69    5.34
   6   5   4   -0.56    4.95
  -6  -5  -4    1.39    6.37
   2  -6   4   71.77   13.10
  -2   6  -4   79.08   16.55
  -2   6  -4  101.46    9.24
   2  -6   4   92.11   13.65
   2  -6   4   87.92   12.71
  -2   6  -4   96.15   12.76
  -2   6  -4   94.05   12.25
  -6  -5  -2   41.46    8.24
   6   5   2   55.63   10.69
   6   5   2   29.86   11.39
  -6  -5  -2   51.12    9.99
  -6  -5  -2   50.57   11.53
   6   5   2   59.04   10.48
  -2  -7  -5  172.65   24.64
   2   7   5  194.78   26.00
  -2  -7  -5  198.15   17.55
  -2  -7  -5  227.07   36.72
  -2  -7  -5  208.74   24.07
  -2  -7  -5  185.02   30.03
   2   7   5  177.77   22.74
  -1   5  -6   85.02   21.67
   1  -5   6   76.51    9.62
   1  -5   6   65.73    9.18
  -1   5  -6   55.08    8.63
  -1   5  -6   80.17    7.42
  -1   5  -6   55.67    8.06
   1  -5   6   60.08   12.29
   4   7   4   -0.84    3.02
   4   7   4   -2.33    3.64
   4   7   4   -6.63    3.83
  -4  -7  -4    1.50    3.53
  -4  -7  -4   -0.63    3.35
  -4  -7  -4   -3.33    4.37
  -4  -7  -4    1.69    3.87
   5   6   5  192.75   18.91
  -5  -6  -5  182.15   18.01
  -5  -6  -5  169.61   17.13
   5   6   5  120.46   11.95
   5   6   5  151.96   17.33
  -5  -6  -5  155.10   18.20
  -3   6   0   -7.11    4.83
  -3   6   0   -1.19    4.80
  -3   6   0   -0.94    4.61
  -3   6   0    3.04    3.35
   3  -6   0    0.64    4.98
   3  -6   0   -2.03    5.31
   3  -5   5  192.79   20.79
  -3   5  -5  162.01   19.69
  -3   5  -5  200.47   20.25
  -3   5  -5  191.82   24.33
  -3   5  -5  202.15   22.98
   3  -5   5  249.92   18.81
  -3   5  -5  196.13   16.26
   3  -5   5  225.91   29.40
  -3   5   3   -0.75    3.24
   3  -5  -3   10.65    8.10
  -3   5   3   -3.30    4.97
   3  -5  -3    2.36    4.64
  -3   5   3   -1.37    4.74
   3  -5  -3   -1.30    2.80
  -3   5   3    2.91    2.93
   3  -5  -3    3.13    2.95
  -6   2  -3  905.79   85.15
   6  -2   3  863.36   77.34
  -6   2  -3  895.23   78.96
   6  -2   3  807.58  102.15
   6  -2   3  802.24   50.06
  -6   2  -3  854.89   80.42
   6  -2   3  813.64   77.44
  -6   2  -3  836.17   74.30
  -4  -4  -8   52.32    6.73
  -4  -4  -8   63.96    8.99
  -4  -4  -8   47.99   11.57
  -4  -4  -8   54.11   11.01
   4   4   8   54.32    6.37
   4   4   8   76.79    6.53
   4   4   8   49.32    8.88
  -3  -4   5  125.68   13.91
  -3  -4   5  141.69   32.75
  -3  -4   5  133.98   12.40
   3   4  -5  142.25   30.51
   3   4  -5  143.92   19.75
  -3   6  -2  265.58   28.49
  -3   6  -2  282.00   26.24
   3  -6   2  199.91   23.40
   3  -6   2  257.60   24.12
   3  -6   2  223.35   35.97
  -3   6  -2  241.96   29.40
  -3   6  -2  295.51   35.52
  -6   2  -2  119.35   13.10
   6  -2   2   64.54   14.46
   6  -2   2   69.57   12.70
   6  -2   2  101.28   14.65
   6  -2   2   98.85   11.24
   6  -2   2  108.13   13.98
  -6   2  -2  114.56   14.35
  -6   2  -2  104.74   11.64
  -3  -7  -5  208.14   23.41
   3   7   5  184.08   22.57
   3   7   5  172.13   19.94
  -3  -7  -5  268.46   23.14
  -3  -7  -5  223.64   28.55
  -3  -7  -5  254.56   28.84
   3   7   5  208.82   19.74
   2   1  -7  209.68   39.25
   2   1  -7  220.39   21.62
  -2  -1   7  191.67   21.91
  -2  -1   7  211.63   32.65
  -2  -1   7  211.21   40.30
  -2  -1   7  229.27   36.15
   5   2   8   24.18    8.72
  -5  -2  -8   15.11    5.45
  -5  -2  -8   24.03    6.10
  -5  -2  -8   11.28    4.94
   5   2   8   14.88    5.60
  -1   4  -7  145.51   13.66
   1  -4   7  139.06   17.94
  -1   4  -7  116.29   12.52
   1  -4   7  126.86   18.79
  -1   4  -7  119.74   10.07
  -1   4  -7  119.98   22.34
   4  -5   0  146.33   16.24
   4  -5   0  131.82   12.09
   4  -5   0  134.85   13.35
  -4   5   0  144.13   15.98
  -4   5   0  181.07   16.42
  -4   5   0  154.98   18.66
   4  -5   0  129.99   14.36
  -4   5   0  149.58   15.28
  -6  -4   0  116.68   14.56
   6   4   0  147.22   17.28
  -6  -4   0  118.87   14.64
  -6  -4   0  121.32   21.32
   6   4   0  126.82   21.26
   6   4   0  111.95   16.73
  -6  -4   0  110.03   13.52
  -2  -6   4   23.80    4.69
   2   6  -4   25.98    8.62
   2   6  -4   27.68    7.00
  -2  -6   4   18.95    5.92
  -2  -6   4   17.46    8.04
  -2  -6   4   24.84    4.49
   2   6  -4   25.24    6.91
   0  -5   6  312.46   44.56
   0   5  -6  304.21   25.18
   0   5  -6  250.87   23.69
   0   5  -6  263.15   30.36
   0  -5   6  327.66   45.66
   0  -5   6  305.94   22.87
   5   1   8  233.42   23.39
  -5  -1  -8  212.18   19.81
   5   1   8  233.49   29.10
  -5  -1  -8  191.23   22.83
  -5  -1  -8  225.41   23.45
  -5  -1  -8  222.34   29.45
   5   1   8  249.46   35.82
  -2   1   7  341.44   37.99
  -2   1   7  314.20   31.23
  -2   1   7  301.44   27.39
   2  -1  -7  290.88   25.62
   2  -1  -7  304.83   27.42
   2  -1  -7  315.80   21.82
  -4   5  -3  187.49   17.41
  -4   5  -3  218.56   23.72
  -4   5  -3  158.48   25.13
  -4   5  -3  174.13   15.12
   4  -5   3  142.69   15.67
   4  -5   3  176.61   13.13
   4  -5   3  158.31   16.49
  -3   1   6  451.37   51.11
  -3   1   6  346.34   70.73
  -3   1   6  437.97   28.95
   3  -1  -6  472.58   41.17
   3  -1  -6  429.37   33.23
   3  -1  -6  441.99   49.96
  -6  -4  -6   -1.85    1.85
  -6  -4  -6    8.06    5.45
  -6  -4  -6   -0.52    4.99
   6   4   6    8.82    4.76
   6   4   6    7.84    3.40
   6   4   6   -7.61    5.16
  -6  -4  -6    0.62    3.04
   0  -7   3   19.10    6.64
   0   7  -3   15.18    4.38
   0  -7   3    4.61    4.05
   0   7  -3   15.43    7.30
   0   7  -3   18.82    7.50
   0  -7   3   14.47    5.68
   0   7  -3   10.46    4.82
   5   3  -3  426.01   34.85
  -5  -3   3  334.45   35.61
   5   3  -3  400.38   42.53
   5   3  -3  336.43   43.12
  -5  -3   3  376.24   32.14
  -5  -3   3  302.38   29.75
  -5  -3   3  377.38   27.66
   6   0  -1   20.53    8.32
  -6   0   1    1.85    7.31
  -6   0   1   43.49   10.48
  -6   0   1   18.15    5.49
   6   0  -1   21.53    7.81
   5  -1  -3  639.05   48.51
  -5   1   3  669.74   48.16
  -5   1   3  669.84   87.93
  -5   1   3  698.93   70.76
   5  -1  -3  772.00   79.50
   5  -1  -3  733.96   71.70
   5  -1  -3  685.71   95.22
   5   6   0   76.25   11.59
   5   6   0   54.32    9.83
  -5  -6   0   79.99   14.10
  -5  -6   0   76.72    8.59
   5   6   0   69.79   14.74
   2   1   9  160.28   20.68
  -2  -1  -9  114.82   13.67
  -2  -1  -9  148.44   23.39
  -2  -1  -9  145.55   23.70
  -2  -1  -9  163.74   18.34
   2   1   9  134.16   20.01
   0  -7  -4   52.37   10.52
   0  -7  -4   46.22    7.82
   0  -7  -4   40.24    5.55
   0   7   4   67.87   10.82
   0   7   4   59.63   10.35
   0  -7  -4   51.44    9.96
   0  -7  -4   36.99    5.87
   0   7   4   56.50    8.46
  -4  -6   2   87.05   15.62
  -4  -6   2   95.76   10.83
   4   6  -2   82.60   13.15
   4   6  -2   96.00   13.17
   4   6  -2   67.63   14.43
  -4  -6   2   93.86    8.07
   0   2  -8  181.70   21.26
   0  -2   8  167.79   22.09
   0   2  -8  178.68   12.16
   0   2  -8  152.36   15.49
   0   2  -8  182.25   25.21
   0  -2   8  165.54   19.04
   0  -2   8  164.57   17.48
   0  -2   8  148.72   18.48
   1   7  -3  364.06   22.68
   1   7  -3  307.64   54.25
  -1  -7   3  366.63   60.23
  -1  -7   3  295.15   37.58
   1   7  -3  346.72   30.49
  -1  -7   3  367.87   58.04
  -1  -7   3  345.93   31.07
   1   7  -3  362.20   44.68
  -2   4  -7    4.18    3.38
  -2   4  -7    8.49    6.61
  -2   4  -7    5.53    3.37
  -2   4  -7   -3.82    3.82
  -2   4  -7    5.84    5.16
   2  -4   7    0.83    4.75
   2  -4   7    1.54    4.41
   3   1   9  200.54   23.77
  -3  -1  -9  178.12   27.36
  -3  -1  -9  156.68   20.06
  -3  -1  -9  158.20   18.56
  -3  -1  -9  142.18   18.82
   3   1   9  176.64   24.66
   3   1   9  166.48   19.82
   4   1  -5   99.93   13.17
   4   1  -5   77.63   12.23
  -4  -1   5   79.36   13.29
  -4  -1   5   88.98   13.90
  -4  -1   5  106.05   13.79
   4   1  -5   98.63   14.79
  -4  -1   5   70.64   14.51
  -1  -4  -8  387.03   52.63
  -1  -4  -8  394.18   40.40
  -1  -4  -8  353.14   30.52
  -1  -4  -8  443.41   56.27
   4   4  -4  448.60   60.10
   4   4  -4  500.11   80.29
  -4  -4   4  515.43   64.03
  -4  -4   4  525.37   38.85
   4   4  -4  586.20   49.32
  -3  -2   6  671.29   47.28
  -3  -2   6  567.68   54.10
  -3  -2   6  645.15   56.54
   3   2  -6  599.27   51.81
   3   2  -6  676.33   71.92
  -3  -2   6  728.51   72.14
  -5   4  -2   -7.89    6.90
  -5   4  -2   -0.76    3.74
  -5   4  -2   -1.79    5.07
   5  -4   2    1.38    4.38
   5  -4   2    2.16    3.10
   5  -4   2    7.96    4.90
   5  -4   2    0.57    5.47
  -5   4  -2    5.30    6.34
  -6   2  -4  395.30   40.18
   6  -2   4  340.85   44.51
   6  -2   4  352.09   48.94
   6  -2   4  337.35   46.35
  -6   2  -4  410.44   41.97
  -6   2  -4  414.48   40.35
  -6   2  -4  385.35   35.16
  -4  -7   0  398.80   57.68
  -4  -7   0  395.84   48.06
  -4  -7   0  451.46   40.54
   4   7   0  475.76   64.46
   4   7   0  445.23   41.88
   4   7   0  477.59   56.80
   0  -3  -8   59.19   11.24
   0  -3  -8   67.24   10.22
   0  -3  -8   80.03   13.75
   0  -3  -8   72.53   13.38
  -4   0   5  313.53   45.36
  -4   0   5  293.06   27.37
   4   0  -5  294.89   25.12
   4   0  -5  373.52   39.26
   4   0  -5  302.57   28.26
   4   0  -5  281.47   33.63
  -4   0   5  204.28   25.93
  -4   0   5  298.01   27.65
  -4   0   5  269.69   34.70
  -6  -3   1   39.65    7.99
   6   3  -1   65.50   13.34
   6   3  -1   30.75    8.24
  -6  -3   1   62.30   11.09
  -6  -3   1   33.75    6.87
  -6  -3   1   35.40    6.47
   6   3  -1   38.78    8.27
   6   2   7    9.29    6.72
   6   2   7   -0.39    3.65
  -6  -2  -7    8.16    7.20
  -6  -2  -7    8.60    5.15
   6   2   7   -0.97    5.31
  -6   2  -1  520.70   53.05
   6  -2   1  559.86   54.07
  -6   2  -1  546.12   52.24
   6  -2   1  644.42   61.06
  -6   2  -1  608.34   42.49
   6  -2   1  578.81   83.30
   6  -2   1  658.96   44.01
   6  -2   1  563.07   47.10
  -3  -2  -9  347.80   46.59
  -3  -2  -9  300.81   33.94
   3   2   9  325.37   38.58
  -3  -2  -9  356.45   35.36
   3   2   9  341.15   42.16
  -3  -2  -9  314.52   30.46
   5   3   8  600.23   48.08
  -5  -3  -8  567.89   81.81
  -5  -3  -8  538.89   51.50
  -5  -3  -8  588.47   73.83
  -5  -3  -8  567.86   45.21
   5   3   8  559.75   46.67
   5   3   8  541.37   81.29
  -2  -4   6  267.41   40.08
  -2  -4   6  245.59   38.33
  -2  -4   6  216.84   22.70
   2   4  -6  225.27   26.61
   2   4  -6  272.62   40.72
   1  -5  -6   16.91    4.56
   1  -5  -6   24.92    6.95
   1  -5  -6   25.63    8.22
   1  -5  -6   25.45    3.96
  -1   5   6   24.84    6.31
  -1   5   6   17.02    3.40
  -1   5   6   23.88    4.64
   1  -5  -6   13.99    2.85
   1  -5  -6   20.35    4.66
  -6  -5  -5    9.05    4.91
   6   5   5    0.87    7.19
  -6  -5  -5  -14.02    5.21
   6   5   5   -6.28    5.76
   6   5   5   -1.21    4.12
  -6  -5  -5    0.22    3.91
   0  -4   7   17.89    5.38
   0   4  -7   28.48    7.06
   0   4  -7   12.73    3.53
   0   4  -7   19.89    6.03
   0  -4   7   16.76    5.70
  -2   0  -9  106.30   16.44
   2   0   9  154.54   10.07
   2   0   9  132.66   18.07
  -2   0  -9  180.32   12.53
  -2   0  -9  116.25   14.90
  -2   0  -9  122.36   17.65
  -2   0  -9  175.35   15.46
   2   0   9  141.69   21.37
  -2  -2  -9    6.71    5.67
   2   2   9   25.16    3.74
   2   2   9   23.65    4.35
  -2  -2  -9   21.16    3.68
  -2  -2  -9   35.41    7.58
  -2  -2  -9   23.62    4.10
  -2   5  -6   26.11    7.59
   2  -5   6   56.45    9.59
   2  -5   6   18.29    5.80
  -2   5  -6   20.82    8.19
  -2   5  -6   36.75    6.06
  -2   5  -6   36.90    8.83
   2  -5   6   23.31    8.06
  -2   5  -6   37.80    5.78
  -5   4  -1    4.10    4.57
   5  -4   1    2.74    3.83
   5  -4   1    3.38    5.32
   5  -4   1   -6.81    4.36
  -5   4  -1    8.35    4.91
  -5   4  -1   13.89    6.77
   5  -4   1    5.32    4.38
   0  -6   5   13.88    5.61
   0  -6   5   28.71    8.74
   0  -6   5   15.35    7.69
   0   6  -5   15.02    7.67
   0   6  -5   28.21    5.66
   0   6  -5   16.21    6.37
   6   5   1  252.27   28.29
  -6  -5  -1  209.03   26.57
  -6  -5  -1  269.42   30.09
  -6  -5  -1  206.26   24.13
   6   5   1  253.51   28.77
   6   5   1  223.77   28.31
   3  -6  -1  138.04   13.27
   3  -6  -1  141.49   11.08
   3  -6  -1  191.20   25.24
  -3   6   1  177.81   15.84
  -3   6   1  161.25   16.26
  -3   6   1  160.72   13.41
  -3   6   1  154.99   20.23
   3  -6  -1  156.02   17.87
  -1  -7  -5  218.12   26.29
  -1  -7  -5  224.26   41.19
  -1  -7  -5  236.98   30.99
  -1  -7  -5  194.73   23.48
  -1  -7  -5  193.72   15.33
   1   7   5  208.17   17.59
   1   7   5  188.82   13.34
   5  -4   3 1276.96   99.04
   5  -4   3 1319.91  108.43
  -5   4  -3 1357.55   94.84
   5  -4   3 1446.81  121.65
   5  -4   3 1427.71  123.15
  -5   4  -3 1435.84  125.03
  -5   4  -3 1284.87  111.93
  -5   4  -3 1356.19  102.68
  -6  -1  -7  210.15   19.37
  -6  -1  -7  255.52   20.58
  -6  -1  -7  208.31   21.06
  -6  -1  -7  230.07   24.17
   6   1   7  208.51   28.02
   6   1   7  249.34   22.50
   6   1   7  236.60   29.89
   5   0   8 1694.83  150.21
  -5   0  -8 1690.66  175.34
   5   0   8 1654.72  147.17
  -5   0  -8 1758.18  171.75
   5   0   8 1554.13  132.38
   5   0   8 1587.27  177.26
  -5   0  -8 1591.73   96.56
  -5   0  -8 1624.50  140.90
   3  -6   3  171.21   18.22
   3  -6   3  168.06   17.33
   3  -6   3  142.46   21.87
  -3   6  -3  132.91   22.93
  -3   6  -3  140.66   12.89
  -3   6  -3   90.42   17.43
  -3   6  -3  123.87   16.69
  -3   6  -3  114.00    8.99
  -3   0  -9  153.01   27.22
  -3   0  -9  165.00   21.97
  -3   0  -9  150.59   21.88
  -3   0  -9  117.68   14.49
   3   0   9  172.93   24.37
   3   0   9  184.86   19.93
  -3   0  -9  136.41   17.34
   4  -3   7  183.54   23.56
  -4   3  -7  184.30   19.25
  -4   3  -7  185.75   17.82
  -4   3  -7  173.71   24.09
  -4   3  -7  183.34   21.28
   2   8   1  584.96  119.57
   2   8   1  615.59   70.08
   2   8   1  569.93   75.11
  -2  -8  -1  521.13   46.22
  -2  -8  -1  542.16   87.20
  -2  -8  -1  486.23  108.52
   1  -6   5  140.25   13.77
   1  -6   5  111.72   17.97
  -1   6  -5  141.46   25.12
  -1   6  -5  102.78   16.25
   1  -6   5  127.43   21.25
  -1   6  -5  114.53   14.75
  -1   6  -5  122.24   13.42
   1   0  -8   20.67    4.22
   1   0  -8   27.00    4.97
   1   0  -8   31.15    8.13
  -1   0   8   30.63    8.24
  -1   0   8   27.46    6.13
  -1   0   8   38.32    6.28
  -1   0   8   34.25    9.79
  -1  -8  -1   46.21    8.24
   1   8   1   42.35   10.74
   1   8   1   61.42   12.56
  -1  -8  -1   40.61   10.36
  -1  -8  -1   48.97    7.39
  -1  -8  -1   38.27    7.18
  -2  -8  -2   45.50   10.94
  -2  -8  -2   26.23    6.06
  -2  -8  -2   13.05    6.76
   2   8   2   30.83    8.95
  -2  -8  -2   39.56    8.18
   2   8   2   39.48    5.81
   2   8   2   31.27    8.87
  -2  -8  -2   35.58    6.25
   2   2  -7   83.70   14.08
   2   2  -7   95.14   12.58
  -2  -2   7  103.80   20.12
  -2  -2   7   80.43    9.12
  -2  -2   7  102.02   14.62
  -2  -2   7  106.11   22.22
  -4  -2   5  261.05   32.63
   4   2  -5  331.46   42.03
   4   2  -5  265.74   42.25
  -4  -2   5  283.98   31.39
  -4  -2   5  312.71   33.23
  -4  -2   5  267.10   26.78
   4   2  -5  291.75   31.81
   1  -7  -3    4.57    1.25
  -1   7   3    9.48    4.50
  -1   7   3    8.35    5.62
  -1   7   3    5.10    6.15
   1  -7  -3    3.38    4.37
   1  -7  -3    1.35    4.77
   1  -7  -3    7.29    1.36
   1  -7  -3    3.87    4.77
   5   5   7  221.27   16.98
  -5  -5  -7  202.47   28.62
  -5  -5  -7  197.27   20.54
   5   5   7  242.74   29.63
   5   5   7  230.51   30.97
  -5  -5  -7  200.30   16.74
   2  -5  -5  184.46   18.21
  -2   5   5  189.95   19.48
   2  -5  -5  134.67   29.32
   2  -5  -5  187.46   21.49
   2  -5  -5  206.03   33.11
  -2   5   5  210.10   13.93
  -2   5   5  163.30   19.92
  -2   5   5  206.05   32.10
   6   3   7    6.92    5.80
  -6  -3  -7   -4.38    3.39
   6   3   7   -0.83    3.33
   6   3   7   -1.75    3.89
  -6  -3  -7    1.77    3.57
  -6  -3  -7    3.58    2.57
  -6  -3  -7    3.13    5.25
   6  -1   6  625.96   58.34
   6  -1   6  592.71   85.92
   6  -1   6  645.33  111.70
  -6   1  -6  653.27   66.55
  -6   1  -6  580.62   74.15
   6  -1   6  559.63   41.78
  -6   1  -6  512.27   57.93
  -6   1  -6  628.15   44.54
  -3  -6  -7  112.12   18.63
  -3  -6  -7  112.00   14.18
  -3  -6  -7   90.49   14.64
  -3  -6  -7   87.61   17.02
  -3  -6  -7   90.81   17.89
   3   6   7  117.67    6.96
   3   6   7  111.50   14.15
  -1   1   8   87.92   11.56
  -1   1   8   80.81   12.90
  -1   1   8   68.37   14.48
  -1   1   8   77.30   11.08
   1  -1  -8   68.26    9.46
   1  -1  -8  100.27   14.15
  -1   7  -3    6.64    2.42
   1  -7   3    6.26    5.85
   1  -7   3   10.41    5.53
   1  -7   3    9.31    5.36
  -1   7  -3    5.47    6.35
  -1   7  -3   14.41    3.52
  -1   7  -3   23.20    8.61
  -1   7  -3   12.86    5.43
   1  -6  -5  433.23   45.66
  -1   6   5  433.14   62.63
  -1   6   5  420.33   41.77
  -1   6   5  481.42   69.04
   1  -6  -5  501.52   58.93
   1  -6  -5  450.59   54.98
   1  -6  -5  432.22   51.23
   1  -6  -5  439.25   33.60
  -4  -7  -5   36.49    7.89
  -4  -7  -5   30.60    6.32
  -4  -7  -5   37.88    8.15
  -4  -7  -5   38.41    7.24
   4   7   5   35.76    6.54
   4   7   5   22.17    5.44
   7   2   3 1956.08  248.63
   7   2   3 2115.71  192.36
  -7  -2  -3 2060.23  163.42
  -7  -2  -3 2117.07  207.01
  -7  -2  -3 2124.19  227.54
  -7  -2  -3 1964.98  230.65
   7   2   3 1949.83  232.40
   4  -5  -1  284.16   32.83
   4  -5  -1  214.89   25.80
  -4   5   1  292.80   27.95
  -4   5   1  276.24   27.40
   4  -5  -1  274.26   32.47
   4  -5  -1  277.85   25.04
  -4   5   1  248.86   25.49
  -4   5   1  258.09   19.79
   2  -7   0  153.10   14.27
  -2   7   0  171.54   22.09
   2  -7   0  137.60   14.38
   2  -7   0  154.49   19.83
  -2   7   0  112.99   14.90
  -2   7   0  144.17   15.33
  -2   2   7   52.76   10.80
  -2   2   7   67.13    9.98
   2  -2  -7   77.11   12.54
   2  -2  -7   73.68   12.95
   2  -2  -7   64.54    8.41
  -2   2   7   67.70    6.49
   2  -2  -7   75.54    9.48
  -2   7  -1   94.54   12.30
  -2   7  -1   96.56   12.31
  -2   7  -1   96.70   12.20
   2  -7   1  121.60   13.83
   2  -7   1  104.17   13.17
   2  -7   1  101.59   21.94
   1   8   0   23.15    8.65
   1   8   0   11.05    5.01
  -1  -8   0   19.88    3.99
  -1  -8   0   36.93    7.13
  -1  -8   0   28.95    9.06
  -1  -8   0   29.49    8.87
   1   8   0   29.53    4.21
   1   8   0   11.76    6.31
  -1  -8  -2  525.60   39.85
  -1  -8  -2  504.70   65.07
  -1  -8  -2  411.01   64.31
   1   8   2  497.68   48.22
   1   8   2  433.51   34.94
   1   8   2  407.13   77.78
  -1  -8  -2  437.95   44.59
   1   1   9  107.16   10.35
  -1  -1  -9  112.48   11.46
   1   1   9  126.41   13.06
   1   1   9  108.14   21.26
  -1  -1  -9  111.68   13.53
  -1  -1  -9   99.02   10.57
  -1  -1  -9  144.68   22.85
   0  -5  -7   41.65    8.87
   0  -5  -7   53.76   10.72
   0  -5  -7   38.00    8.77
   0  -5  -7   45.74    8.83
  -3  -7   2   18.25    6.93
  -3  -7   2   15.51    8.09
  -3  -7   2    9.05    4.43
   3   7  -2    9.22    6.01
   3   7  -2   22.73    7.12
   3   7  -2   10.65    5.61
  -7  -2  -4   55.42    9.53
   7   2   4   62.53   16.14
  -7  -2  -4   41.56   11.00
  -7  -2  -4   70.78    8.85
   7   2   4   65.58   13.07
  -7  -2  -4   64.05   11.35
  -2  -6  -7   83.38   12.52
  -2  -6  -7  100.00   15.63
  -2  -6  -7   87.50   13.82
  -4   5  -4  125.34   12.86
  -4   5  -4  130.48   14.86
  -4   5  -4  175.53   28.33
  -4   5  -4  156.90   25.70
   4  -5   4  166.71   17.47
   4  -5   4  152.06   24.34
  -2   3  -8  101.37   14.90
  -2   3  -8   97.39   10.73
   2  -3   8  104.31   14.38
  -2   3  -8   92.81   11.96
  -2   3  -8   60.80   12.39
   2  -3   8   83.89   15.99
  -2   3  -8   90.86   10.44
   0  -6  -6  514.57   41.83
   0  -6  -6  571.20   76.71
   0  -6  -6  607.41   69.16
   0  -6  -6  583.58   84.56
   0  -6  -6  591.97   58.72
   0   6   6  539.33   58.83
   0   6   6  605.89   51.27
  -4   1   5  703.58   50.20
  -4   1   5  667.73   69.32
  -4   1   5  617.53   52.37
   4  -1  -5  636.51   79.37
  -4   1   5  656.48  100.47
   4  -1  -5  616.86   82.65
   4  -1  -5  673.97   71.02
   4  -1  -5  689.89   50.76
  -2   4   6  246.53   30.52
   2  -4  -6  230.80   31.82
   2  -4  -6  216.74   22.36
   2  -4  -6  225.64   19.04
   2  -4  -6  204.00   24.71
  -2   4   6  202.68   15.52
   1  -3   8    9.27    7.81
   1  -3   8    0.17    5.37
  -1   3  -8   -3.17    3.75
  -1   3  -8   -1.61    2.41
  -1   3  -8   -0.22    5.17
  -1   3  -8    3.74    5.18
   1   5  -6  111.20   13.73
   1   5  -6  142.51   20.95
  -1  -5   6  150.18   25.25
  -1  -5   6  159.70   21.01
  -1  -5   6  167.55   28.76
  -1  -5   6  171.04   14.49
   1   5  -6  139.16   13.00
  -7  -1  -3    8.59    4.92
   7   1   3   -6.36    4.47
  -7  -1  -3  -12.24    5.10
  -7  -1  -3   -2.12    4.67
   7   1   3    5.20    7.95
   7   1   3   -1.79    5.31
  -7  -1  -3   -3.29    5.77
  -4   4  -6  305.36   24.40
   4  -4   6  289.88   27.83
   4  -4   6  307.88   57.55
  -4   4  -6  344.38   39.68
  -4   4  -6  278.35   28.15
  -4   4  -6  286.66   26.74
  -3  -5  -8   33.84    8.21
  -3  -5  -8   28.28    7.66
  -3  -5  -8   33.14    6.15
  -3  -5  -8   21.26    2.21
   3   5   8   19.18    1.99
  -3  -5  -8   27.48    4.67
  -5   2  -7 1057.56   80.66
  -5   2  -7 1127.31   64.84
   5  -2   7 1137.74  124.57
   5  -2   7 1100.77   95.65
   5  -2   7 1172.26   87.16
   5  -2   7 1116.24  125.08
  -5   2  -7 1161.08  112.46
  -5   2  -7 1072.60   74.59
  -1  -1   8   53.99   10.65
  -1  -1   8   46.40   11.69
   1   1  -8   66.85   10.96
   1   1  -8   54.51    8.77
   1   1  -8   51.46    4.98
   1   1  -8   38.66    7.83
  -1  -1   8   59.49    7.66
  -1  -1   8   59.42   11.45
   1  -4  -7   57.79   11.26
   1  -4  -7   49.50    8.61
   1  -4  -7   28.93   10.98
  -1   4   7   28.80    6.95
   1   0   9    0.56    2.93
  -1   0  -9   -3.78    7.56
   1   0   9    4.91    4.92
   1   0   9    1.99    2.28
  -1   0  -9   -5.16    3.83
  -1   0  -9   -1.72    2.22
  -1   0  -9    0.34    2.94
  -1   0  -9   -1.15    2.34
   3  -2  -6  388.15   44.58
   3  -2  -6  391.74   48.04
   3  -2  -6  480.92   67.68
   3  -2  -6  450.23   40.63
  -3   2   6  474.36   47.48
  -3   2   6  399.39   49.31
  -3   2   6  415.31   51.60
   2   8   0  156.10   16.59
   2   8   0  152.49   18.00
   2   8   0  148.10   24.21
  -2  -8   0  134.53   18.59
  -2  -8   0  176.25   18.46
  -2  -8   0  138.48   29.64
  -5  -5   2   68.28   14.63
  -5  -5   2   58.13   10.54
   5   5  -2   56.74   12.14
   5   5  -2   74.08   14.22
  -5  -5   2   83.60    7.51
   5   5  -2   75.61   11.52
  -3  -3  -9    4.63    7.12
  -3  -3  -9   -1.20    1.00
  -3  -3  -9   -0.72    1.37
  -3  -3  -9   -5.44    4.84
   3   3   9   -0.57    1.47
   3   3   9   -0.73    1.50
  -3  -3  -9    6.78    6.29
   4  -3  -4   46.39    9.09
   4  -3  -4   63.27    7.71
  -4   3   4   58.72   10.82
  -4   3   4   57.23   10.73
  -4   3   4   58.48   10.53
   4  -3  -4   77.05    8.81
   4  -3  -4   63.94   12.40
   4  -3  -4   48.98    9.40
  -4   4   3   -1.28    3.82
   4  -4  -3    5.32    5.04
   4  -4  -3    4.87    5.47
   4  -4  -3    0.11    3.30
   4  -4  -3    6.40    4.39
  -4   4   3   15.69    7.06
  -4   4   3   -0.28    4.48
   4  -4  -3   10.81    4.07
  -4   4   3    6.38    5.27
   4   1   9   32.40    7.72
  -4  -1  -9   39.87    8.97
   4   1   9   52.02   10.28
  -4  -1  -9   49.23   10.84
  -4  -1  -9   39.31    9.85
  -4  -1  -9   40.69   10.64
   5   6   6  349.61   26.50
   5   6   6  394.72   55.84
   5   6   6  379.09   42.84
  -5  -6  -6  373.22   38.71
  -5  -6  -6  388.10   35.71
  -5  -6  -6  357.22   54.64
  -4  -2  -9   26.43    5.89
  -4  -2  -9   48.47    9.70
   4   2   9   50.47    7.83
   4   2   9   50.75    9.62
  -4  -2  -9   30.73    6.22
  -1  -6   5   -2.90    4.60
  -1  -6   5   -2.32    3.75
   1   6  -5   -6.86    5.32
   1   6  -5    3.30    3.25
   1   6  -5   -1.33    4.97
  -1  -6   5    3.67    4.99
  -1  -6   5   -0.62    2.09
  -7  -1  -4  729.30   68.51
   7   1   4  690.45   98.58
   7   1   4  758.16   88.18
   7   1   4  663.25   87.51
  -7  -1  -4  737.93   76.25
  -7  -1  -4  653.99  100.00
  -7  -1  -4  585.47   49.80
   2   8   3    2.02    4.98
   2   8   3   11.15    4.74
  -2  -8  -3    5.00    2.96
  -2  -8  -3   10.72    4.49
  -2  -8  -3    7.22    7.06
  -2  -8  -3   -0.84    3.37
  -2  -8  -3    2.07    3.38
   2   8   3   14.07    3.58
   5  -4   0   40.68    6.93
   5  -4   0   34.13    8.92
  -5   4   0   47.67    9.44
  -5   4   0   37.31    7.31
  -5   4   0   39.73   10.41
   5  -4   0   35.30    7.85
   5  -4   0   38.11   11.02
  -6   1   1  109.27   16.80
  -6   1   1  111.08   14.96
   6  -1  -1  133.64   16.59
   6  -1  -1  101.56   13.80
   6  -1  -1  115.98   13.76
   6  -1  -1  123.78   14.96
  -6   1   1  121.95   18.70
  -2  -7   3   43.40    8.54
   2   7  -3   23.08    6.85
  -2  -7   3   20.48    6.14
   2   7  -3   34.61    9.07
  -2  -7   3   28.12    8.21
  -2  -7   3   27.25    4.49
   2   7  -3   26.44    5.70
   2   7  -3   30.25   10.19
   7   2   2   83.85   13.12
   7   2   2  128.93   15.91
  -7  -2  -2  156.04   20.60
  -7  -2  -2  121.32   15.36
  -7  -2  -2   79.70   13.49
  -7  -2  -2  100.50   17.79
   7   2   2  103.71   14.94
  -6   2  -5  135.47   20.09
  -6   2  -5  137.20   20.22
  -6   2  -5  151.72   18.35
  -6   2  -5  169.80   18.90
   6  -2   5  164.57   21.81
   6  -2   5  159.97   22.28
   6  -2   5  168.32   20.90
   4  -2   8    4.91    3.84
  -4   2  -8    7.89    7.02
  -4   2  -8    3.04    5.86
   4  -2   8   -0.73    5.31
  -4   2  -8   -3.31    5.25
  -4   2  -8   -2.84    3.75
   7   3   3   -1.45    7.83
   7   3   3   -1.01    4.36
   7   3   3   -5.08    4.83
  -7  -3  -3   -4.82    5.76
  -7  -3  -3    5.62    6.73
  -7  -3  -3    6.62    5.35
  -7  -3  -3   -3.46    5.52
   5  -4   4  418.62   41.68
   5  -4   4  398.50   61.45
   5  -4   4  453.49   37.80
   5  -4   4  478.61   45.60
  -5   4  -4  434.88   54.10
  -5   4  -4  429.02   36.94
  -5   4  -4  376.69   37.94
  -5   4  -4  410.80   40.33
  -5   3  -6    1.03    5.15
  -5   3  -6    1.30    3.74
  -5   3  -6   -0.28    6.13
  -5   3  -6    4.48    5.04
   5  -3   6    3.31    4.48
   5  -3   6    3.50    5.13
   5  -3   6    5.66    7.49
  -2   1  -9  430.46   55.54
  -2   1  -9  463.85   41.22
  -2   1  -9  425.21   42.78
  -2   1  -9  420.71   51.00
   2  -1   9  452.17   55.48
   2  -1   9  462.04   52.17
   2  -1   9  446.45   47.26
  -2   1  -9  457.95   49.87
   2  -7  -1   19.11    8.30
   2  -7  -1   14.67    6.67
  -2   7   1   19.42    9.46
  -2   7   1   36.23   11.24
   2  -7  -1   33.00    7.04
  -2   7   1   37.27    6.90
  -3  -8  -2  225.65   23.35
   3   8   2  201.00   26.60
   3   8   2  219.33   29.81
   3   8   2  220.39   19.52
  -3  -8  -2  208.32   29.57
  -3  -8  -2  226.42   39.90
  -3  -8  -2  193.46   21.03
   6   0   7  283.34   37.52
  -6   0  -7  237.47   31.97
  -6   0  -7  279.32   49.78
  -6   0  -7  262.02   29.97
  -6   0  -7  273.32   22.65
   6   0   7  223.00   22.92
   6   0   7  312.88   37.29
  -2  -5  -8  819.69   61.76
  -2  -5  -8  779.03   79.21
  -2  -5  -8  810.59  124.80
  -2  -5  -8  753.87   79.09
  -7  -3  -4  109.06    8.25
  -7  -3  -4  117.94   14.95
  -7  -3  -4   70.48   13.82
   7   3   4  118.04   15.96
  -7  -3  -4  138.93   15.87
   7   3   4   84.17   14.27
   7   3   4  113.29   20.17
  -2  -3  -9  136.23   24.86
  -2  -3  -9  104.35   19.65
  -2  -3  -9  156.03   17.40
  -6   2   0  271.51   29.18
   6  -2   0  263.73   41.38
  -6   2   0  281.38   34.64
  -6   2   0  365.45   41.30
   6  -2   0  253.49   36.85
   6  -2   0  317.11   32.42
   6  -2   0  259.29   34.78
   6  -2   0  245.94   33.56
  -1  -2  -9    1.27    3.17
   1   2   9    3.18    1.25
  -1  -2  -9    2.67    1.48
  -1  -2  -9   13.90    9.57
   1   2   9    3.84    1.47
  -1  -2  -9   17.54    6.75
  -1  -2  -9    3.49    1.27
   7   1   2    9.66    7.49
   7   1   2   19.94    7.30
  -7  -1  -2    6.11    5.51
  -7  -1  -2    4.46    8.57
  -7  -1  -2   19.05    6.82
  -7  -1  -2   18.66    7.44
   7   1   2    7.45    4.99
   3  -4   7   40.12    9.76
   3  -4   7   34.24    6.93
  -3   4  -7   29.14    7.14
  -3   4  -7   52.37    7.89
  -3   4  -7   31.43    7.25
  -3   4  -7   23.92   10.59
  -3   4  -7   43.91    8.14
   5  -3  -2  190.37   23.33
   5  -3  -2  145.36   21.46
   5  -3  -2  182.79   19.91
   5  -3  -2  167.10   28.89
  -5   3   2  175.07   24.49
  -5   3   2  215.51   19.93
   5  -3  -2  194.85   31.01
  -5   3   2  203.27   20.59
  -2   7  -2  235.29   29.96
  -2   7  -2  236.78   23.87
  -2   7  -2  251.71   28.24
   2  -7   2  274.59   41.41
   2  -7   2  288.13   27.93
   2  -7   2  236.62   30.31
   5   7   3  410.22   49.05
  -5  -7  -3  396.52   41.54
  -5  -7  -3  423.11   49.57
  -5  -7  -3  392.64   42.53
   5   7   3  394.73   33.24
  -5  -7  -3  361.18   37.72
   5   7   3  402.34   69.41
  -5  -4  -8  175.45   16.40
  -5  -4  -8  197.31   24.17
  -5  -4  -8  156.93   18.64
   5   4   8  185.64   30.45
   5   4   8  168.17   17.10
   5   4   8  131.75   16.16
  -4  -6  -7  133.77   16.23
   4   6   7  115.99   11.23
  -4  -6  -7  102.36   13.74
   4   6   7  129.81   17.14
   4   6   7  124.99   10.25
  -4  -6  -7  119.38   16.48
   3   3  -6 1127.12  101.43
  -3  -3   6 1067.47  117.14
  -3  -3   6 1157.00  120.65
  -3  -3   6 1084.41  190.71
  -3  -3   6 1112.76   77.71
   3   3  -6 1028.40  147.66
   3   8   1   51.97    7.94
   3   8   1   45.13   10.47
   3   8   1   47.35   12.01
  -3  -8  -1   50.76    9.97
   0   8   1  204.44   19.72
   0   8   1  197.58   34.30
   0   8   1  137.24   22.32
   0  -8  -1  230.65   24.76
   0  -8  -1  173.90   31.71
   0  -8  -1  140.93   23.97
  -5  -4   3  523.29   57.87
   5   4  -3  620.33   66.91
   5   4  -3  603.18   71.13
   5   4  -3  536.21   62.84
  -5  -4   3  564.33   69.43
  -5  -4   3  596.30   72.51
  -5  -4   3  546.50   51.25
  -7  -2  -5  255.92   27.17
   7   2   5  226.43   30.92
   7   2   5  191.82   27.64
   7   2   5  195.19   29.08
  -7  -2  -5  181.46   27.67
  -7  -2  -5  249.94   32.67
  -7  -2  -5  233.80   16.14
   0  -8   0  422.53   60.95
   0   8   0  383.97   50.17
   0   8   0  372.06   61.77
   0  -8   0  396.31   43.81
   0  -8   0  466.26   48.79
   0   8   0  381.09   47.64
   5   7   2  496.46   52.59
  -5  -7  -2  455.11   53.42
  -5  -7  -2  454.69   56.29
  -5  -7  -2  422.65   62.52
   5   7   2  445.50   45.45
   5   7   2  515.40   48.24
  -5  -7  -2  493.26   41.17
  -1   2   8    2.32    5.77
   1  -2  -8    7.56    2.65
   1  -2  -8    4.53    6.93
   1  -2  -8    4.65    3.32
   1  -2  -8    4.27    6.09
  -1   2   8    3.01    1.39
  -1   2   8   11.89    3.26
   1  -2  -8    2.06    2.58
  -5   2   3   75.97   11.02
   5  -2  -3   71.81   13.18
   5  -2  -3   55.10   11.37
   5  -2  -3   78.79   11.01
  -5   2   3   72.23   12.68
  -5   2   3   75.26   12.26
   5  -2  -3   79.13   12.27
  -5   2   3   61.18   10.65
   5  -2  -3   79.20   11.71
  -6  -4   1  225.01   28.53
  -6  -4   1  197.86   22.17
   6   4  -1  198.19   18.46
   6   4  -1  210.68   28.45
   6   4  -1  228.80   33.73
  -6  -4   1  195.02   13.97
   3   8   3    7.62    7.37
   3   8   3   28.17    6.38
  -3  -8  -3   19.35    6.74
  -3  -8  -3   24.44    5.36
  -3  -8  -3   21.97    6.77
  -3  -8  -3   20.50    5.57
   6   5   6  340.83   29.58
  -6  -5  -6  353.32   23.40
  -6  -5  -6  353.15   50.85
  -6  -5  -6  338.15   30.39
   6   5   6  346.24   29.12
   6   5   6  310.46   35.33
  -1  -8   1   20.26    5.84
   1   8  -1   18.07    7.15
   1   8  -1   20.59    6.78
  -1  -8   1   27.54    7.58
  -1  -8   1    7.06    8.47
   1   8  -1   40.46    9.18
   1   8  -1   20.72    3.35
  -3   1  -9   -1.31    4.42
  -3   1  -9    2.43    5.53
  -3   1  -9   11.76    7.57
  -3   1  -9    5.88    4.51
  -3   1  -9   -0.81    3.53
   3  -1   9    7.90    5.36
   3  -1   9    2.41    3.83
   3  -1   9    9.12    4.92
  -2   6   4   19.67    5.26
  -2   6   4   18.38    4.74
  -2   6   4   42.78   10.15
   2  -6  -4   15.08    5.01
   2  -6  -4   26.06    5.72
   2  -6  -4   31.77    4.65
   2  -6  -4    9.73    9.71
  -2   6   4   22.38    6.20
  -1  -8  -3   80.78   10.85
   1   8   3   91.51   12.60
   1   8   3   95.53   12.43
  -1  -8  -3   77.73   14.92
  -1  -8  -3   90.62   14.44
  -1  -8  -3   85.03   17.01
  -1  -8  -3   91.92   14.59
   4   7  -1    2.04    4.30
  -4  -7   1    5.08    5.72
   4   7  -1   15.01    6.53
   4   7  -1    1.40    5.67
  -4  -7   1    0.91    5.35
  -4  -7   1   11.79    5.48
   3   7   6  414.77   52.93
  -3  -7  -6  493.56   41.16
  -3  -7  -6  438.72   57.56
  -3  -7  -6  433.74   47.75
  -3  -7  -6  478.09   60.83
  -3  -7  -6  420.50   51.43
   3   7   6  461.00   38.56
   3   7   6  410.97   64.73
   4   5   8  532.86   94.40
   4   5   8  658.03   65.33
  -4  -5  -8  649.06   60.56
  -4  -5  -8  683.87   72.35
  -4  -5  -8  638.41   73.67
   4   5   8  605.56   77.97
  -7  -3  -2  170.74   18.93
  -7  -3  -2  145.58   15.52
  -7  -3  -2  155.77   26.30
   7   3   2  174.85   27.35
   7   3   2  136.63   23.86
  -7  -3  -2  162.45   28.78
  -7  -3  -2  170.70   16.74
   7   3   2  208.16   22.91
  -5  -6   1   41.65   10.04
  -5  -6   1   72.69    8.94
   5   6  -1   64.94   12.62
   5   6  -1   52.85   10.55
   5   6  -1   52.46   11.82
  -5  -6   1   55.65   15.26
  -3   6   2   79.89   11.87
   3  -6  -2   81.77    8.75
   3  -6  -2   92.00   11.85
   3  -6  -2  108.05   15.03
  -3   6   2   99.30   11.52
  -3   6   2   58.22   11.20
   3  -6  -2   78.13   15.27
  -3   6   2   71.18    9.18
   6   1  -2   68.59   18.59
  -6  -1   2   78.94   10.61
   6   1  -2   83.76   13.85
  -6  -1   2  107.84   12.50
  -6  -1   2  104.39   16.21
   6   1  -2  106.52   13.16
  -2   6  -5  161.70   18.09
  -2   6  -5  174.84   15.40
  -2   6  -5  122.61   27.08
  -2   6  -5  140.43   16.90
   2  -6   5  143.62   12.89
   2  -6   5  155.39   17.73
   2  -6   5  162.73   31.21
  -4   0  -9   29.94    8.14
  -4   0  -9   20.62    7.15
   4   0   9   25.87    7.20
   4   0   9   24.55    9.31
  -4   0  -9   15.26    6.01
  -4   0  -9   32.02    8.50
   4   0   9   13.95    6.29
  -4   0  -9   25.40    6.61
   6   5   0   67.82   10.78
   6   5   0   75.66   13.16
  -6  -5   0   72.63   10.77
   6   5   0   68.15   11.40
  -6  -5   0   70.98   11.03
  -6  -4  -7 1142.42  122.49
   6   4   7 1181.59   75.00
  -6  -4  -7 1160.17   79.29
   6   4   7 1203.55  141.54
   6   4   7 1102.70  132.86
  -6  -4  -7 1109.56  107.00
  -6  -4  -7 1189.18   77.90
  -2  -7  -6   11.46    3.42
   2   7   6   11.10    3.01
  -2  -7  -6    2.23    2.54
  -2  -7  -6    5.22    5.04
   2   7   6   -1.43    1.72
  -2  -7  -6    4.49    4.19
  -2  -7  -6    2.02    3.24
   6   6   3   32.45    7.53
  -6  -6  -3   30.37    8.42
  -6  -6  -3   39.12   11.31
  -6  -6  -3   43.52    7.94
   6   6   3   23.97   10.19
   6   6   3   36.10   11.94
   5   1  -4  259.50   32.45
   5   1  -4  268.64   33.57
  -5  -1   4  299.94   33.37
   5   1  -4  221.16   24.83
  -5  -1   4  269.46   29.46
  -5  -1   4  221.31   42.05
  -5  -1   4  298.10   32.43
  -4  -3   5    1.51    5.16
   4   3  -5   -0.34    4.97
   4   3  -5    5.12    5.40
  -4  -3   5    6.67    5.07
   4   3  -5   -1.07    5.28
  -4  -3   5    1.94    4.01
  -4  -3   5    0.27    4.71
   4   3   9   91.18   18.69
   4   3   9  117.20   13.25
  -4  -3  -9  145.12   17.27
  -4  -3  -9  102.64   13.93
  -4  -3  -9   79.09   14.88
  -4  -3  -9   96.01   17.88
  -6  -2   2   88.69   21.25
  -6  -2   2  107.77   13.95
  -6  -2   2  110.85   19.19
   6   2  -2   96.18   15.30
   6   2  -2  109.76   13.63
  -6  -2   2  108.10   12.51
   6   2  -2  122.65   20.83
  -3   3  -8  528.63   58.45
  -3   3  -8  509.23   43.04
   3  -3   8  603.36   81.72
   3  -3   8  526.49   39.15
  -3   3  -8  575.39   86.86
  -3   3  -8  551.64   60.60
  -3   3  -8  565.09   48.78
  -1   1  -9  340.49   48.71
  -1   1  -9  314.14   21.73
  -1   1  -9  375.59   33.46
   1  -1   9  332.45   53.93
  -1   1  -9  314.51   37.85
  -1   1  -9  355.87   34.23
   1  -1   9  328.39   31.40
   1  -1   9  332.74   22.57
   7   1   5  115.96   18.77
  -7  -1  -5   83.54   15.93
  -7  -1  -5  102.38   16.18
  -7  -1  -5   96.40   14.89
   7   1   5   99.02   20.45
  -7  -1  -5  124.22   20.59
   7   1   5   98.09   13.96
   7   0   3  266.35   27.71
  -7   0  -3  207.28   37.94
  -7   0  -3  227.48   28.29
  -7   0  -3  210.92   18.53
  -7   0  -3  218.34   36.33
   7   0   3  227.23   27.98
   7   0   3  234.00   30.25
  -3   4   5   53.73    7.61
   3  -4  -5   29.73    7.94
   3  -4  -5   37.74    8.25
   3  -4  -5   31.92    6.23
   3  -4  -5   40.30    4.88
  -3   4   5   49.60    7.71
  -3   4   5   58.06    9.91
  -3   4   5   32.23    9.87
  -1  -4   7  234.51   35.24
  -1  -4   7  245.63   22.42
  -1  -4   7  257.19   24.91
   1   4  -7  201.79   33.67
   1   4  -7  177.54   25.14
   1   4  -7  217.57   30.73
  -5  -7  -4  132.38   20.54
  -5  -7  -4  114.94   17.81
  -5  -7  -4  174.22   29.20
   5   7   4  107.72   13.03
  -5  -7  -4  146.03   14.10
   5   7   4  134.79   17.78
   5   7   4  122.96   21.53
  -5   1  -8   -3.36    5.35
  -5   1  -8    0.58    3.67
  -5   1  -8   -8.59    4.00
  -5   1  -8   -1.30    5.08
   5  -1   8    1.41    4.40
   5  -1   8    1.55    5.85
   5  -1   8   -3.94    4.08
   5  -1   8   -0.94    4.90
  -3   6  -4  354.18   34.77
   3  -6   4  342.46   43.33
   3  -6   4  299.21   34.16
  -3   6  -4  302.86   50.67
  -3   6  -4  309.71   31.43
   3  -6   4  315.39   25.16
  -3   6  -4  285.57   25.12
   7   3   5   44.87   10.76
   7   3   5   51.06   10.05
  -7  -3  -5   67.73   13.45
   7   3   5   61.58   10.13
  -7  -3  -5   41.80    9.85
  -7  -3  -5   39.14    9.95
   0  -3   8   92.49   18.47
   0   3  -8   93.74   15.67
   0   3  -8   97.64   11.97
   0   3  -8   86.26   14.10
   0  -3   8   86.19   12.10
   6   6   4  275.03   34.40
   6   6   4  294.78   46.94
   6   6   4  325.09   29.59
  -6  -6  -4  264.35   31.20
  -6  -6  -4  356.12   33.48
  -6  -6  -4  283.22   40.85
  -7   0  -4  117.30   18.13
  -7   0  -4   85.06   17.96
  -7   0  -4  143.85   21.05
   7   0   4  127.12   18.62
  -7   0  -4  147.17   14.39
   7   0   4  117.15   15.79
   7   0   4   99.46   19.05
  -3   5  -6  149.91   24.84
  -3   5  -6  190.18   26.31
   3  -5   6  138.76   17.43
   3  -5   6  146.69   15.30
  -3   5  -6  153.41   16.82
  -3   5  -6  165.23   24.30
   3  -5   6  181.04   25.74
  -3   5  -6  157.10   23.23
   0   8   2   -2.39    6.92
   0  -8  -2    1.80    2.90
   0  -8  -2   -3.99    3.83
   0  -8  -2    4.79    2.08
   0  -8  -2    1.70    4.76
   0   8   2   -1.56    4.37
   0   8   2   -1.15    4.33
  -1  -6  -7   35.55    7.68
  -1  -6  -7   27.91    9.06
  -1  -6  -7   23.25    6.91
   0   7  -4  283.78   29.31
   0  -7   4  254.76   42.62
   0   7  -4  220.03   43.31
   0  -7   4  266.79   30.98
   0  -7   4  224.06   36.33
   0   7  -4  323.70   40.27
   3  -5  -4    6.63    4.17
   3  -5  -4    4.79    3.10
   3  -5  -4    1.37    2.78
   3  -5  -4    9.94    7.75
  -3   5   4    4.52    3.33
  -3   5   4   -2.04    5.54
  -3   5   4   -3.33    4.47
  -3   5   4    4.42    2.83
   5   0  -4   96.35   14.40
   5   0  -4  138.80   17.32
  -5   0   4  104.65   20.27
  -5   0   4  110.53   10.32
  -5   0   4  101.82   13.12
   5   0  -4  110.51   17.37
   2   8  -1 2217.05  278.57
   2   8  -1 2418.63  266.25
  -2  -8   1 2256.00  161.04
  -2  -8   1 2246.10  450.99
   2   8  -1 2234.65  277.24
   2   8  -1 2202.88  450.23
  -2  -8   1 2226.70  258.57
  -6  -6  -2  485.68   75.63
  -6  -6  -2  544.21   56.60
   6   6   2  597.58   68.83
  -6  -6  -2  570.20   48.29
   6   6   2  576.45   62.60
   6   6   2  504.60   63.57
   0  -8   1  565.16   69.94
   0  -8   1  560.16   65.91
   0  -8   1  559.61   80.14
   0   8  -1  592.07   58.45
   0   8  -1  501.58   77.78
   0   8  -1  564.37   74.53
  -1  -2   8   52.07   12.82
  -1  -2   8   73.78   11.53
   1   2  -8   92.73   14.22
  -1  -2   8   47.03   10.47
   1   2  -8   59.28    5.90
   1   2  -8   62.53    9.15
  -1  -2   8   60.33    9.69
   1   2  -8   81.98    8.05
   0  -4  -8  173.77   22.34
   0  -4  -8  183.59   26.08
   0  -4  -8  185.67   22.35
   0  -4  -8  220.65   23.23
  -5  -2   4  783.59   97.30
   5   2  -4  868.71  107.11
   5   2  -4  814.16   72.19
   5   2  -4  777.35   99.30
  -5  -2   4  782.76   80.72
  -5  -2   4  869.60   78.25
  -5  -2   4  825.84   94.75
   7   2   1   -1.96    6.25
  -7  -2  -1    6.90    4.53
  -7  -2  -1   19.37    8.89
   7   2   1   13.42    5.96
   7   2   1   17.77    7.38
  -7  -2  -1   14.67    5.77
  -7  -2  -1   15.69    7.14
   0  -7  -5  163.98   20.16
   0  -7  -5  145.25   16.41
   0  -7  -5  156.16   13.69
   0   7   5  142.53   10.83
   0  -7  -5  145.34   18.92
   0   7   5  150.12   19.07
   2   3  -7   55.47    9.12
  -2  -3   7   60.57   11.27
  -2  -3   7   38.54    7.95
  -2  -3   7   30.99   10.40
  -2  -3   7   57.77    7.59
   2   3  -7   57.77   11.59
   7   0   2  118.43   24.43
  -7   0  -2  123.73   18.83
  -7   0  -2  145.42   17.45
  -7   0  -2  175.02   21.59
  -7   0  -2  169.54   17.44
   7   0   2  149.36   20.70
   7   0   2  191.75   19.13
   3   6  -4   19.22    9.76
  -3  -6   4   24.33    9.31
  -3  -6   4   21.15    4.03
  -3  -6   4   12.89    7.64
  -6   0   2  443.20   54.90
  -6   0   2  446.45   40.86
  -6   0   2  456.13   55.27
   6   0  -2  450.93   53.75
   6   0  -2  423.21   50.48
   6   0  -2  414.01   41.37
   5   7   1  123.17   16.32
  -5  -7  -1  140.68   16.36
  -5  -7  -1  145.21   23.13
  -5  -7  -1  102.67   11.00
  -5  -7  -1  149.98   19.54
   5   7   1  126.01   16.16
   5   7   1  135.88   20.45
  -3  -8   0  251.20   35.63
   3   8   0  245.36   29.19
  -3  -8   0  273.03   22.06
   3   8   0  261.03   33.15
   3   8   0  244.02   26.43
  -3  -8   0  281.32   28.87
   2   8   4    6.27    3.60
  -2  -8  -4   14.03    5.14
  -2  -8  -4    9.53    4.30
  -2  -8  -4    7.91    8.96
  -2  -8  -4    5.68    3.66
   2   8   4    5.13    3.06
  -6   3  -2   56.80   10.75
  -6   3  -2   37.77    7.66
  -6   3  -2   66.45   12.56
   6  -3   2   55.16    9.61
   6  -3   2   50.38   10.22
  -6   3  -2   30.89    8.28
   6  -3   2   66.16   10.17
   6  -3   2   55.18   11.48
  -6   3  -3   38.98    6.37
  -6   3  -3   33.78    9.83
   6  -3   3   33.31    9.67
   6  -3   3   21.16    6.52
  -6   3  -3   15.13    6.05
   6  -3   3   20.26    6.81
   6  -3   3   25.38    9.55
  -6   3  -3   17.00    9.61
   7   1   1    2.18    4.50
  -7  -1  -1   -4.60    6.24
  -7  -1  -1    7.82    6.75
  -7  -1  -1   -3.25    4.70
   7   1   1    1.74    5.43
   7   1   1    0.85    5.06
  -7  -1  -1   -1.81    5.86
   7   4   3    2.14    6.16
   7   4   3    8.60    7.89
   7   4   3   13.59    7.08
  -7  -4  -3    8.83    5.30
  -7  -4  -3    9.16    7.64
  -7  -4  -3   11.84    6.68
  -3  -5   5 1673.55  164.84
  -3  -5   5 1813.43  180.82
  -3  -5   5 1775.34  161.40
   3   5  -5 1745.57  209.30
   3   5  -5 1715.55  162.82
   3   5  -5 1496.82  235.17
  -2   7   2   -2.35    3.14
   2  -7  -2   -2.81    4.68
  -2   7   2   -6.76    5.53
   2  -7  -2   -5.50    7.03
  -2   7   2   -3.21    3.87
   4  -2  -5    4.16    6.97
  -4   2   5   22.06    7.92
  -4   2   5   13.30    4.53
   4  -2  -5   16.20    6.35
  -4   2   5   13.09    5.21
   4  -2  -5    5.77    3.13
   4  -2  -5   14.17    5.09
  -4   2   5   18.44    6.80
   7   4   4 1745.99  168.03
  -7  -4  -4 1706.32  100.31
  -7  -4  -4 1672.36  135.42
   7   4   4 1610.92  291.02
   7   4   4 1740.16  167.11
  -7  -4  -4 1792.10  224.76
  -4   5   2  116.67   14.18
  -4   5   2   88.88   12.85
   4  -5  -2  100.70   11.58
   4  -5  -2  100.98   12.72
   4  -5  -2   79.25   12.30
   4  -5  -2  116.25   12.97
  -4   5   2  104.23   12.37
  -4   5   2  106.50   14.36
   1   7  -4   63.64   14.64
   1   7  -4   84.93   11.40
   1   7  -4   72.48   13.76
  -1  -7   4   70.92   11.89
  -1  -7   4   70.82   12.58
  -1  -7   4   79.44    8.19
   1   7  -4   90.61   13.53
  -1  -7   4   84.53   12.34
   2  -3  -7    4.94    1.99
   2  -3  -7    9.89    3.57
   2  -3  -7   14.13    5.34
  -2   3   7   -0.83    4.86
  -2   3   7    1.97    2.38
   2  -3  -7    4.95    2.13
   3   8   4  714.26   60.29
   3   8   4  860.75  130.13
   3   8   4  806.82   62.13
  -3  -8  -4  785.51   92.31
  -3  -8  -4  737.35   75.54
  -3  -8  -4  807.93  103.17
  -3  -8  -4  925.92  137.82
  -5   4   1  166.96   16.88
  -5   4   1  177.46   24.03
   5  -4  -1  197.35   24.09
   5  -4  -1  186.95   22.13
   5  -4  -1  182.00   24.13
   5  -4  -1  163.80   30.15
  -5   4   1  200.87   22.63
  -5   4   1  151.94   20.24
  -1  -3  -9  171.15   15.86
  -1  -3  -9  195.60   21.86
  -1  -3  -9  116.57   23.58
  -1  -3  -9  148.18   22.04
   4   7   6   77.04   11.68
   4   7   6   57.97   12.75
   4   7   6  106.07   13.69
  -4  -7  -6   91.27   13.18
  -4  -7  -6   91.82   14.45
  -4  -7  -6   97.89   12.07
  -4  -7  -6   86.82   13.24
   1  -7  -4   12.02    4.54
   1  -7  -4   20.23   10.09
  -1   7   4   11.83    5.14
  -1   7   4   26.11    5.46
  -1   7   4    3.27    5.52
  -2   7  -3  160.09   24.08
   2  -7   3  167.72   18.42
   2  -7   3  158.55   17.31
   2  -7   3  114.60   24.26
  -2   7  -3  191.12   37.86
  -2   7  -3  145.00   20.12
  -2   7  -3  157.49   19.96
  -1  -5  -8  226.80   23.97
  -1  -5  -8  199.47   19.67
  -1  -5  -8  237.83   36.89
  -1  -5  -8  232.68   19.66
  -4  -5   4  111.38   24.71
  -4  -5   4  107.73   10.70
   4   5  -4  139.58   24.64
   4   5  -4  150.61   16.90
   4   5  -4  120.97   18.15
  -4  -5   4  124.43   14.51
   4  -5   5  309.25   45.86
  -4   5  -5  311.14   22.58
   4  -5   5  319.31   34.35
   4  -5   5  258.02   29.49
  -4   5  -5  354.12   31.81
  -4   5  -5  261.80   22.63
  -4   5  -5  351.72   40.36
  -3  -4  -9   13.19    5.96
  -3  -4  -9   11.48    6.78
  -3  -4  -9   20.58    7.25
  -4  -6   3  256.08   34.58
  -4  -6   3  271.44   32.12
  -4  -6   3  259.54   20.63
   4   6  -3  180.35   37.01
   4   6  -3  270.23   39.27
   4   6  -3  306.67   34.87
   5  -4   5 1110.09  122.27
   5  -4   5 1064.75   92.42
   5  -4   5 1247.72  157.21
   5  -4   5 1064.99   93.54
  -5   4  -5  921.44  151.58
  -5   4  -5 1105.43   97.91
  -5   4  -5 1126.33  102.87
  -5   4  -5 1051.33   78.20
  -6  -3   2  547.09   40.39
   6   3  -2  501.98   53.80
  -6  -3   2  569.60   59.98
  -6  -3   2  563.55   56.66
  -6  -3   2  494.22   62.50
   6   3  -2  556.43   61.50
   6   3  -2  578.67   66.72
  -1   7  -4    4.70    4.78
  -1   7  -4    2.01    5.62
   1  -7   4   10.67    5.88
  -1   7  -4    2.57    1.99
  -1   7  -4   -1.78    5.09
   1  -7   4    3.10    5.35
   1  -7   4    2.61    3.67
  -7  -3  -1   -3.72    3.80
  -7  -3  -1   -3.25    4.78
   7   3   1    0.65    4.43
  -7  -3  -1    3.23    7.59
  -7  -3  -1   -0.50    2.19
  -7  -3  -1    3.02    6.19
   7   3   1   -0.72    5.38
   7   3   1   -0.72    5.57
   0  -1  -9   91.65    9.27
   0  -1  -9  113.11   15.05
   0  -1  -9  109.33   14.56
   0   1   9  109.76   12.64
   0   1   9  104.24   16.30
   0  -1  -9   96.05   13.52
   0   0   9  273.56   40.89
   0   0  -9  304.16   31.54
   0   0  -9  347.89   38.44
   0   0   9  328.78   47.02
   0   0   9  358.26   37.37
   0   0  -9  308.96   54.60
   0   0  -9  290.15   32.85
  -6  -2  -8 1183.16  259.41
  -6  -2  -8 1365.46   81.42
   6   2   8 1324.52  124.94
   6   2   8 1230.24  106.84
   6   2   8 1363.30  250.23
  -6  -2  -8 1245.27  129.34
   6   6   5   39.88    6.85
  -6  -6  -5   37.74    7.59
   6   6   5   21.83    6.84
   6   6   5   17.40    5.99
  -6  -6  -5   21.81    6.83
  -6  -6  -5   31.68    8.20
   7   2   6    5.28    5.48
  -7  -2  -6    4.50    7.27
  -7  -2  -6   -2.52    4.81
  -7  -2  -6    5.96    5.16
   7   2   6   -2.80    5.53
   7   2   6   -5.32    5.14
  -7  -2  -6    2.05    5.12
  -7   0  -5    1.92    4.73
  -7   0  -5    4.65    5.46
   7   0   5    4.38    5.75
   7   0   5    0.67    4.87
   7   0   5   -0.56    5.01
  -7   0  -5   -8.47    5.39
  -6   1  -7  390.80   44.69
  -6   1  -7  487.14   31.58
   6  -1   7  437.07   64.96
   6  -1   7  544.00   73.59
   6  -1   7  475.67   50.15
   6  -1   7  444.82   62.94
  -6   1  -7  472.10   48.10
  -6   1  -7  458.94   46.49
  -7  -4  -2  368.70   24.62
  -7  -4  -2  402.91   55.14
  -7  -4  -2  453.98   57.07
   7   4   2  374.95   37.14
  -7  -4  -2  433.08   44.04
   7   4   2  466.05   46.95
   7   4   2  475.92   35.35
  -6   2  -6   28.94    8.24
   6  -2   6   46.34    8.73
   6  -2   6   30.89    7.94
   6  -2   6   53.27    8.83
   6  -2   6   45.35   10.17
  -6   2  -6   20.82    6.31
  -6   2  -6   32.58    7.57
   6  -3   1  145.20   19.62
   6  -3   1  140.09   15.80
   6  -3   1  113.34   16.03
  -6   3  -1  134.62   16.34
  -6   3  -1  147.03   15.00
  -6   3  -1  107.86   13.17
  -6   3  -1  129.29   12.88
   6  -3   1  112.82   19.60
   6  -3   1  118.11   18.41
  -5  -7  -5  118.05   13.49
  -5  -7  -5   82.74   10.81
  -5  -7  -5   95.21   19.32
   5   7   5   92.82   11.88
   5   7   5  104.41   16.11
   5   7   5   89.23   13.50
  -5  -7  -5  108.58   20.84
   6  -3   4  224.17   37.18
   6  -3   4  211.86   22.65
  -6   3  -4  179.64   20.68
  -6   3  -4  251.97   25.76
  -6   3  -4  174.15   23.23
   6  -3   4  226.62   30.17
   6  -3   4  204.11   21.88
  -6   3  -4  199.69   27.94
  -1  -7  -6  174.31   26.76
  -1  -7  -6  176.78   21.93
  -1  -7  -6  168.13   21.18
   1   7   6  192.87   27.98
   1   7   6  174.64   15.93
  -1  -7  -6  179.94   18.98
   2  -2   9   71.56   12.62
   2  -2   9   57.02   10.04
  -2   2  -9   79.22   10.99
  -2   2  -9   71.42   13.76
  -2   2  -9   55.62    9.24
  -2   2  -9   52.19   10.86
  -2   2  -9   71.84   12.37
   2  -2   9   75.01   10.30
  -2  -6   5   26.16    7.49
  -2  -6   5   18.82    7.82
   2   6  -5   53.74   15.25
   2   6  -5   14.70    6.10
  -2  -6   5   10.04   10.13
  -2  -6   5   18.96    3.78
   3  -3  -6  135.05   22.66
   3  -3  -6  128.30   15.38
   3  -3  -6  109.20   11.17
  -3   3   6  123.47   23.25
  -3   3   6  129.64   13.94
  -3   3   6  176.04   24.49
   3  -3  -6  121.42   21.04
  -2  -4  -9  162.15   28.82
  -2  -4  -9  109.52   16.64
  -2  -4  -9  110.40   19.94
  -2  -4  -9  150.30   15.66
  -7  -4  -5    0.71    5.30
  -7  -4  -5    7.57    2.66
  -7  -4  -5   -2.50    6.43
  -7  -4  -5   -0.06    4.30
   7   4   5    9.57    6.01
   7   4   5   22.13    5.09
   7   4   5    7.87    6.18
   4   8   2   30.95    8.60
   4   8   2   23.17    5.98
  -4  -8  -2   22.91    8.94
  -4  -8  -2   22.56    7.03
   4   8   2   36.92    8.64
  -4  -8  -2   35.46   10.97
  -4  -8  -2   21.49    5.53
  -6  -6  -1   23.03    8.82
  -6  -6  -1   13.41    8.94
   6   6   1   10.99    6.38
  -6  -6  -1   18.89    8.22
   6   6   1   20.88    6.63
   6   6   1   10.19    6.83
   1   8  -2    1.54    6.04
   1   8  -2    7.57    5.57
   1   8  -2   -0.91    1.77
  -1  -8   2   -1.76    4.88
  -1  -8   2    4.32    5.12
   1   8  -2    9.88    6.72
  -1  -8   2   -0.39    3.79
  -6  -1  -8  329.34   41.65
  -6  -1  -8  411.50   50.65
   6   1   8  374.49   39.15
   6   1   8  399.61   53.69
   6   1   8  451.16   36.58
  -6  -1  -8  454.37   55.34
  -6  -1  -8  515.52   38.36
  -4   1  -9 1355.46  156.32
  -4   1  -9 1264.05  134.79
  -4   1  -9 1449.36  164.56
  -4   1  -9 1184.38  144.82
   4  -1   9 1428.13  147.54
   4  -1   9 1291.34  161.06
   4  -1   9 1216.23  124.49
  -4   1  -9 1302.49  147.02
   5   2   9 1451.45  129.41
  -5  -2  -9 1338.12  114.17
  -5  -2  -9 1344.76  108.25
   5   2   9 1355.53  161.15
  -5  -2  -9 1209.77   94.13
   5   2   9 1376.23  148.26
   1   8   4 2362.86  194.00
   1   8   4 2454.01  286.78
  -1  -8  -4 2333.55  201.91
  -1  -8  -4 2513.67  328.69
  -1  -8  -4 2414.73  216.19
  -1  -8  -4 2454.73  340.92
  -1  -8  -4 2399.19  239.65
   6  -2  -1   16.35    6.18
  -6   2   1    1.27    6.34
   6  -2  -1   18.33    5.98
   6  -2  -1    9.85    5.18
   6  -2  -1    4.93    6.83
  -6   2   1   25.40    8.56
  -6   2   1   23.30    7.80
   6  -2  -1    9.94    6.30
  -1   5  -7   21.59    7.12
  -1   5  -7    7.01    3.95
  -1   5  -7   15.16    4.23
  -1   5  -7    3.69    6.88
   1  -5   7   16.99    6.08
   1  -5   7    5.33    6.02
   1  -5   7    4.92    3.83
  -5   1   4  686.96   51.79
   5  -1  -4  680.34   75.14
   5  -1  -4  618.54   54.50
   5  -1  -4  761.30   83.67
   5  -1  -4  678.17   55.24
  -5   1   4  667.34   62.88
  -5   1   4  646.51   71.34
  -5   1   4  669.76   77.25
   4   8   3    0.72    4.31
   4   8   3   -0.37    3.33
   4   8   3   -4.57    6.52
  -4  -8  -3    8.76    6.14
  -4  -8  -3    7.87    5.17
  -4  -8  -3   13.77    7.79
  -4  -8  -3    3.28    7.66
   1  -3  -8  237.16   28.30
   1  -3  -8  247.74   15.80
   1  -3  -8  223.42   38.08
  -1   3   8  264.62   23.88
  -7   0  -1    0.00    4.37
   7   0   1    2.76    5.04
   7   0   1    4.91    7.04
   7   0   1   -7.97    3.93
  -7   0  -1   10.87    4.96
  -7   0  -1   10.83    5.50
  -7   0  -1   -3.52    5.68
   7   1   6  347.23   52.70
  -7  -1  -6  339.41   30.29
  -7  -1  -6  288.55   34.56
  -7  -1  -6  328.09   51.70
   7   1   6  325.00   38.32
   7   1   6  314.24   51.31
   2   5  -6    2.25    5.11
   2   5  -6    6.22    5.71
  -2  -5   6    2.72    5.21
  -2  -5   6   -5.91    5.09
  -2  -5   6   -7.82    5.55
  -7  -3  -6  187.32   15.28
  -7  -3  -6  156.33   23.14
   7   3   6  160.60   15.13
   7   3   6  141.93   25.64
   7   3   6  180.17   20.74
  -7  -3  -6  180.61   21.13
   0  -8  -3   48.88   10.66
   0   8   3   69.10   10.00
   0   8   3   46.20    9.62
   0   8   3   38.72   13.06
   0  -8  -3   50.67    8.34
   0  -8  -3   50.14    9.54
   0  -8  -3   45.09    6.55
   5   1   9   34.82    8.08
   5   1   9   37.24    9.68
   5   1   9    8.89    5.31
  -5  -1  -9   44.51   10.92
  -5  -1  -9   14.43    4.73
  -5  -1  -9   19.09    6.86
  -5  -1  -9   18.25    7.86
  -4  -4  -9  309.77   30.34
  -4  -4  -9  321.81   31.74
  -4  -4  -9  354.35   33.68
   4   4   9  294.97   26.66
  -4  -4  -9  250.92   35.42
  -4  -4  -9  263.04   41.65
  -5  -3   4   -6.45    6.35
  -5  -3   4    3.48    6.13
  -5  -3   4   -0.83    3.57
   5   3  -4   14.25    5.89
   5   3  -4   -3.17    5.42
   5   3  -4   -4.62    3.99
   6   3   8   16.68    3.76
  -6  -3  -8   16.23    7.89
   6   3   8    5.92    4.76
  -6  -3  -8   12.32    4.94
   6   3   8   15.05    5.59
   5   6   7  125.11   12.06
   5   6   7  143.24   14.39
   5   6   7  129.08   16.46
  -5  -6  -7  101.17   13.79
  -5  -6  -7   97.75   13.76
  -5  -6  -7  113.81   10.36
  -3  -7   3  246.35   35.19
  -3  -7   3  320.15   42.46
   3   7  -3  301.74   42.41
   3   7  -3  327.34   35.65
  -3  -7   3  330.31   35.56
   3   7  -3  314.68   44.91
   0   8  -2   67.22    9.61
   0  -8   2   76.39   11.72
   0  -8   2   49.96   12.71
   0  -8   2   60.21    9.46
   0   8  -2   56.89    9.83
   0   8  -2   59.93    9.14
   0   8  -2   45.96   11.26
   0   8  -2   75.61    8.88
  -1   8   0   -0.84    6.95
  -1   8   0   -2.40    4.56
   1  -8   0   -7.03    4.71
  -1   8   0   -3.62    3.83
   1  -8   0   -1.39    5.20
   1  -8   0    4.19    8.13
  -1   2  -9  392.06   49.21
  -1   2  -9  371.33   41.06
   1  -2   9  311.84   57.63
   1  -2   9  399.76   50.44
   1  -2   9  363.55   35.24
  -1   2  -9  350.37   37.73
  -1   2  -9  347.28   41.63
  -1   2  -9  340.80   26.82
   5   5   8    3.31    3.77
  -5  -5  -8    1.58    3.34
  -5  -5  -8    6.56    5.63
  -5  -5  -8   -1.82    2.91
  -5  -5  -8   -0.11    4.68
   5   5   8    1.91    2.94
   5   5   8   13.99    6.88
  -7   1  -3  247.24   31.73
   7  -1   3  276.72   42.31
   7  -1   3  263.75   57.76
   7  -1   3  212.15   35.70
  -7   1  -3  194.76   34.86
  -7   1  -3  234.44   26.58
   0  -2  -9  117.89   14.23
   0  -2  -9  142.34   15.50
   0  -2  -9   82.34   16.06
   0   2   9  105.85    9.05
   0   2   9  139.58   15.59
   0  -2  -9  106.98   18.33
   6  -1  -2  213.53   15.99
  -6   1   2  187.22   28.40
   6  -1  -2  175.44   28.64
  -6   1   2  166.89   26.56
   6  -1  -2  196.07   30.82
   6  -1  -2  184.67   27.99
  -6   1   2  178.64   27.50
   0   1  -9   54.11    7.73
   0   1  -9   50.73    9.92
   0   1  -9   56.47   11.14
   0  -1   9   61.00   14.53
   0  -1   9   56.89    8.81
   0  -1   9   43.25    6.50
   0   1  -9   55.89    9.02
  -3   2  -9   -2.87    4.37
  -3   2  -9   -8.25    6.53
   3  -2   9    2.38    5.69
   3  -2   9   -5.51    4.50
   3  -2   9    3.99    4.29
  -3   2  -9    0.79    4.06
  -3   2  -9   -2.54    6.30
  -3   2  -9   -8.04    4.34
   4   8   1   30.30   10.50
   4   8   1   66.95    9.65
   4   8   1   44.23    7.50
  -4  -8  -1   14.86    8.64
  -4  -8  -1   36.08    8.11
  -4  -8  -1   42.16    9.75
  -4   6  -1  251.09   19.01
  -4   6  -1  298.76   43.02
   4  -6   1  214.64   25.86
   4  -6   1  289.72   33.86
  -4   6  -1  271.85   28.37
  -4   6  -1  252.13   35.05
   4  -6   1  229.24   30.41
   4  -6   1  244.26   25.12
   5   7   0    9.60    8.70
  -5  -7   0   15.77    7.89
  -5  -7   0    0.33    8.88
   5   7   0    8.60    5.75
   5   7   0   10.51    5.92
  -5  -7   0   11.29    6.12
   0   5  -7  426.28   45.71
   0  -5   7  413.04   63.75
   0  -5   7  390.97   54.55
   0   5  -7  337.08   44.32
   0   5  -7  317.78   37.60
  -4   6  -2   13.21    9.45
  -4   6  -2   -4.00    3.12
   4  -6   2   -4.72    5.25
  -4   6  -2    4.06    5.49
  -4   6  -2   -5.48    5.20
   4  -6   2   11.37    6.93
   4  -6   2   10.75    5.78
   1  -8  -1   10.33    5.56
   1  -8  -1    5.38    6.05
  -1   8   1    3.97    5.09
  -1   8   1   -3.00    5.20
  -1   8   1    6.63    7.88
   1  -8  -1   22.91    5.83
   1  -6   6  179.95   29.15
   1  -6   6  229.53   29.48
  -1   6  -6  226.45   25.07
  -1   6  -6  223.32   20.00
  -1   6  -6  193.13   27.21
  -1   6  -6  198.06   28.61
   1  -6   6  184.32   25.91
  -6  -5  -7   76.05   10.18
  -6  -5  -7   61.78   14.51
  -6  -5  -7   61.50    9.39
   6   5   7   75.17   10.72
   6   5   7   98.18   12.99
  -6  -5  -7   74.95   15.45
   6   5   7   69.10   12.75
  -3  -4   6    3.07    6.34
  -3  -4   6   -0.56    3.81
   3   4  -6   -0.11    6.27
   3   4  -6    1.50    6.18
  -3  -4   6   -5.61    4.65
   5   3   9   68.66    9.58
  -5  -3  -9   40.94    9.51
  -5  -3  -9   63.53    9.00
  -5  -3  -9   66.62   11.26
  -5  -3  -9   53.31    9.05
   5   3   9   53.64    8.25
   3   0  -7 1423.21  142.67
  -3   0   7 1337.75  162.93
  -3   0   7 1386.75  205.89
  -3   0   7 1251.09  245.76
  -3   0   7 1339.82   87.61
   3   0  -7 1340.31  185.17
   3   0  -7 1358.93  155.06
  -2   5  -7   10.96    6.19
  -2   5  -7   19.57    4.80
  -2   5  -7    8.37    7.25
   2  -5   7   18.80    6.77
  -2   5  -7    7.67    5.00
  -2   5  -7   18.24    5.82
   2  -5   7   21.56    6.46
   2  -5   7   14.05    7.01
   3   8  -1   23.03    8.58
  -3  -8   1   37.87    8.50
  -3  -8   1   61.59   14.08
  -3  -8   1   41.56    6.90
   3   8  -1   47.37   10.13
   3   8  -1   64.44    8.76
  -3   6   3  417.47   37.32
  -3   6   3  416.03   48.53
   3  -6  -3  460.46   38.37
   3  -6  -3  506.73   45.14
   3  -6  -3  503.46   67.74
   3  -6  -3  561.75   47.20
  -3   6   3  529.51   55.12
  -3   6   3  472.72   46.60
   0  -6   6  108.19   22.72
   0  -6   6  128.68   16.34
   0  -6   6  139.13   24.74
   0   6  -6  139.04   19.75
   0   6  -6  154.10   26.73
   7  -1   4    5.62    5.72
   7  -1   4   -5.00    6.68
  -7   1  -4   -2.65    3.65
  -7   1  -4    4.00    6.25
  -7   1  -4    0.74    5.72
   7  -1   4    4.26    8.13
  -1   8  -1   55.85   10.46
  -1   8  -1   67.07   15.13
  -1   8  -1   83.55   22.84
   1  -8   1   53.78    8.75
   1  -8   1   64.20   14.04
   1  -8   1   52.70    9.85
   6   5  -1 1249.92  149.34
  -6  -5   1 1161.74  118.83
  -6  -5   1 1092.38  131.34
   6   5  -1 1271.69  101.79
   6   5  -1 1276.59  148.31
  -3  -1   7   73.10   11.13
   3   1  -7   80.89   11.81
   3   1  -7   78.99   14.19
  -3  -1   7   75.23   15.16
  -3  -1   7   63.50   16.35
  -3  -1   7   78.17   18.93
   4   4  -5   -3.27    4.58
   4   4  -5   -4.55    4.53
   4   4  -5   -4.02    5.61
  -4  -4   5   -3.37    3.67
  -4  -4   5    5.22    5.08
  -4  -4   5    6.20    7.34
   5  -3   7  121.36   18.04
   5  -3   7  149.81   25.99
  -5   3  -7  109.57   17.29
  -5   3  -7  146.59   17.76
  -5   3  -7  135.21   20.61
  -5   3  -7  132.42   15.53
  -1   4  -8  521.53   70.10
  -1   4  -8  481.42   47.64
  -1   4  -8  511.39   53.17
  -1   4  -8  578.92   75.17
   1  -4   8  517.94   50.07
   1  -4   8  504.48   55.23
  -7  -2   0   -8.28    5.59
  -7  -2   0    4.17    4.39
   7   2   0   -3.90    4.80
  -7  -2   0   -6.57    6.77
   7   2   0  -12.58    5.57
   7   2   0    5.80    5.56
   7  -1   2  427.54   38.61
  -7   1  -2  457.79   50.36
  -7   1  -2  387.70   54.04
  -7   1  -2  475.16   38.18
  -7   1  -2  418.20   46.97
   7  -1   2  361.75   52.58
   7  -1   2  540.98   63.16
  -4  -8  -4   -7.72    6.09
  -4  -8  -4   20.49    5.89
   4   8   4    2.73    3.68
   4   8   4    6.90    4.15
   4   8   4    7.75    4.46
  -4  -8  -4    5.52    4.68
  -4  -8  -4    6.24    3.97
   4  -4   7   41.04    7.66
  -4   4  -7   33.92    8.39
  -4   4  -7   44.84    8.76
  -4   4  -7   43.34    9.07
  -4   4  -7   51.05    9.77
   4  -4   7   40.51   13.60
   4   7  -2  256.67   28.87
   4   7  -2  228.37   31.28
  -4  -7   2  209.47   22.77
  -4  -7   2  208.27   30.67
  -4  -7   2  218.96   20.58
   4   7  -2  206.97   33.38
   2   8  -2  560.47   78.24
   2   8  -2  651.58   98.28
   2   8  -2  628.69   68.35
   2   8  -2  570.96  119.01
  -2  -8   2  637.22  113.22
  -2  -8   2  569.10   76.67
  -2  -8   2  617.40   55.08
  -4   3  -8  843.17  113.58
  -4   3  -8  834.07   55.76
  -4   3  -8  912.46  112.04
  -4   3  -8  787.07   73.37
   4  -3   8  864.27   77.38
   4  -3   8  897.51  113.88
  -4   3  -8  835.16  109.92
  -7  -1   0  176.69   14.29
  -7  -1   0  210.66   25.68
   7   1   0  125.00   19.98
   7   1   0  152.67   19.82
   7   1   0  191.10   25.01
  -7  -1   0  190.33   25.48
   1  -6  -6   34.80    4.85
   1  -6  -6   30.49    5.76
   1  -6  -6   43.00    8.76
   1  -6  -6   37.15    7.69
  -1   6   6   30.62    7.35
  -1   6   6   23.02    4.43
   1  -6  -6   31.46    7.20
  -2   4  -8   -5.75    6.43
   2  -4   8  -11.83    3.87
   2  -4   8    3.24    7.14
  -2   4  -8    6.80    4.29
  -2   4  -8    4.48    3.97
  -2   4  -8   -0.92    4.48
  -2   4  -8   -3.64    4.47
  -2  -7   4   53.68   12.36
  -2  -7   4   73.40    9.09
  -2  -7   4   49.50    7.36
   2   7  -4   53.30   10.80
   2   7  -4   70.55   11.16
   2   7  -4   68.93    9.91
  -2  -7   4   39.87   10.58
   2   7  -4   54.61   12.23
  -3  -6  -8   -1.04    6.24
  -3  -6  -8    2.42    7.69
  -3  -6  -8    2.09    6.18
  -3  -6  -8    1.74    6.81
   5   5  -3   12.82   10.36
  -5  -5   3    7.73    6.59
  -5  -5   3   10.92    2.49
  -5  -5   3   12.20    2.42
  -5  -5   3   23.99    9.18
   5   5  -3   26.82   11.69
   5   5  -3   22.99    6.73
  -4   4   4   51.09    8.80
  -4   4   4   56.46   11.84
   4  -4  -4   55.16   10.14
   4  -4  -4   37.78    9.19
   4  -4  -4   56.03   13.73
   4  -4  -4   45.99    8.27
   4  -4  -4   55.84   10.86
  -4   4   4   37.32    8.66
  -4   4   4   50.12   11.20
  -3   6  -5  124.05   16.67
   3  -6   5  152.69   16.92
   3  -6   5  108.22   18.64
  -3   6  -5  119.12   15.28
  -3   6  -5   82.18   13.63
  -3   6  -5  104.13   14.02
   3  -6   5   93.48   16.01
   7   4   1  269.63   34.20
   7   4   1  216.75   22.44
  -7  -4  -1  276.30   42.27
  -7  -4  -1  265.39   38.91
  -7  -4  -1  243.11   31.91
  -7  -4  -1  237.72   28.86
   7   4   1  268.19   28.96
   1  -5  -7   54.37   10.13
   1  -5  -7   62.35   12.14
   1  -5  -7   65.12    9.37
  -1   5   7   70.12   11.31
   1  -5  -7   54.60   13.33
   5  -5   2   11.59    4.50
   5  -5   2   13.93    5.90
  -5   5  -2   25.79   10.23
  -5   5  -2    3.30    6.41
   5  -5   2   25.87   10.63
  -5   5  -2   14.79    4.69
   5  -5   2   13.46    7.76
  -5   5  -2    6.86    5.92
   5  -3  -3  290.40   38.26
  -5   3   3  287.72   34.73
   5  -3  -3  319.70   44.61
  -5   3   3  280.80   24.30
  -5   3   3  311.30   34.95
   5  -3  -3  285.84   42.04
   5  -3  -3  273.92   37.37
   5  -3  -3  361.96   35.38
  -6   0  -8   43.98    9.09
  -6   0  -8   29.39    6.55
   6   0   8   40.37    9.45
  -6   0  -8   31.27    7.42
  -6   0  -8   10.36    8.29
   6   0   8   17.19    6.80
   6   0   8   32.46    9.75
   3   8   5   53.41   15.20
   3   8   5  100.43   12.74
  -3  -8  -5  100.43   12.01
  -3  -8  -5  100.63   16.49
  -3  -8  -5   69.46   17.68
   3   8   5   89.27   16.23
  -3  -8  -5   81.37   11.56
  -3  -8  -5   69.23   20.18
   5   0   9   56.73    9.31
   5   0   9   64.11    9.17
   5   0   9   66.32    8.47
  -5   0  -9   35.71    8.63
  -5   0  -9   40.97    6.52
  -5   0  -9   69.21   14.37
   6  -3   0  634.32   60.58
   6  -3   0  629.19   78.76
   6  -3   0  634.40   83.93
   6  -3   0  673.27   67.76
   6  -3   0  656.38   84.29
  -6   3   0  600.70   50.57
  -6   3   0  682.86   64.46
  -6   3   0  687.96   84.15
   4  -6   0  101.44   15.17
   4  -6   0  162.57   19.95
  -4   6   0  119.64   26.68
  -4   6   0  149.86   21.14
  -4   6   0  136.64   20.96
   4  -6   0  157.49   16.62
   4  -6   0  129.68   15.69
  -4   6   0  146.68   16.71
   2  -7  -3   47.09    8.77
   2  -7  -3   55.92    9.65
   2  -7  -3   46.58    8.64
   2  -7  -3   54.85    8.99
  -2   7   3   40.28    8.58
  -2   7   3   56.56    9.42
  -2   7   3   29.42    6.90
  -2   7   3   47.10   10.36
   2  -7  -3   55.98    5.12
  -1  -3   8   26.04    8.69
  -1  -3   8   27.57    8.52
  -1  -3   8   34.55    9.02
   1   3  -8   19.02    2.83
   1   3  -8   25.67    7.81
   1   3  -8   29.55    7.17
  -1  -3   8   32.58    7.36
   2   8   5    0.67    2.66
   2   8   5   -1.21    2.81
  -2  -8  -5    6.94    6.21
  -2  -8  -5    6.67    7.47
  -2  -8  -5   -0.91    4.26
  -2  -8  -5    3.51    2.80
  -2  -8  -5    3.70    2.57
   5  -2   8  233.18   27.14
   5  -2   8  219.06   42.17
   5  -2   8  224.25   22.53
  -5   2  -8  192.27   19.87
  -5   2  -8  257.69   22.90
  -5   2  -8  190.38   31.94
  -5   2  -8  203.94   26.37
  -6   3  -5  259.80   30.85
  -6   3  -5  287.29   25.25
   6  -3   5  222.74   31.53
   6  -3   5  213.02   27.16
   6  -3   5  312.54   38.30
  -6   3  -5  253.59   28.88
   6  -3   5  274.45   25.28
  -6   3  -5  262.10   39.52
   5   6  -2   61.46   12.39
   5   6  -2   33.81    9.45
  -5  -6   2   47.29    5.24
  -5  -6   2   49.60   12.88
  -5  -6   2   48.58    8.97
   5   6  -2   61.21   11.00
   2  -5  -6  514.71   90.50
   2  -5  -6  521.09   57.80
   2  -5  -6  457.17   64.09
  -2   5   6  486.60   36.97
  -2   5   6  475.69   71.37
  -2   5   6  506.24   50.55
   2  -5  -6  507.31   57.28
  -2   0   8  305.94   39.14
  -2   0   8  297.56   51.21
   2   0  -8  259.81   39.01
  -2   0   8  300.06   41.21
  -2   0   8  331.83   63.50
   2   0  -8  388.68   41.79
   2   0  -8  317.32   46.11
   6   4  -2   30.59    9.90
  -6  -4   2   44.65   11.27
  -6  -4   2   16.76    6.26
  -6  -4   2   14.41    3.16
   6   4  -2   17.28    9.00
   6   4  -2   15.43    7.77
   7   5   3    3.72    8.40
   7   5   3    7.06    6.45
   7   5   3   -1.20    5.58
  -7  -5  -3    0.66    4.42
  -7  -5  -3    2.78    6.04
  -7  -5  -3   -0.17    8.55
  -7  -5  -4  318.04   52.21
  -7  -5  -4  304.14   26.92
   7   5   4  298.39   32.23
   7   5   4  324.82   37.58
  -7  -5  -4  352.57   53.92
   7   5   4  259.05   45.86
  -3   1   7   -1.25    5.90
  -3   1   7    4.30    3.52
  -3   1   7   -1.37    5.76
   3  -1  -7    3.73    4.58
   3  -1  -7    3.77    3.33
   3  -1  -7    0.23    2.38
  -7   0  -6   47.51   11.73
  -7   0  -6   38.37   11.64
   7   0   6   40.63    8.01
   7   0   6   50.86   11.82
   7   0   6   49.00   10.22
  -7   0  -6   69.23   13.71
  -7   0  -6   37.36   10.11
   4   1  -6  840.72  104.60
   4   1  -6  863.45  124.69
  -4  -1   6  810.03   84.37
  -4  -1   6  875.88   95.49
  -4  -1   6  953.83  117.36
  -4  -1   6  912.88  144.14
  -6  -6  -6   -1.03    5.68
   6   6   6    6.00    5.25
   6   6   6    1.43    5.15
   6   6   6   -0.17    3.58
  -6  -6  -6    0.57    4.38
  -6  -6  -6    7.69    5.05
   7   4   6  435.24   58.10
  -7  -4  -6  365.09   62.34
  -7  -4  -6  398.79   50.80
  -7  -4  -6  418.78   38.51
  -7  -4  -6  405.14   45.57
   7   4   6  470.48   53.08
   7   4   6  414.44   42.04
  -3   7  -1   57.32    8.32
   3  -7   1   47.94   10.19
  -3   7  -1   70.05   13.16
  -3   7  -1   77.33   10.96
  -3   7  -1   65.20    8.82
   3  -7   1   57.17   18.19
   3  -7   1   47.27   14.40
  -5   5  -1    3.53    6.82
  -5   5  -1   18.71    5.79
   5  -5   1    3.42    4.06
   5  -5   1   13.34    7.63
  -5   5  -1   11.81    5.75
   5  -5   1    4.47    2.92
   5  -5   1   13.47    7.19
   4  -6   3  167.64   23.05
   4  -6   3  157.69   35.44
  -4   6  -3  175.00   17.04
  -4   6  -3  144.65   20.54
  -4   6  -3  150.15   22.48
  -4   6  -3  172.42   16.96
  -4   6  -3  148.10   21.08
   4   0  -6   66.40   11.16
   4   0  -6   79.55    8.49
   4   0  -6   69.78   10.80
  -4   0   6   63.60   15.20
  -4   0   6   72.10   12.15
  -4   0   6   90.44   12.98
  -4   0   6   70.45   11.79
  -5   5  -3   60.61    8.99
  -5   5  -3   79.80   11.66
   5  -5   3   49.47   10.56
   5  -5   3   38.28    8.85
  -5   5  -3   31.65    9.92
   5  -5   3   47.63    9.66
   5  -5   3   38.41    9.57
  -5   5  -3   47.76   13.27
  -3  -7  -7   20.79    7.13
  -3  -7  -7   42.13    8.81
  -3  -7  -7   52.92   11.05
  -3  -7  -7   35.63    7.16
   3   7   7   42.98   10.10
  -3  -7  -7   50.09   11.89
   0  -6  -7   21.00    8.61
   0  -6  -7    7.33    5.47
   0  -6  -7    9.32    6.97
   0  -6  -7    4.08    6.24
   2  -7   4  499.51   59.21
   2  -7   4  525.14   48.83
   2  -7   4  414.18   63.01
  -2   7  -4  550.72   60.43
  -2   7  -4  523.88   65.54
  -2   7  -4  461.64   69.96
  -2   7  -4  503.68   52.15
  -7  -3   0   81.97   17.70
  -7  -3   0   75.78   11.10
  -7  -3   0   98.81   15.00
   7   3   0  104.14   15.95
   7   3   0   93.57   13.00
   7   3   0   84.88   15.92
  -7  -3   0   91.72   10.59
  -6  -4  -8   40.02   12.20
  -6  -4  -8   22.89    6.37
   6   4   8   29.08    6.71
   6   4   8   51.31   12.12
  -6  -4  -8   22.65    6.56
   6   4   8   18.77    7.38
  -6  -4  -8   41.42    7.32
  -2  -6  -8  230.50   28.81
  -2  -6  -8  232.81   27.81
  -2  -6  -8  189.02   36.60
  -2  -6  -8  243.58   39.21
   1  -8  -2   58.20   11.35
   1  -8  -2   40.09   11.20
   1  -8  -2   34.45    8.49
  -1   8   2   57.98    9.52
  -1   8   2   42.39   10.45
  -1   8   2   73.59   12.88
  -2  -1   8  156.38   26.98
  -2  -1   8  163.67   24.59
   2   1  -8  146.71   17.86
   2   1  -8  174.75   27.13
  -2  -1   8  158.87   18.98
  -2  -1   8  146.16   26.57
   3  -7   0   10.10    8.51
  -3   7   0   13.77    4.65
  -3   7   0   31.40    6.84
  -3   7   0   29.11    7.60
   3  -7   0   20.96    7.58
  -3   7   0   22.20    8.12
  -1  -4  -9  268.42   24.88
  -1  -4  -9  183.41   22.09
  -1  -4  -9  238.43   26.16
  -1  -4  -9  244.17   28.64
   2  -1  -8  117.04   18.24
   2  -1  -8  129.38   22.44
   2  -1  -8  136.02   13.54
  -2   1   8  127.80   20.79
  -2   1   8   98.32   24.49
  -2   1   8  101.63   18.01
  -4  -6  -8   11.71    7.30
   4   6   8    5.06    3.09
   4   6   8   11.51    5.13
  -4  -6  -8   -1.99    5.60
  -4  -6  -8   10.00    3.51
  -4  -6  -8    8.38    3.65
  -5  -7  -6  162.77   19.18
  -5  -7  -6  159.31   27.60
   5   7   6  147.22   23.12
   5   7   6  136.72   17.35
   5   7   6  137.95   18.28
  -5  -7  -6  149.25   21.75
  -5  -7  -6  159.41   21.96
  -2   6   5  430.42   50.58
  -2   6   5  432.11   33.70
  -2   6   5  471.34   43.81
   2  -6  -5  446.92   40.59
   2  -6  -5  451.69   65.28
   2  -6  -5  456.50   33.67
  -2   6   5  453.63   73.18
  -7   1  -5  323.07   43.22
  -7   1  -5  357.14   35.21
   7  -1   5  364.89   57.63
   7  -1   5  312.28   50.50
   7  -1   5  367.33   34.88
  -7   1  -5  328.26   43.26
  -7   1  -5  344.14   34.03
   5  -4  -2  433.20   71.86
   5  -4  -2  456.51   47.87
   5  -4  -2  353.61   35.30
  -5   4   2  397.84   37.26
  -5   4   2  408.21   44.92
  -5   4   2  359.45   33.74
  -5   4   2  475.59   57.07
   5  -4  -2  361.60   42.06
   5  -4  -2  390.00   50.04
  -4   3   5   50.34    7.13
   4  -3  -5   30.15    6.15
   4  -3  -5   26.02    9.56
   4  -3  -5   40.93    7.88
   4  -3  -5   31.21    9.91
   4  -3  -5   31.26    7.21
  -4   3   5   33.68    9.17
  -4   3   5   38.58    7.84
   6   6   0  291.58   37.25
   6   6   0  311.84   38.29
   6   6   0  279.05   28.51
  -6  -6   0  254.79   31.32
  -6  -6   0  314.02   21.78
  -6  -6   0  309.74   47.13
  -2  -4   7  257.11   40.57
  -2  -4   7  250.68   26.33
   2   4  -7  239.66   38.21
   2   4  -7  192.66   32.88
  -2  -4   7  192.88   36.87
  -4  -8   0   21.73   11.27
  -4  -8   0   19.67    6.89
   4   8   0   23.00    7.66
   4   8   0    8.77    6.10
   4   8   0   17.28    9.79
  -3   7  -2   -1.55    6.07
  -3   7  -2    3.74    5.45
   3  -7   2  -10.09    7.88
   3  -7   2    0.94    7.66
  -3   7  -2   10.63    6.87
   3  -7   2   -2.70    5.94
  -2   6  -6   64.51    9.25
   2  -6   6   65.24   12.62
   2  -6   6   41.45    9.16
  -2   6  -6   48.33   15.08
  -2   6  -6   44.40    8.98
  -2   6  -6   35.66   11.19
   2  -6   6   77.25   15.51
  -3  -2   7   37.36    8.22
  -3  -2   7   18.06    6.36
   3   2  -7   22.39    7.66
   3   2  -7   24.85    7.22
  -3  -2   7   49.15   10.55
  -3  -2   7   44.09    9.22
  -3  -1 -10   15.67    9.47
   3   1  10    8.69    3.24
  -3  -1 -10    2.41    2.15
  -3  -1 -10    4.89    3.13
   3   1  10    0.11    3.20
  -3  -1 -10   -2.18    5.18
   1  -8   2    4.78    6.67
   1  -8   2    5.75    7.16
   1  -8   2   -0.61    5.54
  -1   8  -2    1.96    5.10
  -1   8  -2   10.40    7.25
  -1   8  -2   -7.17    4.89
  -5   4  -6  474.13   48.63
   5  -4   6  505.32   65.47
   5  -4   6  429.31   52.83
   5  -4   6  489.59   51.92
  -5   4  -6  453.22   56.84
  -5   4  -6  483.47   54.26
  -5   4  -6  566.08   54.96
   0  -4   8   17.75    6.43
   0   4  -8   12.39    8.12
   0   4  -8   21.90    7.96
   0  -4   8   27.56    7.78
  -7   0   0    3.79    7.14
   7   0   0    3.52    5.85
   7   0   0    6.96    5.55
   7   0   0    8.85    5.74
  -7   0   0    7.03    5.33
  -7   0   0    9.32    5.47
  -7  -2  -7   47.03   10.74
  -7  -2  -7   27.74   10.17
  -7  -2  -7   85.46   15.11
   7   2   7   78.97   16.96
   7   2   7   54.44   11.70
   7   2   7   48.88   11.76
  -7   1  -1  140.68   27.93
  -7   1  -1  140.12   24.75
   7  -1   1  129.51   21.57
   7  -1   1  128.19   19.87
  -7   1  -1  146.61   20.37
  -7   1  -1  145.38   17.00
   7  -1   1  112.34   20.65
  -4   5   3  463.59   63.49
  -4   5   3  544.66   59.47
  -4   5   3  435.44   58.76
   4  -5  -3  501.33   71.55
   4  -5  -3  500.94   67.45
   4  -5  -3  482.43   46.15
  -4   5   3  540.87   47.45
   4  -5  -3  480.78   62.06
   6   1  -3  292.93   41.79
   6   1  -3  234.74   49.01
  -6  -1   3  314.79   48.16
  -6  -1   3  278.33   44.43
  -6  -1   3  289.73   43.92
   6   1  -3  302.11   45.00
  -2  -7  -7   98.58   16.28
  -2  -7  -7   64.51   12.80
  -2  -7  -7   78.61   15.11
  -2  -7  -7   82.92   13.33
   2   7   7  106.52   14.51
   2   7   7  117.42    8.20
  -2  -7  -7   77.87   19.31
  -7  -5  -2   -1.63    6.11
  -7  -5  -2   13.80    9.26
   7   5   2    5.32    6.30
   7   5   2   -4.66    6.80
   7   5   2    1.27    5.54
  -7  -5  -2    6.92    7.43
  -1  -6   6  330.42   46.36
  -1  -6   6  426.49   49.56
   1   6  -6  311.25   45.02
   1   6  -6  344.68   55.32
   1   6  -6  404.67   44.16
  -1  -6   6  328.59   33.32
  -1  -6   6  329.88   42.48
   3   2  10   17.88    3.71
  -3  -2 -10   18.14    9.04
  -3  -2 -10   32.28    7.60
  -3  -2 -10   28.68    9.06
   3   2  10   30.17    5.60
  -3  -2 -10   21.30    4.49
  -7  -5  -5   71.28   14.70
   7   5   5   90.01   14.09
   7   5   5   94.53   11.76
   7   5   5   93.75   16.88
  -7  -5  -5  100.64   15.45
  -7  -5  -5   73.29   11.24
  -2  -1 -10    8.59    3.80
  -2  -1 -10   19.50    9.82
  -2  -1 -10   12.73    3.72
   2   1  10    8.20    3.42
   2   1  10   21.98    7.83
   2   1  10   14.61    4.65
  -2  -1 -10    7.61    8.62
   5  -2  -4  142.02   15.49
  -5   2   4  134.12   16.51
  -5   2   4  116.92   15.69
   5  -2  -4  123.43   16.48
   5  -2  -4  119.03   14.17
  -5   2   4  135.42   21.24
   5  -2  -4  115.19   16.71
  -5   2   4  135.81   16.62
  -4  -2   6   79.16   12.27
  -4  -2   6  102.12   11.98
  -4  -2   6   89.14   12.86
   4   2  -6   84.62   11.49
   4   2  -6   79.31   12.26
  -4  -2   6   80.84   13.46
   0  -3  -9  268.79   32.39
   0  -3  -9  238.45   26.52
   0  -3  -9  253.64   34.74
   0  -3  -9  236.25   31.00
  -3  -5  -9   70.85   10.16
  -3  -5  -9   75.07   10.77
  -3  -5  -9   93.93   16.21
  -3  -5  -9   50.11   12.10
   0   2  -9   10.74    2.87
   0   2  -9   22.75    7.25
   0  -2   9   12.61    7.68
   0  -2   9   16.47    7.99
   0   2  -9   12.93    6.28
   0  -2   9    9.39    5.11
  -5  -4  -9   88.82    9.91
  -5  -4  -9   90.55   12.33
   5   4   9  102.86   16.39
   5   4   9   86.92   15.73
   5   4   9  105.31   11.74
  -5  -4  -9   91.18    9.70
  -5  -4  -9  101.04   14.59
  -6  -2   3  110.80   21.66
  -6  -2   3  147.84   19.48
   6   2  -3  168.00   20.94
   6   2  -3  167.77   26.76
  -6  -2   3  163.33   25.34
  -6  -2   3  151.04   17.45
   6   2  -3  148.32   26.17
   0  -8  -4  145.76   19.21
   0  -8  -4  151.17   16.60
   0  -8  -4  108.46   14.57
   0  -8  -4  134.38   15.22
   0   8   4  110.69   12.02
   0   8   4  109.07   16.86
   0   8   4  150.42   21.55
  -4   5  -6   11.65    6.46
  -4   5  -6    8.39    3.99
  -4   5  -6   22.32    7.70
  -4   5  -6   14.71    8.25
   4  -5   6   11.88    6.90
   4  -5   6   15.80    6.92
   4  -5   6   19.52   10.00
   0  -7   5  285.57   25.11
   0  -7   5  286.43   39.90
   0  -7   5  257.59   45.15
   0   7  -5  244.05   41.57
   0   7  -5  236.04   30.18
   0   7  -5  266.06   45.08
   0  -5  -8  411.73   28.11
   0  -5  -8  346.56   49.84
   0  -5  -8  377.60   41.43
   0  -5  -8  397.41   47.38
   2  -4  -7  381.74   46.92
   2  -4  -7  354.35   34.21
   2  -4  -7  354.36   36.27
   2  -4  -7  387.03   65.06
  -2   4   7  351.64   30.77
  -2   4   7  389.81   37.48
  -2   4   7  375.98   61.50
   7   3   7   27.94   14.06
   7   3   7   42.25   10.25
  -7  -3  -7   15.96    6.48
  -7  -3  -7   13.28    5.17
   7   3   7   25.68    7.49
  -7  -3  -7   28.35    9.94
   5   4  -4   16.21   10.64
  -5  -4   4   20.20    6.89
  -5  -4   4   34.15    7.69
   5   4  -4   13.73    5.95
   5   4  -4   22.33   12.96
   4   7   7  207.23   29.84
   4   7   7  173.99   22.85
   4   7   7  213.53   33.70
  -4  -7  -7  191.29   39.39
  -4  -7  -7  211.01   30.37
  -4  -7  -7  226.53   48.39
  -4  -7  -7  240.47   24.60
   4  -1  -6   12.69    5.66
  -4   1   6   12.00    8.20
  -4   1   6   27.88    6.07
  -4   1   6   38.01    7.72
   4  -1  -6   23.54    4.66
   4  -1  -6   23.77    5.26
   5  -5   0  149.95   22.62
   5  -5   0  117.85   17.22
   5  -5   0  150.89   17.34
   5  -5   0  124.84   21.00
  -5   5   0  124.51   21.55
  -5   5   0  165.13   17.56
  -5   5   0  136.98   18.44
  -5   5   0  118.77   16.01
   4   8   5  215.71   29.46
  -4  -8  -5  224.03   23.53
   4   8   5  251.95   32.48
  -4  -8  -5  211.23   25.84
   4   8   5  207.03   29.35
  -4  -8  -5  226.54   25.97
  -4  -8  -5  199.91   33.06
  -3   4  -8  112.58   14.06
   3  -4   8   99.18   14.99
   3  -4   8  103.49   17.21
  -3   4  -8  122.63   14.17
  -3   4  -8  121.85   17.59
  -3   4  -8   75.38   14.09
  -3   4  -8  134.35   15.73
   7   1   7   91.73   15.15
  -7  -1  -7   90.44   18.80
   7   1   7  102.53   17.52
  -7  -1  -7  121.32   20.40
  -7  -1  -7   88.96   16.04
   7   1   7   86.26   16.54
  -7  -1  -7  119.68   20.12
   1   8  -3   38.49   11.26
   1   8  -3   90.00   16.93
  -1  -8   3   78.66   15.68
  -1  -8   3   64.24   15.23
  -1  -8   3  102.00   18.92
   1   8  -3   62.07   10.31
   1   8  -3   83.68   13.52
  -1  -5   7   -2.68    6.67
  -1  -5   7   -8.54    4.67
  -1  -5   7   -0.23    3.57
   1   5  -7   -0.23    5.65
   1   5  -7    1.72    7.72
   1   5  -7    0.68    1.58
   0   8  -3   95.39   12.94
   0   8  -3   68.92   11.45
   0   8  -3   76.46   15.13
   0   8  -3   86.58   16.10
   0  -8   3   79.69   16.00
   0   8  -3   68.76   14.91
   0  -8   3   94.60   14.32
   0  -8   3   77.88   16.72
   0  -7  -6  -12.70    7.65
   0  -7  -6    0.41    3.00
   0   7   6    4.65    2.30
   0   7   6    2.54    2.27
   0  -7  -6    2.96    2.09
   0  -7  -6    7.04    4.67
   0  -7  -6    1.34    2.27
  -2  -2 -10  185.12   16.64
   2   2  10  210.86   42.81
  -2  -2 -10  240.18   44.81
  -2  -2 -10  206.75   36.38
   2   2  10  175.96   18.91
  -2  -2 -10  175.16   31.04
  -1  -8  -5   70.37   11.35
   1   8   5   71.16   11.41
   1   8   5   73.89   10.08
  -1  -8  -5   67.82    9.57
  -1  -8  -5   71.74   13.59
  -1  -8  -5   81.32   10.90
  -1  -8  -5   60.92   15.22
  -4   2  -9  114.54   15.04
  -4   2  -9  100.45   13.21
  -4   2  -9   86.99   13.61
  -4   2  -9   82.47   12.59
  -4   2  -9  108.37   18.72
   4  -2   9  135.85   20.41
   4  -2   9  107.72   17.09
   4  -6  -1  438.75   56.78
   4  -6  -1  444.01   49.56
   4  -6  -1  397.62   49.82
  -4   6   1  421.37   50.35
  -4   6   1  488.63   51.51
  -4   6   1  435.07   70.36
  -4   6   1  459.83   44.60
   4  -6  -1  322.00   47.56
  -6   2  -7   97.90   14.47
  -6   2  -7   51.21   11.73
   6  -2   7   73.84    9.35
   6  -2   7   76.36   11.45
  -6   2  -7   93.12   12.99
   6  -2   7   79.24   15.93
   6  -2   7   86.16   13.74
  -6   2  -7   88.31   15.40
   3   0  10  242.09   43.47
  -3   0 -10  290.45   28.92
  -3   0 -10  259.19   28.40
  -3   0 -10  217.22   29.85
   3   0  10  212.69   34.62
  -3   0 -10  266.87   40.26
  -3   0 -10  248.57   48.14
  -1   7   5   24.41    8.88
   1  -7  -5   28.69    6.34
   1  -7  -5   16.18    4.46
   1  -7  -5   25.89    4.60
  -1   7   5   12.13    3.65
  -1   7   5   16.25    4.31
   1  -7  -5    2.14    5.23
   2   0  10   13.01    7.02
   2   0  10   19.27    4.04
   2   0  10   11.54    4.83
  -2   0 -10    5.53    4.29
  -2   0 -10    1.50    5.94
  -2   0 -10   14.64    5.49
  -2   0 -10   32.04   13.18
  -2   0 -10   26.91    6.82
  -6  -7  -3  117.71   19.46
  -6  -7  -3  123.90   19.15
  -6  -7  -3  105.18   17.21
   6   7   3  135.67   17.11
   6   7   3  123.39   22.59
   6   7   3  104.19   18.20
  -6  -7  -3  124.42   17.53
  -3   7   1  655.21   67.72
  -3   7   1  707.35  107.58
  -3   7   1  784.26   66.08
  -3   7   1  600.48   80.58
   3  -7  -1  716.49   75.37
   3  -7  -1  906.34   82.63
   3  -7  -1  686.99   70.81
   3  -5   7  294.64   32.73
   3  -5   7  334.92   53.16
  -3   5  -7  283.94   30.18
  -3   5  -7  236.48   27.02
  -3   5  -7  254.96   36.25
  -3   5  -7  271.10   35.86
  -3   5  -7  304.82   28.29
   3  -5   7  305.16   36.47
  -6   0   3   25.10    6.79
  -6   0   3    9.96    4.61
  -6   0   3   10.15    8.19
   6   0  -3   12.19    9.79
   6   0  -3    3.90    6.50
  -5   5  -4   13.04    7.66
   5  -5   4    7.22    6.61
  -5   5  -4   10.67    8.72
  -5   5  -4   22.32    9.82
  -5   5  -4   11.57    2.75
   5  -5   4   11.01    5.39
   5  -5   4   15.01    5.09
   5  -5   4    1.06    8.56
  -3   5   5  273.66   36.79
  -3   5   5  245.59   30.99
  -3   5   5  297.15   35.51
  -3   5   5  260.55   33.96
   3  -5  -5  268.45   32.18
   3  -5  -5  250.70   40.18
   3  -5  -5  280.75   24.33
   3  -5  -5  248.03   36.06
   3  -5  -5  277.79   23.49
  -1   7  -5   25.89    9.94
  -1   7  -5   25.75    6.97
  -1   7  -5   26.77    6.62
   1  -7   5   31.82    7.41
   1  -7   5   13.98    6.88
   1  -7   5   13.43    9.40
  -1   7  -5   18.11    3.98
  -4  -5  -9   15.64    3.32
  -4  -5  -9   28.76    6.86
  -4  -5  -9   21.24    8.73
   4   5   9   10.71    2.38
   4   5   9   14.66    2.99
  -4  -5  -9    9.14    5.20
  -4  -5  -9   13.64    5.66
   2  -3   9  296.02   32.20
  -2   3  -9  247.21   21.18
  -2   3  -9  271.60   36.86
  -2   3  -9  263.35   28.67
  -2   3  -9  243.43   30.27
  -2   3  -9  301.15   51.00
   2  -3   9  239.21   39.39
   2  -3   9  290.32   35.68
  -6  -7  -4    2.20    7.42
   6   7   4   -3.37    4.36
  -6  -7  -4    3.96    7.25
   6   7   4    3.11    6.15
   6   7   4    6.68    6.44
  -6  -7  -4    2.69    4.33
  -5  -7   1  147.11   24.25
  -5  -7   1  126.98   17.59
  -5  -7   1  179.47   20.29
   5   7  -1  127.46   22.22
   5   7  -1  108.30   18.42
   5   7  -1  121.24   20.75
   1  -4  -8  161.31   20.78
   1  -4  -8  120.87   20.73
  -1   4   8  174.83   21.92
   1  -4  -8  175.57   16.71
   6  -2  -2   36.98   10.54
  -6   2   2   14.56    7.00
  -6   2   2   10.41    5.03
   6  -2  -2   14.01    6.51
   6  -2  -2   24.57    6.92
   6  -2  -2   20.99    6.24
   6  -2  -2    7.01    5.55
  -6   2   2   23.30    6.87
  -2  -5  -9  259.88   37.56
  -2  -5  -9  308.34   41.36
  -2  -5  -9  286.30   52.25
  -2  -5  -9  295.98   31.34
   3  -2  -7  309.87   28.86
  -3   2   7  275.33   27.87
  -3   2   7  288.69   52.02
  -3   2   7  295.62   45.88
   3  -2  -7  354.25   82.55
   3  -2  -7  300.52   36.76
   3  -2  -7  277.67   34.66
   2   2  -8  202.73   20.89
  -2  -2   8  216.62   23.41
  -2  -2   8  211.84   33.37
  -2  -2   8  239.39   39.01
   2   2  -8  240.11   28.92
  -2  -2   8  151.38   23.37
  -4   6  -4   70.75   17.29
   4  -6   4  137.99   23.17
  -4   6  -4   82.92   13.01
  -4   6  -4   62.21   11.52
   4  -6   4   82.50   12.49
   4  -6   4   99.15   15.30
  -4   6  -4   61.25    9.68
   4   2  10  535.12   57.80
  -4  -2 -10  582.95   52.05
  -4  -2 -10  535.83   56.62
  -4  -2 -10  563.84   73.11
   4   2  10  536.58  103.51
  -4  -2 -10  562.04   49.65
  -4  -1 -10   63.77    9.08
   4   1  10   70.98   10.03
   4   1  10   72.81   12.51
  -4  -1 -10   43.96   13.84
  -4  -1 -10   59.60    9.84
  -4  -1 -10   69.87   14.85
   2  -2  -8   61.31   12.06
   2  -2  -8   89.15   20.11
   2  -2  -8   75.10   10.56
   2  -2  -8   79.83   13.85
  -2   2   8   99.28   13.78
  -2   2   8   85.97   10.32
  -2   2   8   74.96   13.17
   3  -7   3   97.17   18.31
   3  -7   3   97.42   15.59
   3  -7   3   95.19   24.99
  -3   7  -3   83.39   16.84
  -3   7  -3  113.31   12.95
  -3   7  -3   93.03   16.78
   5  -1   9  278.52   39.69
   5  -1   9  321.13   43.30
  -5   1  -9  201.26   41.79
  -5   1  -9  262.53   36.15
  -5   1  -9  306.68   34.21
   5  -1   9  286.57   30.20
  -5   1  -9  290.30   24.42
   6   7   2  318.71   38.76
   6   7   2  280.15   39.15
  -6  -7  -2  370.90   35.81
  -6  -7  -2  368.79   51.91
  -6  -7  -2  276.08   37.55
  -6  -7  -2  320.84   58.85
   6   7   2  341.42   29.28
   3   8  -2  113.56   15.99
   3   8  -2   86.80   15.93
   3   8  -2   83.48   18.42
  -3  -8   2   62.93   11.51
  -3  -8   2  121.90   20.53
  -3  -8   2  116.87   16.92
  -3  -3 -10   32.85   11.69
  -3  -3 -10   22.41   10.07
  -3  -3 -10   22.90    6.60
  -3  -3 -10   34.77    9.10
   3   3  10   35.23    5.13
  -3  -3 -10   29.17    8.33
   3   3  10   21.18    7.15
   1   7  -5   29.30    9.67
  -1  -7   5   40.69    4.68
  -1  -7   5   23.12   11.16
  -1  -7   5   34.44    7.00
   1   7  -5   32.55    9.14
   1   7  -5   45.84   11.82
   1   7  -5   27.33    7.57
  -1  -7   5   44.70   10.67
   1   0  -9    7.64    4.52
   1   0  -9    5.15    2.80
   1   0  -9    1.27    4.51
  -1   0   9   12.42    8.83
  -1   0   9    8.45    5.25
  -1   0   9   -2.82    7.98
  -1   0   9    4.80    4.09
  -1   3  -9  152.10   21.82
  -1   3  -9  158.28   17.84
  -1   3  -9  182.80   23.48
  -1   3  -9  143.42   29.29
   1  -3   9  171.43   25.56
   1  -3   9  164.72   24.86
  -1   3  -9  160.53   19.74
   1  -3   9  216.90   34.83
   7   4   0   57.45   11.19
   7   4   0   42.00   12.05
  -7  -4   0   22.64    9.45
  -7  -4   0   47.32   13.23
  -7  -4   0   39.46   10.18
   3  -4  -6   -0.23    2.44
  -3   4   6    1.71    6.67
  -3   4   6   -1.94    3.44
   3  -4  -6    1.67    3.48
   3  -4  -6    1.74    6.40
   3  -4  -6    4.93    3.89
  -3   4   6   -5.77    6.03
  -3   4   6   -3.52    1.99
   6  -1   8  229.82   35.22
   6  -1   8  246.59   19.63
   6  -1   8  222.79   28.47
   6  -1   8  192.47   31.98
  -6   1  -8  210.53   24.19
  -6   1  -8  197.46   23.34
  -6   1  -8  230.73   23.24
  -6   1  -8  276.56   42.37
  -5  -8  -3  113.99   17.18
   5   8   3  145.22   16.06
  -5  -8  -3  112.01   14.69
  -5  -8  -3  132.53   17.53
   5   8   3  132.13   18.24
   5   8   3  123.08   18.71
  -5  -8  -3  164.38   14.73
   5   1  -5   21.07   10.71
   5   1  -5   19.15    6.99
  -5  -1   5   -1.95    8.94
  -5  -1   5    6.70    6.44
  -5  -1   5   18.96    7.08
  -5  -1   5   18.25    5.29
   5   1  -5   15.94    8.51
   7  -2   3    8.58    5.09
  -7   2  -3   28.84    9.59
   7  -2   3    4.71    6.74
  -7   2  -3   15.85    6.67
  -7   2  -3   -2.50    5.70
   7  -2   3   11.53    4.77
  -7   2  -3    7.50    5.24
  -6   3   1   14.19    6.68
  -6   3   1   17.80    6.73
   6  -3  -1   16.71    5.61
   6  -3  -1   10.51    9.12
   6  -3  -1   16.18    5.51
   6  -3  -1   13.89    4.80
   6  -3  -1   22.67   10.88
  -6  -3   3    1.84    6.70
  -6  -3   3   14.36    9.57
   6   3  -3    5.73    8.50
   6   3  -3    5.51    6.53
   6   3  -3   -5.50    8.51
  -6  -3   3   -1.29    2.09
  -6  -3   3    3.24    6.58
   1  -1  -9   46.94   10.83
   1  -1  -9   53.52    9.03
   1  -1  -9   46.91    7.65
  -1   1   9   79.76   12.16
  -1   1   9   59.37    8.99
  -1   1   9   49.51    9.30
   6  -4   2   53.10   12.33
   6  -4   2   52.69   10.95
  -6   4  -2   78.73   10.01
  -6   4  -2   68.31   13.29
  -6   4  -2   86.51   14.70
  -6   4  -2   39.32   12.60
   6  -4   2   75.73   16.04
   6  -4   2   86.09   12.82
  -1   8   3   54.51    9.97
   1  -8  -3   32.06   12.68
   1  -8  -3   61.54   10.02
  -1   8   3   49.78    7.49
  -1   8   3   52.89    9.58
  -6   3  -6   28.70    8.81
  -6   3  -6   36.35    8.07
  -6   3  -6   27.46    7.32
  -6   3  -6   56.40   13.10
   6  -3   6   32.62    9.74
   6  -3   6   41.82   10.18
   6  -3   6   38.53    9.90
   6  -4   3   55.40   13.54
   6  -4   3   23.92    7.21
  -6   4  -3   33.35    9.91
  -6   4  -3   21.27    7.99
  -6   4  -3   24.27    8.39
  -6   4  -3   46.12    6.66
   6  -4   3   27.53    5.90
   6  -4   3   52.09   11.60
  -3  -6   5   55.40   10.74
  -3  -6   5   44.82    7.17
   3   6  -5   42.19   11.54
  -3  -6   5   63.69    6.31
   3   6  -5   28.58   10.74
  -3  -6   5   44.43    9.55
   3   6  -5   42.56   10.00
  -5  -8  -2  268.70   37.55
   5   8   2  233.85   36.36
  -5  -8  -2  172.44   29.77
  -5  -8  -2  248.36   20.55
  -5  -8  -2  181.22   26.65
   5   8   2  210.81   28.63
   5   8   2  232.00   32.78
   7   5   1   33.89    7.78
  -7  -5  -1   30.46   12.33
  -7  -5  -1   18.26    7.41
  -7  -5  -1   16.52    9.37
   7   5   1    2.16    6.38
   7   5   1   11.57    9.94
  -4  -6   4    7.76    5.79
   4   6  -4   12.36    7.57
   4   6  -4   29.23    9.87
   4   6  -4   31.51    8.47
  -4  -6   4   19.83    8.39
  -4  -6   4   13.31    2.48
  -1  -6  -8  115.53   20.07
  -1  -6  -8  104.57   18.33
  -1  -6  -8  155.88   24.92
  -1  -6  -8  130.87   28.75
  -7   1  -6   13.75    8.86
   7  -1   6    1.24    8.72
   7  -1   6   20.36    6.79
  -7   1  -6   10.62    6.56
  -7   1  -6    3.19    6.15
   7  -1   6   -2.00    6.04
  -7   1  -6   10.85    7.09
   7   5   6   -0.80    4.40
  -7  -5  -6    0.22    4.96
  -7  -5  -6    2.43    6.38
  -7  -5  -6    4.41    5.98
   7   5   6    3.60    6.37
   7   5   6   -2.40    5.93
  -7  -5  -6   -0.40    1.97
  -7  -2   1   27.06   11.41
   7   2  -1    4.70    6.15
  -7  -2   1   15.94    4.61
   7   2  -1   37.43    7.31
  -7  -2   1   19.94    8.77
   7   2  -1   11.89    7.46
  -2  -9  -2   42.86    9.52
  -2  -9  -2   21.51    6.25
  -2  -9  -2   25.54    6.09
  -2  -9  -2   23.56    9.59
   2   9   2   28.03    4.54
   2   9   2   17.04    7.35
   2   9   2   34.85    9.39
  -2  -9  -1    3.85    6.23
  -2  -9  -1   -9.05    4.30
  -2  -9  -1   -6.32    5.46
  -2  -9  -1    3.18    2.79
   2   9   1    2.01    6.91
   2   9   1   -4.20    2.82
   2   9   1    0.87    5.28
  -1  -1 -10  693.78   72.91
  -1  -1 -10  587.98  103.16
  -1  -1 -10  706.33   61.76
  -1  -1 -10  758.72   76.13
   1   1  10  576.51  101.92
   1   1  10  700.96   82.64
  -5   0   5  187.57   23.60
   5   0  -5  128.91   13.68
   5   0  -5  153.23   27.64
   5   0  -5  181.60   24.08
  -5   0   5  203.35   21.78
  -5   0   5  177.49   28.31
  -5   0   5  181.80   19.47
   7   4   7   13.72    7.09
   7   4   7   17.51    6.21
  -7  -4  -7   11.03    7.20
  -7  -4  -7   17.42    3.78
  -7  -4  -7    8.74    5.85
  -7  -4  -7   18.00    6.45
   7   4   7   19.53   10.61
  -7  -1   1   99.38    9.82
   7   1  -1  141.85   22.38
   7   1  -1   97.37   14.35
   7   1  -1   93.27   14.24
  -7  -1   1  159.78   21.27
  -7  -1   1  110.51   13.24
  -7   2  -4   30.61   12.84
   7  -2   4   20.11   10.65
  -7   2  -4   27.58    8.23
  -7   2  -4   29.39    8.94
  -7   2  -4   22.34    7.50
   7  -2   4   31.53    8.09
   7  -2   4   15.92    7.73
  -7   2  -2  107.84   18.99
   7  -2   2  124.14   14.21
   7  -2   2  132.25   17.34
   7  -2   2  110.55   14.57
   7  -2   2  102.90   13.67
   7  -2   2  129.04   21.59
  -7   2  -2  130.70   17.30
  -7   2  -2   70.23   15.07
  -5  -6  -8   11.72    7.59
  -5  -6  -8   10.63    4.35
  -5  -6  -8    2.96    5.23
   5   6   8   22.84    7.12
   5   6   8   15.35    5.58
   5   6   8   15.12    4.96
  -5  -6  -8   36.32   10.55
   3  -3   9  129.34   30.91
  -3   3  -9  175.48   17.82
  -3   3  -9  154.05   19.71
  -3   3  -9  139.37   34.55
  -3   3  -9  144.39   22.61
  -3   3  -9  161.15   20.83
   3  -3   9  150.90   27.70
   3  -3   9  166.12   22.68
  -6  -2  -9   85.73   14.77
   6   2   9   67.04   14.19
   6   2   9   97.64   19.60
   6   2   9   77.72   13.35
  -6  -2  -9  101.16   11.69
  -6  -2  -9  108.42   18.08
  -6  -2  -9   57.66   12.58
   5   8   4  120.39   14.12
   5   8   4  119.64   18.52
  -5  -8  -4   99.15   16.69
  -5  -8  -4  117.52   13.14
   5   8   4  124.16   18.41
  -5  -8  -4  113.99   17.88
  -5  -8  -4  121.43   13.74
  -2  -8   3  114.48   16.74
  -2  -8   3  131.56   27.69
   2   8  -3  146.51   24.62
   2   8  -3  132.83   16.18
   2   8  -3  115.20   33.89
   2   8  -3  132.58   20.85
  -2  -8   3  160.38   19.17
  -2  -8   3  143.62   20.64
  -3  -3   7   -4.28    8.74
   3   3  -7    3.86    5.62
   3   3  -7    7.15    4.69
  -3  -3   7   10.48    6.46
  -3  -3   7    2.82    5.11
  -3  -3   7   -1.38    5.32
  -2  -3 -10  143.81   18.03
  -2  -3 -10  120.70   22.45
  -2  -3 -10  139.33   22.54
   3   8   6   10.87    6.44
  -3  -8  -6    8.96    3.29
  -3  -8  -6   15.40    4.03
  -3  -8  -6    7.25    5.68
  -3  -8  -6   30.82    7.33
  -3  -8  -6   21.45    7.63
   3   8   6   20.73    4.80
   3   8   6   14.64    5.23
  -4  -3   6   76.93   13.52
   4   3  -6  113.64   19.45
  -4  -3   6  118.43   22.64
  -4  -3   6   95.14   14.18
  -4  -3   6   92.51   16.88
   4   3  -6   93.93   13.56
   4   3  -6  135.41   16.83
  -7   0  -7   -0.62    5.83
   7   0   7   -0.91    8.49
  -7   0  -7   -5.81    4.70
   7   0   7   -8.78    5.34
   7   0   7   -0.49    5.64
  -7   0  -7   -7.50    7.97
  -7   0  -7   -0.34    5.58
  -1   8  -3  668.06   62.70
  -1   8  -3  691.01   53.78
  -1   8  -3  672.56  107.27
  -1   8  -3  640.65   67.68
  -1   8  -3  606.41   71.28
   1  -8   3  574.34   75.13
   1  -8   3  659.52   82.52
   1  -8   3  624.36   84.13
  -1  -7  -7    8.21    6.91
  -1  -7  -7    9.03    4.88
  -1  -7  -7    3.45    7.00
  -5  -2   5  217.93   22.95
  -5  -2   5  255.70   33.16
  -5  -2   5  192.89   29.21
   5   2  -5  200.29   31.31
   5   2  -5  230.32   24.70
  -5  -2   5  225.29   35.36
   5   2  -5  218.82   43.68
   6   7   5  165.16   21.70
  -6  -7  -5  216.86   20.72
   6   7   5  237.73   43.04
  -6  -7  -5  198.89   19.00
  -6  -7  -5  179.46   23.88
   6   7   5  244.67   23.55
   4   3  10   26.31    5.19
  -4  -3 -10   24.49    9.43
  -4  -3 -10   13.89    9.22
  -4  -3 -10   16.81    5.09
  -4  -3 -10   17.80    5.99
  -4  -3 -10   25.23    9.12
   4   3  10   24.42    5.83
   1   9   1   66.17   11.98
  -1  -9  -1   64.60   13.85
  -1  -9  -1   59.60   12.88
  -1  -9  -1   61.65    9.76
   1   9   1   96.08   12.36
   1   9   1   51.37   11.68
  -1  -9  -1   53.16   10.91
  -6  -6  -7   14.19    7.10
  -6  -6  -7   35.46    8.92
  -6  -6  -7    6.10    5.16
   6   6   7   11.61    5.59
   6   6   7    4.87    6.06
  -4   0 -10   72.31   14.60
  -4   0 -10   43.56    8.35
  -4   0 -10   49.80   11.80
   4   0  10   51.37    9.62
   4   0  10   44.68   10.10
  -4   0 -10   40.75   10.10
   4   0  10   64.75   12.90
  -4   0 -10   69.89   12.69
   7  -1   0   -3.36    5.07
   7  -1   0   -2.34    4.78
  -7   1   0    0.88    5.78
  -7   1   0    2.15    6.65
   7  -1   0   13.54    6.36
  -7   1   0    3.97    5.67
  -1  -1   9   63.40   11.53
   1   1  -9   64.34   10.85
  -1  -1   9   64.88   11.70
   1   1  -9   68.80    9.09
   1   1  -9   55.09   10.42
   1   1  -9   60.85    7.27
  -1  -1   9   60.81   12.78
  -1  -1   9   54.01   10.84
   6   5   8  328.95   34.55
  -6  -5  -8  234.29   32.60
  -6  -5  -8  308.51   22.22
  -6  -5  -8  299.40   39.68
  -6  -5  -8  312.39   23.40
   6   5   8  306.51   48.44
   6   5   8  255.36   32.86
   1   0  10  412.26   68.64
   1   0  10  391.72   59.77
  -1   0 -10  439.30   80.27
  -1   0 -10  401.09   63.43
   1   0  10  466.46   95.95
  -1   0 -10  473.67   44.13
  -1   0 -10  442.25   55.19
  -1   0 -10  379.74   32.52
   4   8  -1  243.20   34.35
   4   8  -1  286.86   35.06
   4   8  -1  263.76   53.40
  -4  -8   1  260.94   25.19
  -4  -8   1  196.21   38.00
  -4  -8   1  255.39   38.14
  -2   1 -10   -3.04    7.07
   2  -1  10   19.76    8.73
   2  -1  10   20.53   12.36
  -2   1 -10   12.60    6.15
   2  -1  10   14.37    5.32
  -2   1 -10    6.85    4.21
  -2   1 -10   13.90    9.85
  -2   8   0  479.01   60.15
   2  -8   0  514.22   58.17
   2  -8   0  474.37   88.44
  -2   8   0  509.46   57.94
  -2   8   0  470.93   78.52
   2  -8   0  534.23   63.76
   3  -6  -4    3.42    4.20
  -3   6   4    0.38    5.55
   3  -6  -4   11.15    7.35
  -3   6   4   -1.29    5.27
   3  -6  -4   -2.83    3.29
  -3   6   4   -6.57    2.76
   3  -6  -4   -7.47    3.40
  -3   6   4    5.14    3.72
  -2   7   4  343.30   28.46
   2  -7  -4  331.81   35.67
   2  -7  -4  302.56   49.82
   2  -7  -4  307.45   26.35
  -2   7   4  266.13   40.89
  -2   7   4  304.80   38.78
  -2   7   4  322.96   23.20
   2  -7  -4  324.86   28.14
   2  -7  -4  351.75   33.29
  -2   8  -1   34.26   10.38
  -2   8  -1   23.94    9.76
  -2   8  -1   20.26    8.88
   2  -8   1   37.91   11.01
   2  -8   1   33.57   11.46
   2  -8   1   39.21    9.57
  -6   4  -1  196.21   31.81
  -6   4  -1  223.59   26.41
   6  -4   1  145.44   25.44
   6  -4   1  212.22   24.61
   6  -4   1  216.60   28.90
  -6   4  -1  152.36   25.53
   6  -4   1  195.35   23.93
  -3   1 -10   -7.88    5.86
  -3   1 -10    5.42    6.11
   3  -1  10   -1.07    5.52
   3  -1  10   -1.65    8.27
  -3   1 -10    3.03    5.24
  -3   1 -10   -2.03    6.04
  -3   1 -10    4.08    5.88
  -6  -5   2    4.95    2.70
  -6  -5   2   12.00    6.48
  -6  -5   2    2.95    2.92
  -6  -5   2   -1.12    4.74
   6   5  -2    6.15    8.71
   6   5  -2   13.48    6.28
   6   5  -2    0.62    7.06
   6   1   9  106.75   17.98
  -6  -1  -9  122.32   15.50
  -6  -1  -9  114.99   15.88
  -6  -1  -9  134.53   20.70
   6   1   9  133.27   21.17
  -6  -1  -9  116.12   13.02
   6   1   9  129.18   19.72
  -2  -8  -6  120.45   12.45
  -2  -8  -6  143.33   15.51
   2   8   6  122.74   13.50
   2   8   6  124.27   19.57
  -2  -8  -6  120.08   25.02
  -2  -8  -6  105.02   19.55
  -2  -8  -6  101.59   19.03
  -3  -7   4  657.24   86.00
  -3  -7   4  601.69   76.86
  -3  -7   4  639.78   84.95
  -3  -7   4  669.74   65.12
   3   7  -4  697.31   87.20
   3   7  -4  664.37   96.92
   3   7  -4  632.12   84.77
  -1  -9  -2    8.76    5.87
  -1  -9  -2   11.15    6.52
  -1  -9  -2   -1.12    4.34
  -1  -9  -2    0.63    3.20
   1   9   2    4.37    6.36
   1   9   2    0.78    4.29
   1   9   2    8.00    7.43
   4   5  -5   18.48    9.49
  -4  -5   5   12.90    8.46
  -4  -5   5   13.25    8.03
  -4  -5   5    0.11    8.32
   4   5  -5   10.53    9.07
   4   5  -5   12.30    9.13
  -5   5   1   74.25   10.20
  -5   5   1   67.27   13.65
  -5   5   1   68.12   11.25
   5  -5  -1   73.32   11.89
  -5   5   1   77.23   14.29
   5  -5  -1   66.26   12.31
   5  -5  -1   62.97   15.40
   5  -5  -1   53.58    9.47
   6  -1  -3    0.34    6.36
   6  -1  -3    0.11    4.51
   6  -1  -3   -0.17    3.16
   6  -1  -3    5.90    6.17
  -6   1   3    6.04    6.78
  -6   1   3   -0.70    4.67
  -6   1   3   -1.08    5.47
  -6   4  -4  205.93   23.87
   6  -4   4  171.55   19.28
   6  -4   4  160.41   20.47
   6  -4   4  194.23   20.77
  -6   4  -4  156.86   25.36
  -6   4  -4  184.57   23.15
   6  -4   4  130.89   23.22
  -6   4  -4  139.53   20.98
   1   2  10    8.69    1.57
   1   2  10   10.73    1.69
  -1  -2 -10    6.23    1.75
  -1  -2 -10   11.17    6.53
  -1  -2 -10   11.15    8.53
  -1  -2 -10    4.52    5.03
  -1  -2 -10    7.79    2.14
   1   9   0   28.83   10.21
  -1  -9   0   38.12    8.17
  -1  -9   0   42.84   10.68
   1   9   0   30.13    8.06
   1   9   0   24.85    8.09
   1   9   0   32.76    5.49
  -3  -5   6   90.88   11.57
  -3  -5   6  104.61   17.03
  -3  -5   6   81.65   13.56
   3   5  -6   52.37   14.99
   3   5  -6   65.86   15.65
   3   5  -6   71.81   15.62
  -6  -3  -9   89.26   18.62
   6   3   9  126.92   13.97
   6   3   9  122.11   20.59
   6   3   9  109.49   17.86
  -6  -3  -9  107.04   18.55
  -6  -3  -9   76.30   13.37
  -4   2   6  253.71   31.51
  -4   2   6  308.10   37.28
  -4   2   6  338.49   50.93
   4  -2  -6  305.51   27.21
   4  -2  -6  310.89   42.60
  -4   2   6  330.36   36.79
   4  -2  -6  305.27   32.11
   6   7   1  294.34   55.76
  -6  -7  -1  279.02   27.75
  -6  -7  -1  302.49   31.55
   6   7   1  304.07   35.83
   6   7   1  297.06   45.76
  -6  -7  -1  295.75   29.08
  -6  -7  -1  299.97   40.66
   2   9   3   16.19    5.43
   2   9   3   44.60   10.34
  -2  -9  -3   28.38    6.67
  -2  -9  -3   31.27    8.69
  -2  -9  -3   25.99    6.92
  -2  -9  -3   26.98    5.01
  -2  -9  -3   24.38    8.18
   2   9   3   21.99    4.25
  -2  -9   0   -0.90    6.64
  -2  -9   0   11.42    6.54
  -2  -9   0   21.29    9.34
   2   9   0    1.48    5.96
   2   9   0    9.02    7.51
  -2  -9   0   11.37    3.59
   2   9   0   10.13    3.00
  -3  -9  -2    0.46    5.23
  -3  -9  -2    8.93    8.85
   3   9   2    2.66    4.67
  -3  -9  -2   -5.26    4.60
   3   9   2    7.94    5.95
   3   9   2    1.02    5.39
   4   7  -3  278.76   41.44
  -4  -7   3  267.09   50.96
  -4  -7   3  283.93   31.97
  -4  -7   3  272.67   46.06
   4   7  -3  217.47   35.41
   4   7  -3  308.66   39.01
  -7  -3   1   59.41   11.16
  -7  -3   1   52.07   10.17
   7   3  -1   76.26   14.90
   7   3  -1   61.82   12.80
   7   3  -1   56.88   12.77
  -7  -3   1   81.45   18.15
  -7  -3   1   68.71   15.19
   5   8   1   15.52    6.83
  -5  -8  -1   13.13    6.94
   5   8   1   16.29    6.16
   5   8   1    6.58    6.18
  -5  -8  -1   19.03    6.51
  -5  -8  -1    8.20    4.35
   3  -6   6  178.86   24.81
   3  -6   6  184.83   24.94
  -3   6  -6  201.68   26.67
  -3   6  -6  174.89   24.91
  -3   6  -6  221.09   29.85
  -3   6  -6  211.88   23.30
   3  -6   6  166.25   28.24
  -3   7   2   15.50    7.26
   3  -7  -2   27.97    3.43
  -3   7   2   28.13    8.74
   3  -7  -2   28.43   10.13
   3  -7  -2   13.95    7.62
   3  -7  -2   32.61    8.22
  -3   7   2   16.72    5.95
  -3   7   2   39.21    9.29
   1   4  -8    5.62   10.40
   1   4  -8   39.25   11.59
  -1  -4   8   47.60   10.97
   1   4  -8   25.51    3.90
  -1  -4   8   21.02   10.32
  -1  -4   8   39.99    8.80
  -6  -6   1   -6.22    9.86
  -6  -6   1   14.38    3.38
  -6  -6   1   21.21    8.94
   6   6  -1   33.07    8.51
   6   6  -1   12.35    7.24
   1  -2  -9    8.29    2.83
   1  -2  -9    8.48    3.17
  -1   2   9   10.83    2.48
  -1   2   9   17.02    3.40
  -1   2   9   26.63   10.01
   1  -2  -9    9.18    4.83
  -5  -7  -7   20.37    7.37
  -5  -7  -7   28.48    7.98
   5   7   7   33.71    6.07
   5   7   7   46.15   10.22
   5   7   7   25.77    6.03
  -5  -7  -7   21.49    5.34
   7   6   4   41.77    9.69
   7   6   4   65.29   12.05
  -7  -6  -4   55.45   11.68
  -7  -6  -4   66.04   12.70
  -7  -6  -4   62.02   11.08
   7   6   4   47.45   12.45
  -2   7  -5   44.33    9.42
  -2   7  -5   93.42   14.69
  -2   7  -5   75.47   13.09
   2  -7   5   64.02   11.59
   2  -7   5   39.65   11.32
   2  -7   5   60.22   15.06
  -2   7  -5   63.75   15.97
  -2   8   1   87.92   12.42
  -2   8   1   56.86   15.33
   2  -8  -1   53.94   12.25
   2  -8  -1  101.17   12.82
   2  -8  -1   74.03   13.83
  -2   8   1   64.37   14.51
  -7  -6  -3    4.64    9.01
  -7  -6  -3   -4.65    5.95
   7   6   3   18.50    9.64
   7   6   3   15.25    7.30
   7   6   3    1.45    6.27
  -7  -6  -3   18.62   11.56
  -5   5  -5   28.70    7.41
   5  -5   5   22.68    8.53
   5  -5   5   16.25    7.91
   5  -5   5    8.92    6.64
  -5   5  -5   16.95    9.04
  -5   5  -5   12.69    7.07
  -5   5  -5   32.08    9.66
  -7   0   1  186.73   32.14
   7   0  -1  171.65   27.68
  -7   0   1  172.00   35.87
  -7   0   1  200.78   32.97
   7   0  -1  158.88   17.34
   7   0  -1  143.96   31.51
  -4   6   2  236.92   25.95
   4  -6  -2  271.31   34.29
   4  -6  -2  267.03   31.70
   4  -6  -2  270.66   39.26
   4  -6  -2  240.31   41.98
  -4   6   2  263.19   31.26
  -4   6   2  279.36   34.91
  -4   6   2  279.25   42.16
   3   9   1   47.21   11.72
  -3  -9  -1   38.30   10.63
  -3  -9  -1   37.96   10.25
   3   9   1   43.74    8.16
  -3  -9  -1   47.15   10.36
   3   9   1   54.55   12.70
  -5  -5  -9  107.39   15.49
  -5  -5  -9  153.06   20.84
   5   5   9  133.66   11.51
   5   5   9  127.66   23.95
   5   5   9  125.03   27.04
  -5  -5  -9  130.84   33.80
  -5  -5  -9  131.42   19.49
  -4  -8  -6    2.01    4.88
  -4  -8  -6    3.23    4.63
  -4  -8  -6    6.03    4.14
  -4  -8  -6   -1.04    6.19
   4   8   6   -0.58    2.98
   4   8   6    6.85    4.77
   4   8   6   -8.03    4.49
  -3  -9  -3   -6.47    6.14
   3   9   3    1.18    2.81
   3   9   3    6.22    4.35
  -3  -9  -3    0.41    4.20
  -3  -9  -3    5.88    5.13
  -3  -9  -3    6.72    6.15
   3   9   3    0.23    5.11
  -2  -6   6   17.51    8.51
   2   6  -6   22.76    8.74
   2   6  -6   24.81    8.81
  -2  -6   6   29.15   11.81
  -2  -6   6   36.72   11.12
  -2  -6   6   27.86    6.53
  -7   2  -5   33.10    8.10
   7  -2   5   48.03   13.51
   7  -2   5   63.62   14.00
  -7   2  -5   34.85   12.76
  -7   2  -5   49.65    8.39
   7  -2   5   35.08    8.21
   7  -2   5   35.85    5.49
  -7   2  -5   19.55    9.71
   7  -2   1   75.02   13.75
   7  -2   1   64.94   11.60
   7  -2   1   71.02   10.55
   7  -2   1   67.90   17.50
  -7   2  -1   66.46   19.26
  -7   2  -1   72.40    9.34
  -7   2  -1   65.82   13.42
   0  -4  -9   55.31    9.79
   0  -4  -9   20.81    7.64
   0  -4  -9   37.33    7.52
   0  -4  -9   37.82    9.74
  -5   3  -8  216.11   30.14
   5  -3   8  188.48   24.81
   5  -3   8  243.72   33.04
  -5   3  -8  196.04   30.25
  -5   3  -8  217.39   27.64
  -5   3  -8  195.56   19.52
  -5   1   5   80.87   13.59
  -5   1   5  115.60   20.03
  -5   1   5  134.45   20.04
  -5   1   5  105.26   13.53
   5  -1  -5  102.39   16.48
   5  -1  -5   90.41   11.10
   5  -1  -5  133.30   17.84
   5  -1  -5  109.20   13.83
   0   3  -9  422.47   51.63
   0   3  -9  381.25   55.27
   0  -3   9  422.45   54.91
   0  -3   9  409.87   56.76
   0  -3   9  386.99   65.59
   0   3  -9  353.58   31.44
  -2   8  -2   47.10   12.77
  -2   8  -2   72.69   15.08
  -2   8  -2   99.57   16.08
   2  -8   2   67.16   14.71
   2  -8   2   95.93   13.94
   2  -8   2   52.33   13.59
  -1  -5  -9  131.11   15.96
  -1  -5  -9  147.02   21.45
  -1  -5  -9  119.79   21.54
  -1  -5  -9  173.64   22.02
  -3   7  -4   11.69    8.37
  -3   7  -4   -1.18    2.23
   3  -7   4    0.06    6.45
  -3   7  -4    3.11    8.44
   3  -7   4   -0.45    6.70
   3  -7   4   -2.59    8.53
  -3   7  -4    7.55    7.98
   5   6  -3   91.53   18.42
   5   6  -3  112.96   15.54
   5   6  -3   96.54    9.41
  -5  -6   3   80.18    9.27
  -5  -6   3   81.65   13.09
  -5  -6   3  136.38   22.47
  -5  -8  -5   94.12   13.97
  -5  -8  -5   58.69   12.67
  -5  -8  -5   80.46   10.69
   5   8   5   69.31   14.15
   5   8   5   91.25   13.92
   5   8   5   51.86   12.31
  -1   1 -10   87.35   11.17
  -1   1 -10   76.29   15.42
  -1   1 -10   62.06   11.87
  -1   1 -10   64.71   12.34
   1  -1  10   51.55   13.77
   1  -1  10   60.14   18.08
  -1   1 -10  110.72   17.40
   1  -1  10   84.95   12.67
  -5   4   3  185.98   17.80
   5  -4  -3  144.20   23.99
   5  -4  -3  223.89   30.34
   5  -4  -3  208.55   42.03
  -5   4   3  164.70   21.97
   5  -4  -3  177.50   22.09
  -5   4   3  226.51   24.54
  -5   4   3  214.95   23.73
   5  -4  -3  205.83   22.42
   7   2   8    6.23    9.36
  -7  -2  -8   12.73    6.12
  -7  -2  -8   18.12   11.17
  -7  -2  -8    5.18   11.02
  -7  -2  -8   29.93    7.08
   7   2   8   14.00    6.49
   7   2   8    8.30    4.73
  -3  -4 -10    8.09    8.87
  -3  -4 -10    7.97    6.37
  -3  -4 -10   11.55    8.54
   2   3  -8   30.74    9.22
  -2  -3   8   32.58    8.08
  -2  -3   8   41.09   11.73
  -2  -3   8   32.19    7.15
   2   3  -8   31.31    8.82
  -5  -2 -10   37.04   11.36
  -5  -2 -10   24.11    8.79
  -5  -2 -10   35.28    8.66
   5   2  10   42.80    7.27
   5   2  10   38.31    6.72
   0  -8  -5   41.57   10.35
   0  -8  -5   44.55    9.09
   0  -8  -5   43.83   12.89
   0  -8  -5   60.50    8.51
   0   8   5   44.72    7.04
   0   8   5   49.09    6.43
   5  -3  -4  238.98   28.70
   5  -3  -4  246.47   26.74
  -5   3   4  198.66   38.93
  -5   3   4  261.77   31.60
   5  -3  -4  251.17   29.45
  -5   3   4  225.20   31.09
   5  -3  -4  219.30   29.83
   5  -3  -4  223.65   28.03
  -8  -2  -4    3.35    6.14
  -8  -2  -4  -12.18    6.28
   8   2   4   14.42    7.75
   8   2   4   -3.84    5.48
   8   2   4    6.75    8.88
  -8  -2  -4    7.55    7.48
  -8  -2  -4   15.42    6.47
  -1  -9  -3   64.81   12.00
   1   9   3   41.94    9.04
   1   9   3   82.78   12.35
  -1  -9  -3   52.87   10.19
  -1  -9  -3   68.05   14.16
  -1  -9  -3   59.69   11.14
   2  -3  -8  129.76   18.92
   2  -3  -8  108.84    9.97
   2  -3  -8  137.19   36.88
  -2   3   8  148.62   20.31
   2  -3  -8  153.34   21.39
  -2   3   8  109.75   22.43
  -5  -3   5    8.39    6.78
   5   3  -5    3.86    5.11
   5   3  -5   19.08    7.51
   5   3  -5   20.10    9.19
  -5  -3   5    5.63    5.71
  -5  -3   5   10.30    7.06
  -5  -3   5   26.04    9.93
  -7  -6  -5  608.40   73.14
   7   6   5  624.82   66.50
  -7  -6  -5  606.62   84.70
  -7  -6  -5  557.74  107.40
   7   6   5  588.55   80.43
   7   6   5  655.91  100.35
  -4   6  -5  423.20   50.31
  -4   6  -5  465.72   55.63
  -4   6  -5  510.22   78.02
   4  -6   5  515.81   48.02
   4  -6   5  454.28   42.94
   4  -6   5  432.71   83.98
  -4   6  -5  413.85   45.76
  -4   4  -8  183.34   22.63
  -4   4  -8  142.51   22.53
  -4   4  -8  135.43   27.52
  -4   4  -8  162.89   24.19
  -4   4  -8  177.44   17.19
   4  -4   8  130.43   16.85
   4  -4   8  168.86   30.42
  -5   4  -7  211.36   26.59
  -5   4  -7  201.41   33.06
  -5   4  -7  199.47   19.33
   5  -4   7  248.17   38.63
   5  -4   7  221.14   39.39
  -5   4  -7  176.16   22.83
   2   7  -5  132.06   24.10
   2   7  -5  121.52   20.92
  -2  -7   5   97.89   19.31
  -2  -7   5   85.63   18.52
  -2  -7   5   94.32   16.81
  -2  -7   5  110.24   17.38
   2   7  -5  127.07   19.30
  -6  -4   3   -6.51    6.85
   6   4  -3   10.11    6.99
  -6  -4   3   -0.49    6.58
  -6  -4   3    1.25    2.11
  -6  -4   3    4.46    2.03
  -6  -4   3   -5.07    5.79
   6   4  -3   12.72    7.63
   6   4  -3  -12.56    6.66
  -7  -6  -2  106.09   30.56
  -7  -6  -2  163.24   21.05
  -7  -6  -2  167.96   22.43
   7   6   2  119.16   26.55
   7   6   2  159.39   25.06
   7   6   2  171.13   26.83
  -8  -2  -3    6.67    8.66
  -8  -2  -3   12.97    7.00
   8   2   3    7.50    6.58
   8   2   3   -7.98    6.17
   8   2   3   11.97    8.52
  -8  -2  -3    9.93   10.66
  -8  -2  -3    1.44    5.26
  -1   6  -7  112.14   14.09
  -1   6  -7   97.63   14.46
   1  -6   7   96.10   16.36
   1  -6   7  126.55   17.20
   1  -6   7   99.10   16.69
  -1   6  -7   84.37   12.25
  -1   6  -7  122.16   24.72
  -5  -1 -10  186.76   25.13
  -5  -1 -10  132.99   25.19
  -5  -1 -10  174.52   24.25
  -5  -1 -10  129.25   20.26
   5   1  10  151.72   21.71
   5   1  10  150.81   21.77
   1  -5   8   28.90    9.03
   1  -5   8   16.18    7.93
  -1   5  -8   24.59    9.22
  -1   5  -8   31.44    8.08
  -1   5  -8   22.04    8.25
  -1   5  -8   19.49    6.96
   0   9   1   25.78    8.34
   0   9   1   62.36   11.21
   0  -9  -1   39.72   10.34
   0   9   1   64.76   15.27
   0  -9  -1   45.80   10.05
   0  -9  -1   56.78    9.47
  -6   0  -9  218.52   24.27
  -6   0  -9  223.16   36.25
  -6   0  -9  163.96   18.25
   6   0   9  200.37   42.04
   6   0   9  240.29   26.19
   6   0   9  177.34   19.02
  -6   0  -9  180.91   23.36
   1   9  -1    8.45    2.12
   1   9  -1    3.37    4.63
   1   9  -1    3.70    5.75
  -1  -9   1    9.27    6.93
  -1  -9   1    9.57    6.85
  -1  -9   1    3.95    7.40
   1   9  -1   -1.37    5.75
   7   3   8  127.22   16.67
   7   3   8  116.96   18.21
  -7  -3  -8  117.29   19.31
   7   3   8   82.42   14.55
   3  -3  -7  110.29   17.41
   3  -3  -7  102.40   10.40
  -3   3   7  108.07   17.41
   3  -3  -7   94.61   15.90
   3  -3  -7  111.05   14.93
  -3   3   7  114.99   11.75
   1   2  -9  426.85   56.74
  -1  -2   9  429.48   35.97
   1   2  -9  417.01   61.12
  -1  -2   9  391.44   50.08
  -1  -2   9  347.74   36.12
  -1  -2   9  449.77   49.91
  -4   4   5  328.21   44.81
   4  -4  -5  271.29   30.69
   4  -4  -5  282.07   35.00
   4  -4  -5  316.07   28.80
  -4   4   5  244.09   38.55
   4  -4  -5  226.53   33.90
  -4   4   5  280.71   31.02
  -4   4   5  279.58   24.62
   4  -4  -5  256.18   34.45
   0  -8   4    0.85    4.60
   0  -8   4    1.10    5.99
   0  -8   4   14.21    7.56
   0   8  -4   13.28    6.64
   0   8  -4   10.60    6.95
   0   8  -4    5.50    5.24
   0   8  -4    6.95    3.16
   0   9   0   13.67    7.56
   0  -9   0   -7.08    7.26
   0   9   0   10.50    6.89
   0  -9   0    9.74    7.15
   0  -9   0    4.79    5.62
   0   9   0    7.06    6.58
  -6   4   0  547.89   61.46
   6  -4   0  386.98   62.41
   6  -4   0  460.49   34.62
  -6   4   0  480.55   69.48
   6  -4   0  465.97   83.48
   6  -4   0  515.91   79.85
   6  -4   0  481.19   61.49
  -6   4   0  427.37   50.14
   5   5  -4  113.03   12.09
  -5  -5   4   87.28   15.14
   5   5  -4  100.75   13.82
   5   5  -4  104.90   14.91
  -5  -5   4  120.74   13.94
  -8  -3  -4   83.02   17.30
   8   3   4  107.82   20.55
   8   3   4  116.44   23.14
  -8  -3  -4  168.70   24.40
  -8  -3  -4  149.64   20.36
  -8  -3  -4  161.92   31.58
   8   3   4   94.12   23.14
  -6  -7  -6   30.01   10.02
   6   7   6    5.40    3.65
   6   7   6    5.46    7.78
   6   7   6    8.19    6.54
  -6  -7  -6    1.84    8.02
  -6  -7  -6   14.88    7.83
  -4  -4 -10  164.08   23.63
   4   4  10  178.83   34.97
   4   4  10  174.54   19.36
  -4  -4 -10  168.32   19.95
  -4  -4 -10  102.86   20.78
  -4  -4 -10  184.82   14.21
  -4  -4 -10  156.80   18.77
   7   1   8  -14.29    9.58
  -7  -1  -8   -5.93    6.75
   7   1   8   -0.61    6.43
   7   1   8   20.61    8.26
  -7  -1  -8    0.98    6.56
  -7  -1  -8   -5.42    6.70
  -7  -1  -8    2.35    5.87
   4  -5  -4    9.54    6.54
   4  -5  -4    5.51    5.65
   4  -5  -4    2.12    5.25
  -4   5   4   14.49    6.01
  -4   5   4   10.28    4.48
  -4   5   4    2.12    3.55
  -4   5   4    5.20    6.07
   4  -5  -4    3.97    4.01
   4  -5  -4    0.00    3.44
  -4   1 -10    1.84    7.50
  -4   1 -10   11.01    7.08
  -4   1 -10    6.92    4.73
   4  -1  10   15.88    6.02
   4  -1  10    1.01    3.56
  -4   1 -10    3.97    6.25
   4  -1  10   17.40    5.43
  -4   1 -10   -2.05    6.31
  -6  -4  -9 1338.65  130.73
  -6  -4  -9 1295.36  121.57
   6   4   9 1228.61  124.78
   6   4   9 1229.73  187.49
  -6  -4  -9 1284.19  108.76
   6   4   9 1369.10  145.73
  -6  -4  -9 1200.47  171.40
  -7  -5   0   20.02    6.75
  -7  -5   0    8.98    7.38
   7   5   0    7.08    7.81
   7   5   0   22.82    9.81
  -7  -5   0   18.02    8.07
   7   5   0   20.95    8.44
  -3  -7  -8   81.63   14.80
  -3  -7  -8  140.10   19.04
   3   7   8   78.24    9.45
   3   7   8  108.26   10.59
  -3  -7  -8   89.21   16.70
   8   1   4    1.48    5.06
   8   1   4   17.69    9.92
   8   1   4   14.03    6.57
  -8  -1  -4    2.45    5.98
  -8  -1  -4   11.89    5.88
  -8  -1  -4    8.22    6.80
  -8  -1  -4   10.74    6.98
  -2  -5   7   20.36    6.16
   2   5  -7    6.49    7.97
   2   5  -7   22.32    8.45
  -2  -5   7   12.19    7.02
  -2  -5   7    5.07    6.68
  -8  -3  -3   40.91   13.91
  -8  -3  -3   44.47   10.08
  -8  -3  -3   40.97   11.81
   8   3   3   44.77   13.92
   8   3   3   41.10   12.84
   8   3   3   20.47   10.69
  -8  -3  -3   61.29   12.57
  -1  -3 -10  512.12   40.43
  -1  -3 -10  468.65   79.71
  -1  -3 -10  544.71   54.47
  -1  -3 -10  563.72   72.65
  -8  -2  -5    1.75    5.73
  -8  -2  -5   -1.73    7.33
  -8  -2  -5    8.13    7.11
   8   2   5    4.21    7.57
  -8  -2  -5   -6.31    6.79
   8   2   5   -5.22    6.25
   8   2   5    1.67    5.64
   2  -5   8    3.27    7.28
  -2   5  -8   12.40    5.03
   2  -5   8    7.77    7.36
  -2   5  -8   11.37    6.31
  -2   5  -8   10.50    8.55
  -2   5  -8    4.68    6.36
   0   6  -7  249.67   34.93
   0  -6   7  336.43   61.43
   0   6  -7  315.33   56.04
   0   6  -7  269.67   42.96
   0  -6   7  317.59   54.65
   0  -6   7  304.23   30.82
   3   9   0  535.57   70.81
  -3  -9   0  571.09   74.68
  -3  -9   0  407.26   59.11
   3   9   0  507.99   56.12
   3   9   0  495.51   50.47
  -3  -9   0  515.35   76.92
   1  -6  -7   27.52    9.22
   1  -6  -7   21.25    6.34
   1  -6  -7   49.16   11.55
   6  -4   5    3.96    6.23
  -6   4  -5    3.30    7.17
  -6   4  -5   10.34    6.81
  -6   4  -5   -0.86    6.19
   6  -4   5   30.64   11.12
   6  -4   5   25.89   10.79
   6  -4   5   24.72    8.57
  -6   4  -5   15.37    5.74
  -1  -8   4   45.26    9.06
   1   8  -4   57.12   10.00
  -1  -8   4   60.11   12.46
  -1  -8   4   48.23   10.47
   1   8  -4   63.94   10.99
   1   8  -4   68.00   13.28
   1   8  -4   34.82    7.99
  -2  -9  -4  132.95   16.30
  -2  -9  -4   91.17   17.42
  -2  -9  -4  172.91   28.13
  -2  -9  -4  126.01   23.21
  -2  -9  -4  112.50   17.13
   2   9   4  183.41   27.68
   2   9   4  139.06   20.68
   7   5   7   77.91   15.61
  -7  -5  -7   66.30   13.50
   7   5   7   63.85   12.72
   7   5   7   66.32   10.26
  -7  -5  -7  104.29   11.99
  -7  -5  -7   86.23   13.60
  -7  -5  -7   75.88   11.64
   5   3  10   12.29    3.70
   5   3  10   11.93    3.71
  -5  -3 -10    7.96    3.34
  -5  -3 -10   12.71    4.29
  -5  -3 -10    6.32    7.27
  -1  -8  -6  234.64   38.67
  -1  -8  -6  214.45   24.27
  -1  -8  -6  246.62   33.53
   1   8   6  217.24   19.09
  -1  -8  -6  213.83   38.52
  -1  -8  -6  218.17   29.52
   2   9  -1    0.60    2.62
   2   9  -1    0.93    7.28
  -2  -9   1   -4.18    4.94
  -2  -9   1    0.40    5.36
  -2  -9   1    8.79    7.62
   2   9  -1    2.38    4.53
  -8  -1  -3    6.67    8.48
  -8  -1  -3    3.86    6.35
  -8  -1  -3    2.88    7.56
   8   1   3   -8.68    6.75
   8   1   3   -0.91    5.64
  -8  -1  -3   -2.00    6.06
   8   1   3   -0.33    4.90
  -5   2  -9   94.43   15.46
  -5   2  -9  102.56   18.13
  -5   2  -9   82.20   18.24
  -5   2  -9   99.21   16.75
   5  -2   9   85.00   15.99
   5  -2   9  134.26   24.85
   5  -2   9  106.13   17.86
  -3  -9  -4  134.46   16.70
  -3  -9  -4  179.67   18.47
  -3  -9  -4  149.10   13.23
  -3  -9  -4  143.24   20.17
   3   9   4  128.66   26.29
   3   9   4  130.53   23.48
   3   9   4  152.44   15.59
  -3  -9  -4   93.28   25.68
   1  -8  -4  215.61   18.45
  -1   8   4  245.06   37.74
   1  -8  -4  230.66   23.68
  -1   8   4  256.00   35.77
  -1   8   4  240.76   27.09
   1  -8  -4  186.73   36.73
   1  -8  -4  222.77   31.47
   2  -8  -2   -2.17    5.34
   2  -8  -2    8.10    8.12
  -2   8   2   -0.28    4.96
  -2   8   2    4.69    4.23
  -2   8   2   -9.01    7.81
  -2  -4 -10    2.97    5.06
  -2  -4 -10   13.49    8.75
  -2  -4 -10    5.79    7.84
  -2  -4 -10   16.31    7.19
  -3  -6  -9   69.10   18.34
  -3  -6  -9   53.29   10.48
  -3  -6  -9   55.30   13.67
  -3  -6  -9   58.95   13.59
   5   7  -2   27.16   11.10
  -5  -7   2   10.76    3.33
   5   7  -2   -5.81    9.08
   5   7  -2   18.32    7.20
  -5  -7   2   15.95    9.66
  -5  -7   2    1.42    9.20
  -4   5  -7   68.53   13.21
  -4   5  -7   55.68    7.68
  -4   5  -7   28.61   10.94
  -4   5  -7   63.20    9.56
   4  -5   7   55.90   10.09
   4  -5   7   67.35   15.17
   4  -5   7   58.94   11.93
  -4   5  -7   28.70   10.61
  -4   3  -9  142.92   18.14
   4  -3   9  100.27   14.46
   4  -3   9  135.53   19.69
   4  -3   9  154.60   26.90
  -4   3  -9   95.91   18.95
  -4   3  -9  139.22   19.29
  -4   3  -9   77.02   13.04
  -4   3  -9  106.47   18.21
   0  -9  -2   12.50    8.14
   0  -9  -2   23.40    8.11
   0   9   2    4.06    6.06
   0   9   2   10.42    5.93
   0   9   2   13.18    5.56
   0  -9  -2   13.32    7.82
  -8  -3  -5    9.64    9.14
  -8  -3  -5    5.75    7.76
   8   3   5   14.47    6.98
  -8  -3  -5   10.15    6.08
  -8  -3  -5    6.62    6.06
   8   3   5   13.02    6.39
   8   3   5    7.56   11.29
   7  -1   7   15.59    7.57
  -7   1  -7   28.42   11.37
   7  -1   7    1.66    6.66
   7  -1   7   -1.41    5.97
  -7   1  -7   -9.84    6.58
  -7   1  -7   -5.21    4.68
  -7   1  -7    1.72    7.57
   7   4  -1  126.01   23.50
  -7  -4   1  103.97   16.13
   7   4  -1  145.90   18.96
   7   4  -1  105.08   14.86
  -7  -4   1  109.02   17.91
  -7  -4   1   80.26   24.24
  -7  -4   1  112.00   18.58
   5   8   0   89.13   17.90
  -5  -8   0   86.90   13.54
  -5  -8   0   56.54   13.10
  -5  -8   0   71.90   12.54
   5   8   0   76.37   14.08
   5   8   0   97.61   15.10
  -2   6   6  373.89   46.69
   2  -6  -6  383.43   35.11
   2  -6  -6  418.73   74.51
   2  -6  -6  486.84   54.66
  -2   6   6  434.01   38.78
  -2   6   6  371.83   40.73
   2  -6  -6  398.05   46.42
   2  -6  -6  396.05   49.46
   2  -2  10    3.27    6.12
   2  -2  10    3.62    3.67
   2  -2  10    3.12    4.38
  -2   2 -10   -3.38    6.18
  -2   2 -10   -1.19    6.49
  -2   2 -10    2.73    5.29
  -2   2 -10    1.04    6.88
  -2   2 -10    2.46    6.26
  -6   2  -8   27.91    8.40
  -6   2  -8   33.21   12.28
  -6   2  -8   62.14   14.63
  -6   2  -8   44.18    9.72
   6  -2   8   35.21    7.76
   6  -2   8   48.27   12.29
   6  -2   8   34.71    9.07
   6  -2   8   51.51   12.65
   4   7   8   45.72    6.21
  -4  -7  -8   43.58   10.87
  -4  -7  -8   35.11    5.84
  -4  -7  -8   29.51    8.63
  -4  -7  -8   36.18    8.65
  -4  -7  -8   29.43    7.28
   4   7   8   24.82    8.97
   8   2   2  271.11   33.19
  -8  -2  -2  355.35   44.99
  -8  -2  -2  220.35   34.29
  -8  -2  -2  330.18   57.16
   8   2   2  278.25   39.83
   8   2   2  286.58   41.85
  -8  -2  -2  288.36   32.57
   2  -6   7   78.41   14.83
  -2   6  -7   88.36   13.22
   2  -6   7   72.45   19.81
  -2   6  -7   70.01   10.41
  -2   6  -7   73.14   13.41
  -2   6  -7   56.43   14.37
   2  -6   7  115.60   14.88
   6  -3  -2   53.45    8.99
   6  -3  -2   31.43   11.23
   6  -3  -2   53.29   10.42
   6  -3  -2   59.71   10.70
  -6   3   2   60.06   11.99
  -6   3   2   77.90   11.95
   6  -3  -2   49.87    9.00
   6   7   0  617.75   72.40
   6   7   0  696.49  103.33
   6   7   0  651.11   86.05
  -6  -7   0  648.36   94.84
  -6  -7   0  743.36   82.78
  -6  -7   0  661.07   90.22
   0  -9   1  362.85   83.87
   0   9  -1  473.64   78.98
   0   9  -1  479.77   50.85
   0   9  -1  460.74   57.34
   0  -9   1  551.85   59.26
   0  -9   1  483.32   81.15
   0   5  -8  192.99   33.33
   0  -5   8  259.95   46.58
   0   5  -8  207.07   33.43
   0  -5   8  219.43   35.80
   0   5  -8  227.68   42.47
   8   1   5   44.80   10.16
   8   1   5   27.85    8.17
  -8  -1  -5   21.96    9.55
  -8  -1  -5   22.80    9.04
  -8  -1  -5   11.67    6.53
  -8  -1  -5   54.88    9.41
   8   1   5   29.34    7.62
   6  -3   7  111.31   16.03
   6  -3   7  133.71   17.15
  -6   3  -7   94.55   17.22
   6  -3   7  116.07   21.09
  -6   3  -7   87.99   11.72
  -6   3  -7  128.67   16.06
  -6   3  -7  121.88   16.71
  -4  -6  -9   17.38    9.45
  -4  -6  -9    9.03    6.85
  -4  -6  -9    0.50    1.49
   4   6   9    0.56    1.34
  -4  -6  -9   -1.32    1.53
   4   6   9   -0.22    1.18
  -4  -6  -9    2.42    6.47
  -4  -6  -9    0.17    6.29
  -4  -4   6  238.74   21.77
  -4  -4   6  265.90   30.11
   4   4  -6  168.64   26.82
  -4  -4   6  208.33   30.57
  -4  -4   6  246.29   41.32
   4   4  -6  264.03   46.05
   4   4  -6  301.32   33.34
   3   8  -3    0.38    7.07
   3   8  -3   -2.11    5.00
   3   8  -3  -10.42    8.64
  -3  -8   3    2.86    5.57
  -3  -8   3  -10.87    6.55
  -3  -8   3    7.68    5.19
   2  -5  -7   -1.41    1.61
   2  -5  -7    0.35    1.23
  -2   5   7    0.11    2.10
  -2   5   7   -1.11    1.83
   2  -5  -7   -2.88    5.41
   2  -5  -7   -7.52    5.73
  -2   5   7    0.11    6.34
   4   9   2   49.50   10.99
  -4  -9  -2   34.51    9.46
   4   9   2   33.76   14.91
   4   9   2   58.76   14.29
  -4  -9  -2   38.43    8.46
  -4  -9  -2   44.19   12.06
  -4  -9  -2   43.53   10.16
   1  -3  -9    9.59    7.38
   1  -3  -9    9.49    4.33
  -1   3   9   23.88    8.84
  -1   8  -4   25.06   10.44
  -1   8  -4   41.35    8.27
   1  -8   4   49.52   10.67
   1  -8   4   21.89    9.42
   1  -8   4   35.67    9.94
  -1   8  -4   40.83   10.82
  -1   8  -4   31.52    6.83
  -1   8  -4   39.68    4.55
  -2   8  -3    4.15    8.66
  -2   8  -3   18.52    5.67
   2  -8   3   12.17    6.71
   2  -8   3    1.85    6.93
   2  -8   3   11.88    9.38
  -2   8  -3    6.58    8.95
  -5   0 -10  298.55   44.82
  -5   0 -10  276.66   37.72
  -5   0 -10  284.08   34.84
   5   0  10  317.48   56.78
   5   0  10  284.28   42.45
  -5   0 -10  258.13   42.70
   5   0  10  305.83   54.27
   0  -1 -10    4.09    3.47
   0  -1 -10    4.95    5.60
   0   1  10    5.23    6.57
   0  -1 -10    2.96    3.27
   0  -1 -10    5.57    3.30
   0   1  10    9.54    3.55
   0   1  10    0.67    1.68
  -4  -9  -3    3.02    6.22
   4   9   3   10.83    5.32
   4   9   3   18.99    7.21
   4   9   3   13.68    6.39
  -4  -9  -3   21.11    7.85
  -4  -9  -3   33.54    8.91
  -4  -9  -3   26.12   10.12
  -7   1   1   68.95   12.05
   7  -1  -1   48.84   10.46
   7  -1  -1   66.04   13.24
  -7   1   1   67.43   16.33
  -7   1   1   61.37   12.74
  -2  -7  -8   94.57   17.15
  -2  -7  -8  118.93   28.22
  -2  -7  -8  133.41   23.27
   0   0  10  103.55   15.98
   0   0  10  103.58   12.64
   0   0 -10   84.04   18.84
   0   0 -10   94.04    9.70
   0   0  10   46.64   14.73
   0   0 -10   86.93   18.09
   0   0 -10  100.24   16.80
   0   0 -10   80.36   18.24
   3  -2  10   17.15    9.87
   3  -2  10   10.08    5.83
   3  -2  10   16.33    9.43
  -3   2 -10   14.19    5.66
  -3   2 -10   15.32    8.03
  -3   2 -10   13.31    8.21
  -3   2 -10   13.42    7.87
  -3   2 -10   29.32    7.45
  -3  -4   7   97.95   14.63
   3   4  -7   68.76   13.40
  -3  -4   7   92.54   13.18
  -3  -4   7  101.05   21.48
   3   4  -7  142.55   21.96
  -3  -4   7   74.70   15.49
   1  -7  -6   29.15    4.70
  -1   7   6   35.28    4.90
   1  -7  -6   37.03    6.67
   1  -7  -6   33.86   12.07
   1  -7  -6   39.67    7.13
   6   1  -4   64.37   12.99
  -6  -1   4   46.01   10.95
   6   1  -4   56.27   10.63
  -6  -1   4   75.55   14.43
  -6  -1   4   55.48    7.81
   6   1  -4   62.85   13.47
  -7   2  -6    3.98    6.20
  -7   2  -6   13.42    7.39
   7  -2   6   15.46    2.88
   7  -2   6    4.34    7.47
  -7   2  -6    8.72    8.27
  -7   2  -6   12.04    6.47
   7  -2   6   12.16    8.95
   7  -2   6   14.57    7.49
  -6   2   3   23.18    7.50
   6  -2  -3    6.51    6.91
   6  -2  -3    5.27    6.51
  -6   2   3    4.69    4.50
  -6   2   3   16.39    6.92
  -6   2   3    2.55    5.59
   6  -2  -3   11.03    5.35
   6  -2  -3   -0.40    4.65
  -7   2   0   12.18    8.72
  -7   2   0   17.96    9.26
   7  -2   0    2.56    6.34
   7  -2   0   31.68    7.72
   7  -2   0    2.05    9.25
   7  -2   0   16.77    6.15
   7   4   8   30.72    9.07
   7   4   8   21.96    7.76
  -7  -4  -8   24.51    6.11
  -7  -4  -8   17.66    7.98
  -7  -4  -8   34.04   10.35
  -7  -4  -8   13.84    5.76
   7   4   8   35.31   13.68
   1  -5  -8   11.43    5.66
  -1   5   8    4.37    6.65
   1  -5  -8    8.35    5.17
   1  -5  -8    1.03    6.00
   1  -5  -8   21.07   11.43
  -7  -6  -6  174.20   29.61
  -7  -6  -6  131.84   29.43
  -7  -6  -6  169.24   42.12
   7   6   6  135.06   25.72
   7   6   6  185.52   26.15
   7   6   6  164.33   26.36
   8   3   2  667.71   72.69
  -8  -3  -2  720.13   85.89
  -8  -3  -2  705.38   59.48
   8   3   2  714.80   66.11
  -8  -3  -2  729.34  118.11
  -8  -3  -2  749.16  134.35
   8   3   2  688.36  114.85
   5  -5  -2  421.07   48.82
   5  -5  -2  433.97   56.60
   5  -5  -2  418.99   65.17
  -5   5   2  325.99   49.11
  -5   5   2  394.67   33.44
  -5   5   2  400.65   59.72
  -5   5   2  420.41   48.70
   5  -5  -2  309.13   47.64
  -8  -1  -2   10.60    8.79
   8   1   2   14.58    7.35
  -8  -1  -2   23.72   10.95
  -8  -1  -2   15.43    9.76
   8   1   2   27.99    8.79
   8   1   2   12.59    7.55
  -8  -1  -2    0.56    8.43
   0   7  -6  358.26   39.04
   0  -7   6  343.12   46.89
   0  -7   6  325.55   40.36
   0  -7   6  296.75   48.41
   0   7  -6  333.07   47.03
   0   7  -6  359.46   54.49
  -8  -4  -4   71.51   14.08
  -8  -4  -4   60.88   14.12
  -8  -4  -4   55.71   14.11
  -8  -4  -4   82.11   11.31
   8   4   4   79.80   14.57
   8   4   4   70.67   12.02
   8   4   4   55.27   14.07
   4   8  -2  268.10   39.76
  -4  -8   2  286.43   23.85
   4   8  -2  264.91   34.41
  -4  -8   2  246.15   30.59
  -4  -8   2  293.70   46.14
   4   8  -2  301.76   33.50
  -2   4  -9    4.95    5.83
  -2   4  -9   -3.87    6.43
   2  -4   9   -3.11    5.31
  -2   4  -9    2.23    6.37
   2  -4   9   -4.13    3.93
  -2   4  -9    4.65    6.17
  -2   4  -9    3.74    4.54
   0  -6  -8  243.68   31.55
   0  -6  -8  201.37   22.79
   0  -6  -8  258.89   34.44
   0  -6  -8  249.35   37.72
   1  -7   6   -1.91    6.46
   1  -7   6    4.71    6.66
  -1   7  -6    7.71    6.36
  -1   7  -6   12.23    6.25
  -1   7  -6    4.25    5.15
   1  -7   6   -1.11    4.74
  -1   7  -6    7.23    5.82
  -7  -6  -1   24.38    8.92
   7   6   1   24.48    8.92
   7   6   1    5.96    8.73
   7   6   1   22.86   10.17
  -7  -6  -1   15.90   10.25
  -7  -6  -1   -1.34    8.09
  -3   7   3  375.40   34.13
  -3   7   3  378.57   34.92
  -3   7   3  378.86   47.96
  -3   7   3  377.61   39.18
   3  -7  -3  357.71   36.62
   3  -7  -3  363.08   37.69
   3  -7  -3  339.56   40.07
   3  -7  -3  429.60   55.65
   3  -7  -3  328.27   47.91
  -6  -2   4   27.59    4.85
   6   2  -4   16.78    8.20
   6   2  -4    8.32    8.71
  -6  -2   4    8.88    6.21
   6   2  -4   27.82    7.98
  -6  -2   4   18.81    8.56
  -6  -2   4   13.71    9.25
  -2  -6  -9    0.59    4.02
  -2  -6  -9   12.10    8.63
  -2  -6  -9   25.60    7.04
  -2  -6  -9   26.08   11.58
   0  -7  -7   25.95    9.66
   0  -7  -7   46.29    9.36
   0  -7  -7   23.39    5.63
  -1   4  -9   47.80   11.54
   1  -4   9   39.28   14.01
   1  -4   9   50.70   11.63
  -1   4  -9   13.38    9.16
  -1   4  -9   38.95   10.58
  -1   4  -9   40.56    9.07
  -5   2   5   44.48    7.46
  -5   2   5   49.68   11.41
   5  -2  -5   49.08    8.40
   5  -2  -5   35.34    8.51
   5  -2  -5   34.60   10.11
   5  -2  -5   17.61    9.02
  -5   2   5   37.57   11.65
  -5   2   5   32.00    6.10
   4  -3  -6    6.01    3.35
   4  -3  -6    1.82    5.49
   4  -3  -6   10.98    6.12
   4  -3  -6   12.76    9.69
   4  -3  -6    1.21    5.06
  -4   3   6   -8.84    6.40
  -4   3   6   -3.50    5.59
  -4   3   6    5.18    4.68
  -8  -4  -3  114.39   13.73
  -8  -4  -3  154.66   19.37
  -8  -4  -3  112.63   19.70
  -8  -4  -3  107.53   24.77
   8   4   3  102.90   17.26
   8   4   3  112.31   18.62
   8   4   3  132.26   25.70
  -1  -9  -4   34.48   10.55
   1   9   4   35.88    6.77
   1   9   4   33.75    5.04
  -1  -9  -4   24.90    4.34
  -1  -9  -4   35.07    9.13
  -1  -9  -4   24.47    7.11
  -5  -8  -6   42.16    9.61
  -5  -8  -6   35.94    6.44
  -5  -8  -6   28.66    8.44
  -5  -8  -6   22.61    8.55
   5   8   6   25.03    7.02
   5   8   6   24.68    7.26
   5   8   6   30.41    6.97
  -7   0  -8    4.52   11.58
  -7   0  -8   31.07    8.96
   7   0   8   38.48   11.33
   7   0   8   28.93    8.33
   7   0   8   23.76   14.15
  -7   0  -8   25.63    9.72
  -7   0  -8   26.82    9.41
  -8  -2  -6   26.68   10.37
  -8  -2  -6   11.73    7.95
  -8  -2  -6    7.91    8.46
   8   2   6   -7.62    5.69
  -8  -2  -6   -4.63    7.29
   8   2   6   16.55    9.43
   8   2   6    6.44    8.53
  -5   6  -2  261.44   40.11
   5  -6   2  165.91   28.85
   5  -6   2  192.33   22.09
   5  -6   2  206.09   25.81
   5  -6   2  202.39   22.62
  -5   6  -2  226.05   21.90
  -5   6  -2  230.45   33.05
  -5   6  -2  159.34   24.58
  -1   2 -10   12.83    9.19
   1  -2  10   25.28    6.21
   1  -2  10   18.62    5.75
   1  -2  10   28.09    8.22
  -1   2 -10   33.75    7.10
  -1   2 -10   24.16    7.67
  -1   2 -10   22.51   10.17
  -1   2 -10   37.28    8.08
  -4  -9  -1    6.76    8.53
  -4  -9  -1   10.67    8.53
   4   9   1   28.72    6.48
   4   9   1   48.27   11.76
  -4  -9  -1   14.99    7.00
   4   9   1   36.99    8.27
  -6  -6  -8  212.71   52.45
   6   6   8  322.54   39.05
   6   6   8  348.06   40.29
   6   6   8  323.07   49.32
  -6  -6  -8  381.21   55.49
  -6  -6  -8  322.56   51.37
  -6  -6  -8  352.86   44.81
   4  -7   1    6.37    8.48
   4  -7   1   -8.45    7.45
  -4   7  -1   14.64    9.04
  -4   7  -1   -1.32    7.69
  -4   7  -1    2.59    3.45
  -4   7  -1    8.36    7.19
   4  -7   1    4.13    8.71
   7   2  -2  125.06   22.70
   7   2  -2  122.96   31.27
  -7  -2   2  154.78   26.33
  -7  -2   2  160.31   27.92
   7   2  -2  154.66   23.46
  -7  -2   2  137.07   23.18
  -7  -2   2  134.57   22.61
   7  -3   3   60.35   13.87
   7  -3   3   75.80   13.71
  -7   3  -3  121.85   18.99
  -7   3  -3   90.94   17.78
  -7   3  -3   64.27   17.89
   7  -3   3   85.34   14.84
  -7   3  -3   91.28   16.53
   3   0  -8    4.26    3.97
  -3   0   8    1.38    3.65
  -3   0   8    2.61    5.65
   3   0  -8    4.76    4.48
  -3   0   8   -4.35    6.79
  -3   0   8    6.00    5.47
  -7  -1   2   27.98    8.21
  -7  -1   2   32.69    6.98
  -7  -1   2   40.40    9.39
   7   1  -2   17.34    9.35
   7   1  -2   11.55    8.91
   7   1  -2   26.09    9.01
  -8   0  -4   21.56    9.40
  -8   0  -4   12.94    8.51
  -8   0  -4   15.10    7.97
  -8   0  -4    9.01    6.13
   8   0   4   11.12    7.40
   8   0   4   23.22    9.24
   8   0   4   19.42    7.68
  -3  -8  -7   10.50    3.93
  -3  -8  -7    5.25    6.99
  -3  -8  -7    6.05    5.13
   3   8   7    9.47    2.92
  -3  -8  -7    3.43    8.65
  -3  -8  -7   14.28    3.64
   8   4   5    6.30    7.45
   8   4   5   32.37    7.19
  -8  -4  -5   22.44   11.05
  -8  -4  -5   26.97    8.19
  -8  -4  -5   27.46    9.75
   8   0   3  194.00   34.40
   8   0   3  236.61   38.46
   8   0   3  177.89   30.76
  -8   0  -3  267.91   38.72
  -8   0  -3  231.07   27.91
  -8   0  -3  254.20   24.02
  -8   0  -3  208.20   32.33
  -6   0   4  196.63   35.79
  -6   0   4  256.54   44.57
  -6   0   4  233.09   31.95
   6   0  -4  239.94   31.23
  -6   0   4  208.78   27.56
   6   0  -4  266.63   35.62
   6   0  -4  260.20   32.20
   4  -7   2  358.00   53.57
   4  -7   2  305.36   65.98
  -4   7  -2  368.80   52.27
  -4   7  -2  320.22   55.29
  -4   7  -2  352.53   39.31
  -4   7  -2  354.90   44.42
  -5   5  -6   54.43   17.77
   5  -5   6   77.76   19.45
   5  -5   6   95.49   14.33
  -5   5  -6  100.53   19.88
  -5   5  -6   86.39   12.33
  -5   5  -6  110.23   19.14
  -1  -9   2   15.67    7.54
  -1  -9   2    9.19   10.47
   1   9  -2   32.80   10.91
   1   9  -2   34.22   11.02
   1   9  -2   31.01    5.11
   1   9  -2   18.79    8.96
  -1  -9   2   25.43    8.41
   4   9   4  192.59   29.16
   4   9   4  210.86   30.60
  -4  -9  -4  228.22   40.08
  -4  -9  -4  192.46   23.02
  -4  -9  -4  169.32   30.50
  -4  -9  -4  217.44   20.99
   4   9   4  225.86   27.73
  -8  -3  -6   -1.27    6.76
  -8  -3  -6    1.86    5.94
   8   3   6  -11.44    9.96
   8   3   6   -7.14    5.20
  -8  -3  -6   11.57    7.54
   8   3   6   16.97    7.51
  -8  -3  -6    1.95    9.26
   0  -2 -10   50.83   10.31
   0   2  10   78.57   10.62
   0  -2 -10   53.02    8.44
   0  -2 -10   98.01   20.60
   0  -2 -10   67.23    9.91
   0  -2 -10   70.07   11.31
   5  -6   1   19.59    8.49
   5  -6   1   23.58    8.90
  -5   6  -1   33.54    7.17
  -5   6  -1   10.97    8.33
  -5   6  -1   46.37   11.09
   5  -6   1   30.92    6.53
   5  -6   1   16.74   10.06
  -5   6  -1   39.89    7.91
  -3  -1   8    2.04    6.07
  -3  -1   8   13.24    6.80
   3   1  -8    8.32    6.78
   3   1  -8   -6.01    6.06
  -3  -1   8    3.69    6.78
  -3  -1   8    1.62    6.48
   5   4  10   89.21   13.48
  -5  -4 -10   79.45   11.29
  -5  -4 -10   60.95    8.28
  -5  -4 -10   92.17   12.61
   5   4  10   53.82   10.49
  -5  -4 -10   58.14    8.17
   2   8  -4   -2.70    5.52
   2   8  -4    9.48    8.30
  -2  -8   4    0.42    1.74
   2   8  -4  -15.22    9.79
  -2  -8   4    6.38   12.20
  -2  -8   4    3.64    5.03
  -2  -8   4   -5.62    6.67
   0   9   3   33.76    8.20
   0  -9  -3   23.15    9.04
   0  -9  -3   22.71    9.22
   0  -9  -3   38.68    9.24
   0  -9  -3   29.16    5.24
   0   9   3   36.43   11.91
   0   9   3   40.67   10.08
  -3   5  -8    2.74    7.06
   3  -5   8    8.45    6.74
   3  -5   8    3.63    6.84
  -3   5  -8    4.26    5.84
  -3   5  -8    7.05    4.21
  -3   5  -8   -2.43    8.16
  -3   5  -8    5.87    4.13
   7  -3   2  162.79   20.50
  -7   3  -2  171.40   24.75
   7  -3   2  141.03   20.11
   7  -3   2  155.80   23.58
   7  -3   2  170.73   25.38
   7  -3   2  236.26   40.86
  -7   3  -2  165.29   23.52
  -7   3  -2  154.49   27.20
  -7   3  -2  174.00   21.72
   1   6  -7   44.29    9.64
   1   6  -7   33.58    6.05
  -1  -6   7   11.88    7.96
  -1  -6   7   22.83    8.97
   1   6  -7   38.17   18.93
   0   1 -10  560.92   74.67
   0   1 -10  610.49   57.67
   0   1 -10  614.80   36.87
   0   1 -10  568.76   84.17
   0  -1  10  577.55   64.75
   0  -1  10  620.60   83.82
   0  -1  10  591.07   84.37
   3  -5  -6   41.50   13.20
   3  -5  -6   34.70    7.59
   3  -5  -6   37.72    9.76
  -3   5   6   54.16    8.73
  -3   5   6   36.24   10.65
  -3   5   6   54.34   11.34
   3  -5  -6   55.79   11.19
  -3   5   6   48.74    9.12
  -4  -1   7   76.84   17.06
  -4  -1   7   58.87   14.01
  -4  -1   7   80.71   17.02
   4   1  -7   66.63   13.11
   4   1  -7   65.42   11.30
  -4  -1   7   77.44   11.37
  -4   6   3   -1.28    5.48
   4  -6  -3    6.93    4.58
   4  -6  -3   -5.10    6.86
  -4   6   3    1.74    7.54
  -4   6   3    6.71    6.02
  -4   6   3   -8.15    6.23
   4  -6  -3   -4.73    6.31
   4  -6  -3    9.78    6.95
  -5  -4   5  256.58   31.45
  -5  -4   5  232.27   34.59
   5   4  -5  223.12   39.47
   5   4  -5  203.60   27.42
   5   4  -5  214.95   25.90
  -5  -4   5  248.50   25.06
  -5  -4   5  285.67   44.04
  -6   1  -9  220.73   31.91
  -6   1  -9  206.24   21.31
  -6   1  -9  222.67   31.71
  -6   1  -9  201.20   28.55
   6  -1   9  280.03   37.37
   6  -1   9  210.21   24.51
   6  -1   9  250.23   41.06
   6  -1   9  216.48   26.96
   4   0  -7    8.65    4.21
  -4   0   7    2.95    7.23
  -4   0   7    4.18    7.75
  -4   0   7   10.19    5.68
   4   0  -7   12.45    6.61
   7  -3   4    8.40    6.33
   7  -3   4    1.39    4.32
  -7   3  -4    4.88    7.49
  -7   3  -4  -13.80   10.67
  -7   3  -4    6.79    4.59
  -7   3  -4   -0.06    6.91
   7  -3   4   -8.36    5.71
   7  -3   4    0.40    8.24
   5  -6   3  -10.58    6.96
   5  -6   3   18.14   10.52
   5  -6   3   -0.98    2.79
  -5   6  -3   -2.18    5.51
  -5   6  -3  -13.35   10.15
  -5   6  -3    4.40    3.08
   5  -6   3   -2.66    5.74
  -5   6  -3    2.15    6.48
   3   9  -1    9.13    6.75
   3   9  -1    3.30    6.30
   3   9  -1   11.10    8.73
  -3  -9   1  -11.39    8.54
  -3  -9   1    7.23    6.63
  -3  -9   1   -3.20    5.96
  -6   4   1   28.92   10.82
   6  -4  -1   32.40   10.75
  -6   4   1   46.59   11.10
   6  -4  -1   41.46    9.65
   6  -4  -1   41.70    7.27
   6  -4  -1   38.94   10.28
   6  -4  -1   16.83    7.25
  -3   7  -5   -2.57    5.63
  -3   7  -5    2.71    2.32
   3  -7   5    4.05    7.91
   3  -7   5  -15.31    8.55
  -3   7  -5   -2.39    6.93
   3  -7   5    4.20    6.78
  -3   7  -5   -4.53   11.00
  -2   7   5  291.79   37.11
  -2   7   5  297.44   40.17
  -2   7   5  310.79   33.24
   2  -7  -5  311.57   35.35
  -2   7   5  298.95   27.17
   2  -7  -5  349.11   27.56
   2  -7  -5  343.40   45.26
   2  -7  -5  345.92   33.32
   2  -7  -5  283.44   41.92
  -8  -1  -6   72.90   10.48
   8   1   6   56.26   11.16
   8   1   6   44.28   15.37
   8   1   6   60.99   15.65
  -8  -1  -6   31.28   10.15
  -8  -1  -6   58.16   11.44
   4  -7   0    0.57    6.14
  -4   7   0   -1.14    6.69
   4  -7   0   -6.58    8.75
   4  -7   0   -4.53    6.16
  -4   7   0   -0.39    8.46
  -4   7   0    8.37    3.75
  -4   7   0   21.80    9.43
  -3  -9  -5  130.84   18.82
  -3  -9  -5  105.18   19.23
  -3  -9  -5  111.67   26.02
   3   9   5  111.72   35.63
  -3  -9  -5  134.95   17.28
   3   9   5  150.33   26.85
  -3  -9  -5  143.70   28.24
   3   9   5  122.84   25.33
   3  -1  -8  206.38   33.36
  -3   1   8  156.91   30.16
  -3   1   8  167.64   30.43
  -3   1   8  163.03   17.23
   3  -1  -8  162.19   17.47
   3  -1  -8  178.22   20.70
  -4  -8  -7   79.78   10.60
   4   8   7   68.05   14.43
  -4  -8  -7   78.17   14.19
  -4  -8  -7   90.77   15.56
   4   8   7   80.85   10.53
   4   8   7  107.15   11.73
  -4  -8  -7   82.14   18.92
  -6  -8  -3   76.89   11.13
   6   8   3   99.01   20.94
  -6  -8  -3   78.10   15.99
  -6  -8  -3   66.88   11.29
  -6  -8  -3   47.57   14.93
   6   8   3  118.99   16.70
   6   8   3  103.93   16.72
  -8   0  -5   25.63    8.41
   8   0   5    9.73    9.10
   8   0   5    7.59    7.35
  -8   0  -5    4.95    6.82
   8   0   5   17.93    7.49
  -8   0  -5   10.66    9.11
  -6  -6   2   14.58    8.52
  -6  -6   2   -4.93    8.95
  -6  -6   2    5.80    2.89
   6   6  -2   -7.73    8.51
   6   6  -2    1.34    6.54
   6   6  -2    8.96    9.69
   0   9  -2    6.58    6.19
   0  -9   2    2.83    7.06
   0  -9   2    5.14    6.93
   0   9  -2   13.05    7.29
   0   9  -2    7.51    7.70
  -2  -8  -7  191.78   22.01
  -2  -8  -7  144.01   35.15
  -2  -8  -7  147.25   15.72
  -2  -8  -7  125.40   18.03
   2   8   7  118.80   13.07
  -2  -8  -7  172.51   22.68
   2   8   7  134.29   31.53
  -1  -3   9   83.24   12.18
   1   3  -9   43.36   12.29
   1   3  -9   71.59   12.23
  -1  -3   9   73.06   16.87
  -1  -3   9   62.75   12.14
  -1  -3   9   52.82   12.91
  -8  -2  -1   11.89    5.21
   8   2   1   -6.98    6.39
  -8  -2  -1    7.55    7.38
   8   2   1    6.68    7.23
  -8  -2  -1   15.86    8.26
   8   2   1    3.40    7.04
  -8  -2  -1   21.00    6.66
   1   7  -6    7.23    9.60
   1   7  -6    9.87    7.27
   1   7  -6   16.87    6.38
  -1  -7   6   10.51    8.47
  -1  -7   6   26.40    8.36
  -1  -7   6   18.37    5.98
  -3   4  -9  149.53   34.59
  -3   4  -9  204.96   17.92
   3  -4   9  145.66   36.30
  -3   4  -9  195.69   27.45
  -3   4  -9  120.60   39.30
  -3   4  -9  217.67   25.50
   3  -4   9  164.18   28.81
  -6  -5  -9    9.16    7.41
  -6  -5  -9   10.96    4.73
   6   5   9   23.84    6.15
  -6  -5  -9   12.34    7.11
   6   5   9   12.36    5.30
   6   5   9    1.34    6.91
  -3   6   5  475.62   54.20
  -3   6   5  449.87   77.27
  -3   6   5  447.29   44.94
   3  -6  -5  402.57   76.96
   3  -6  -5  430.59   40.54
   3  -6  -5  472.46   99.25
   3  -6  -5  407.50   50.98
   3  -6  -5  386.24   49.96
  -3   6   5  489.13   65.74
  -3  -5 -10   26.80    8.75
  -3  -5 -10   31.26    9.65
  -3  -5 -10   15.58    8.81
  -3  -5 -10   -6.82   10.37
  -7  -3   2  240.44   27.08
   7   3  -2  201.09   27.22
  -7  -3   2  271.03   43.04
  -7  -3   2  257.21   42.27
  -7  -3   2  246.05   42.63
   7   3  -2  187.56   37.10
  -6  -7  -7  648.94   94.93
   6   7   7  556.65   41.26
   6   7   7  600.62   79.91
  -6  -7  -7  574.41   90.67
   6   7   7  613.59  103.00
  -6  -7  -7  615.30   76.89
  -2  -9  -5   -2.50    4.45
  -2  -9  -5   -4.00    5.08
  -2  -9  -5    7.21    6.26
  -2  -9  -5   -5.69    5.24
  -2  -9  -5   -0.62    2.52
   2   9   5    5.00    3.68
   2   9   5    3.12    3.00
   1  -9   0   -8.99    6.40
   1  -9   0   -5.56    9.23
  -1   9   0    4.73    5.92
  -1   9   0    6.86   10.39
  -1   9   0    5.82    7.41
   1  -9   0   -1.76    5.24
   6   8   4   52.42   12.27
  -6  -8  -4   50.87    6.82
  -6  -8  -4   61.71   13.44
  -6  -8  -4   51.44   14.41
  -6  -8  -4   32.25    8.00
   6   8   4   75.85   13.75
   6   8   4   52.31   10.21
  -8  -4  -2  117.23   18.37
  -8  -4  -2   97.82   15.74
   8   4   2   74.10   12.91
  -8  -4  -2   99.07   18.45
  -8  -4  -2   87.74   15.31
   8   4   2  105.16   14.39
   8   4   2   90.44   16.76
  -8   0  -2  280.64   60.17
  -8   0  -2  314.07   33.36
  -8   0  -2  347.96   32.23
  -8   0  -2  347.74   38.00
   8   0   2  348.19   51.72
   8   0   2  296.91   39.63
   8   0   2  275.00   55.10
   2  -8  -3  309.51   38.79
  -2   8   3  289.49   29.07
  -2   8   3  316.88   38.48
   2  -8  -3  199.20   52.56
   2  -8  -3  305.55   44.63
  -2   8   3  318.05   64.72
  -6   4  -6    9.87    6.51
  -6   4  -6   13.80    6.25
  -6   4  -6    8.53    6.76
   6  -4   6    7.46    6.39
   6  -4   6   15.11   10.74
   6  -4   6    8.80    4.77
   6  -4   6    4.65    8.01
  -6   4  -6   19.89    7.09
  -5  -7  -8   25.42    4.96
  -5  -7  -8   14.70    5.87
   5   7   8   15.00   10.77
   5   7   8   19.64    5.05
  -5  -7  -8   34.80    8.78
   5   7   8   21.83    4.59
  -5  -7  -8   37.84    5.85
   2   9  -2   28.64   11.27
  -2  -9   2   54.27   10.98
  -2  -9   2   48.90    9.86
   2   9  -2   37.09    8.16
   2   9  -2   41.04   11.91
  -2  -9   2   51.36    6.20
   6   3  -4  317.62   35.21
   6   3  -4  269.83   34.42
  -6  -3   4  257.51   33.72
  -6  -3   4  336.92   39.35
  -6  -3   4  325.23   37.33
  -5  -6  -9   66.23   23.64
   5   6   9   54.14   11.87
  -5  -6  -9   86.74   12.92
  -5  -6  -9   76.60   11.06
   5   6   9   93.83    9.60
   5   6   9  101.40   10.30
   7   0  -2   -0.82    5.43
  -7   0   2    2.11    9.37
   7   0  -2    0.73    6.49
  -7   0   2   10.47    6.78
  -7   0   2    6.03    4.60
  -4   7  -3  314.72   40.75
   4  -7   3  313.56   43.34
  -4   7  -3  357.51   33.48
  -4   7  -3  310.56   52.53
  -4   7  -3  344.36   53.16
  -1  -4 -10   16.63    9.11
  -1  -4 -10   -8.54    7.37
  -1  -4 -10   10.09   11.44
  -1  -4 -10   33.14   12.86
   2   0  -9  147.32   21.28
   2   0  -9  176.42   30.20
   2   0  -9  185.47   32.26
   2   0  -9  181.39   21.07
  -2   0   9  193.04   23.19
  -2   0   9  161.87   29.00
  -2   0   9  196.42   28.01
  -2   0   9  176.43   25.70
  -6  -5   3  342.18   54.00
  -6  -5   3  344.96   35.61
   6   5  -3  300.81   35.36
   6   5  -3  301.85   51.30
  -6  -5   3  363.18   61.58
  -6  -5   3  330.05   55.10
   2   4  -8   -1.54    6.79
  -2  -4   8   -3.44    6.02
  -2  -4   8    1.75    9.41
   2   4  -8    0.53    9.37
  -2  -4   8    1.33    6.61
  -2  -4   8   -6.04    4.94
  -4  -5 -10    5.21    1.08
  -4  -5 -10    0.61    5.42
  -4  -5 -10   12.26    6.62
  -4  -5 -10  -15.58    6.41
   4   5  10    4.07    0.99
   4   5  10    5.94    1.49
  -4  -5 -10    3.07    1.17
   1  -9  -1    0.06    7.02
   1  -9  -1    1.68    7.64
  -1   9   1   -2.87    6.03
  -1   9   1   11.64    6.99
  -1   9   1   23.40    8.26
   1  -9  -1    8.86    8.22
  -4   6  -6   10.94    9.21
   4  -6   6   21.36   10.46
   4  -6   6   11.68    8.27
   4  -6   6   20.66    7.17
  -4   6  -6   14.99    6.39
  -4   6  -6   23.71   10.35
  -4   6  -6   15.05    5.98
  -8  -1  -1  601.81   62.36
   8   1   1  570.48   83.23
   8   1   1  598.24  100.58
   8   1   1  654.94   87.86
  -8  -1  -1  574.95  105.74
  -8  -1  -1  662.62   62.96
  -8  -1  -1  554.13   95.44
  -4   2 -10  277.65   34.93
  -4   2 -10  253.16   35.71
  -4   2 -10  219.70   30.62
  -4   2 -10  226.55   34.68
   4  -2  10  238.64   36.84
   4  -2  10  228.56   30.13
  -4   2 -10  215.93   19.85
  -2   7  -6   -3.39    8.34
  -2   7  -6   -0.79    5.35
  -2   7  -6    4.14    7.42
  -2   7  -6    0.33    2.95
   2  -7   6    8.56    7.93
   2  -7   6    0.16    5.62
   2  -7   6   12.96    8.10
  -5   6   0    7.83    6.55
   5  -6   0    4.01    6.81
   5  -6   0    1.24    2.43
  -5   6   0    0.50    5.17
  -5   6   0   -1.05    6.71
   5  -6   0   -6.04    7.45
  -5   6   0    7.57    4.43
   5  -6   0   -7.71    6.28
   0  -5  -9    4.52    5.95
   0  -5  -9    4.82    6.73
   0  -5  -9    5.23    5.83
   0  -5  -9    3.25    5.32
   2  -4  -8   25.08    9.39
   2  -4  -8   11.22    5.05
  -2   4   8   11.33    5.66
  -4  -2   7  654.59   86.69
  -4  -2   7  493.42   99.12
   4   2  -7  447.34   81.98
   4   2  -7  567.23   80.43
  -4  -2   7  598.42   80.38
  -4  -2   7  574.33  103.24
   6   8   2  -19.80    9.45
   6   8   2    6.88    6.95
   6   8   2    7.15    8.25
  -6  -8  -2   -2.21    5.44
  -6  -8  -2    1.71    7.74
  -6  -8  -2   -9.61    4.90
  -8  -3  -1   38.66   13.84
  -8  -3  -1   36.80   10.18
   8   3   1   14.52    8.00
   8   3   1   51.41   15.14
   8   3   1   37.28   10.85
  -8  -3  -1   62.77   14.06
  -8  -3  -1   57.46    9.61
   0   4  -9    4.64    7.27
   0   4  -9   18.90    9.60
   0  -4   9    4.09    6.09
   0  -4   9   13.61    8.10
   0  -4   9   18.58    7.40
   0   4  -9   11.70    2.34
   8   4   6    8.75    5.92
   8   4   6   18.19   10.98
   8   4   6    3.00    6.00
  -8  -4  -6  -13.54    9.83
  -8  -4  -6    3.99    6.91
  -4  -6   5   73.35   17.55
  -4  -6   5   84.43   15.13
  -4  -6   5   56.12   14.66
   4   6  -5   47.61   15.33
   4   6  -5   91.75   17.75
   3   2  -8   20.07    6.87
  -3  -2   8   37.28   10.62
  -3  -2   8   10.77    8.60
  -3  -2   8   45.36   10.93
  -3  -2   8   31.60   12.00
   3   2  -8   33.25    7.97
  -5   1 -10   -4.05    6.04
  -5   1 -10    2.50    9.09
   5  -1  10   -1.12    5.49
   5  -1  10    1.87    5.98
   5  -1  10   -2.52    5.39
  -5   1 -10    4.36    5.98
  -5   1 -10   10.55    5.91
  -5   1 -10    0.84    5.38
   4  -1  -7  283.61   36.80
   4  -1  -7  283.62   48.21
   4  -1  -7  276.11   51.42
  -4   1   7  326.62   49.08
  -4   1   7  284.24   41.11
  -4   1   7  230.85   36.56
   1  -9   1    7.45    5.82
  -1   9  -1    0.84    9.38
  -1   9  -1   -0.23    6.83
  -1   9  -1    3.03    6.09
   1  -9   1   -2.04    7.01
   4   9   0   27.72    8.57
  -4  -9   0   37.00   10.69
  -4  -9   0   42.30    8.57
   4   9   0   40.96   12.14
   4   9   0   37.56    8.33
  -3   6  -7   28.06    8.93
  -3   6  -7   31.97   10.44
  -3   6  -7   18.18    6.24
   3  -6   7   13.85    6.46
   3  -6   7   27.62    9.29
   3  -6   7   35.51   10.83
  -5  -8   1   63.82   27.27
   5   8  -1   43.84   11.62
   5   8  -1   68.55   14.53
   5   8  -1   19.84    8.17
  -5  -8   1   47.63   10.15
  -5  -8   1   43.60   15.43
   7  -3   1   44.57    9.60
   7  -3   1   44.54   12.89
   7  -3   1   65.34   13.39
  -7   3  -1   46.06   11.18
  -7   3  -1   45.47   16.45
  -7   3  -1   56.56   11.95
   7  -3   1   52.51    6.66
   2  -1  -9  172.65   24.03
   2  -1  -9  119.12   19.16
   2  -1  -9  146.51   16.50
  -2   1   9  150.19   21.67
  -2   1   9  132.61   16.33
  -2   1   9  176.40   21.08
   3   1  11    8.74    4.56
  -3  -1 -11    0.42    4.26
  -3  -1 -11    4.73    6.46
  -3  -1 -11    2.69    7.71
  -3  -1 -11    1.91    3.25
   3   1  11    0.11    2.53
   1   5  -8   16.04    3.38
  -1  -5   8   16.83    5.66
  -1  -5   8    6.80    6.94
   1   5  -8   12.02   11.02
  -1  -5   8   25.72    8.09
  -2  -1   9   -2.02    6.96
  -2  -1   9  -11.45    5.12
  -2  -1   9   -9.70    6.99
  -2  -1   9   -1.13    4.15
   2   1  -9   -0.78    3.36
   2   1  -9   -4.29    4.63
   7   7   4  164.91   23.75
   7   7   4  222.53   30.88
  -7  -7  -4  225.28   29.87
  -7  -7  -4  226.90   30.38
   7   7   4  176.19   25.42
  -4  -7   4  146.46   22.08
   4   7  -4  154.86   21.79
   4   7  -4  193.23   26.10
  -4  -7   4  136.16   21.15
  -4  -7   4  179.12   16.92
   4   7  -4  152.42   30.05
   7   5  -1   23.93   10.29
   7   5  -1   21.35    9.42
   7   5  -1   39.63   11.30
  -7  -5   1   16.10    9.35
  -7  -5   1   35.99   11.92
  -7  -5   1   46.41    9.53
  -1  -7  -8    4.03    7.06
  -1  -7  -8    4.84    5.94
  -1  -7  -8   -1.73    6.02
  -3   8  -1   -3.77    4.98
   3  -8   1   -7.02    6.65
  -3   8  -1    4.75    6.77
  -3   8  -1    3.41   16.49
   3  -8   1    4.42    6.94
  -6  -2 -10  404.83   96.62
  -6  -2 -10  436.74   43.22
  -6  -2 -10  409.91   35.72
  -6  -2 -10  458.69   35.61
   6   2  10  415.90   96.85
   6   2  10  356.55   84.24
   6   2  10  483.72   67.11
   7   7   3   98.50   14.78
  -7  -7  -3   95.68   14.16
  -7  -7  -3   79.74   11.76
   7   7   3   74.16   17.32
   7   7   3   81.68   12.59
  -6   5  -2  328.48   41.43
   6  -5   2  355.92   48.94
   6  -5   2  365.01   75.19
  -6   5  -2  354.80   54.96
   6  -5   2  288.57   48.46
  -6   5  -2  308.91   29.41
  -7   3  -5   48.59   10.31
   7  -3   5   46.09    8.55
   7  -3   5   47.18   13.94
  -7   3  -5   40.19   13.29
  -7   3  -5   71.70   25.01
  -7   3  -5   45.99   10.51
   7  -3   5   59.61   13.79
  -3  -2 -11   66.89   14.47
   3   2  11  111.65   12.89
  -3  -2 -11   91.82   10.82
  -3  -2 -11   76.82   19.99
  -3  -2 -11   78.66   11.14
  -6   1   4   68.53   13.92
   6  -1  -4   84.67   12.64
   6  -1  -4  102.93   12.69
   6  -1  -4   62.19   12.07
  -6   1   4  105.95   14.43
  -6   1   4  101.30   15.90
  -6   1   4   96.85   19.56
   6  -1  -4   68.82   14.37
   7   5   8   77.63   15.92
   7   5   8   96.75   14.70
  -7  -5  -8   77.45   14.93
  -7  -5  -8   55.49   11.18
  -7  -5  -8   55.93   10.20
  -7  -5  -8   58.92    9.93
   7   5   8   30.51   13.08
  -3   4   7   15.01    8.07
  -3   4   7   19.67    4.42
   3  -4  -7   20.00    4.12
  -3   4   7   22.54    5.36
   3  -4  -7    6.49    4.37
   3  -4  -7   17.19    6.19
   3  -4  -7   15.58    5.56
   2  -8   4   57.53   12.24
  -2   8  -4   33.13   11.54
  -2   8  -4   63.67    7.47
  -2   8  -4   69.97   13.97
   2  -8   4   76.08   13.27
  -2   8  -4   46.19   11.30
  -2   8  -4   63.97   10.00
  -3  -6   6  102.57   25.22
   3   6  -6  126.62   21.96
   3   6  -6  147.03   21.72
  -3  -6   6  151.68   29.02
  -3  -6   6  104.92   22.48
  -5   6  -4 1273.34  152.96
   5  -6   4 1232.06  155.37
  -5   6  -4 1234.76   87.25
  -5   6  -4 1267.05  215.04
   5  -6   4 1360.65  116.68
  -5   6  -4 1189.97  159.63
   3   7  -5  105.33   16.38
   3   7  -5  120.34   15.46
  -3  -7   5  108.76   17.83
  -3  -7   5  109.86   20.19
  -3  -7   5  104.33   23.68
  -3  -7   5  127.75   14.62
   6  -5   3   23.61    9.98
   6  -5   3   25.76    9.42
   6  -5   3   34.03    6.53
  -6   5  -3   26.75   11.15
  -6   5  -3   30.15   13.05
  -6   5  -3   23.96    6.44
  -6   5  -3   14.57   10.21
   0  -8  -6   16.74   10.40
   0  -8  -6    5.75    2.63
   0  -8  -6    3.02    6.04
   0  -8  -6    7.89    3.57
   0  -8  -6    9.44    2.70
   0   8   6   11.13    2.55
   4   9   5   24.81    7.77
   4   9   5   13.11    6.25
  -4  -9  -5   18.75    5.86
  -4  -9  -5   12.19    5.95
  -4  -9  -5   14.06    9.88
  -4  -9  -5    7.14    8.23
   4   9   5    8.03    6.15
  -8  -5  -4   36.13   11.67
  -8  -5  -4   32.51   12.05
   8   5   4   27.08    8.25
   8   5   4   -8.26   13.87
   8   5   4   40.22    9.42
  -7  -6  -7  275.88   45.43
  -7  -6  -7  280.76   55.43
  -7  -6  -7  355.42   35.67
   7   6   7  311.43   41.75
   7   6   7  329.74   34.34
   7   6   7  285.92   39.17
   3  -8   0  224.99   90.46
   3  -8   0  260.71   31.15
  -3   8   0  209.86   27.09
  -3   8   0  288.47   32.34
  -7  -2  -9  -17.49   19.86
  -7  -2  -9  -11.80    6.97
  -7  -2  -9    7.64    8.62
  -7  -2  -9   -3.81    7.48
   7   2   9   -8.20    6.83
   7   2   9    5.09    6.48
  -6  -8  -5   18.04    7.30
  -6  -8  -5   21.17    6.15
   6   8   5   14.48    9.13
   6   8   5   42.51   10.40
  -6  -8  -5   13.66    8.44
  -6  -8  -5   27.84    8.65
   6   8   5   31.42    9.78
  -6  -7   1  145.01   28.18
   6   7  -1  199.21   30.73
   6   7  -1  227.44   22.75
   6   7  -1  205.14   33.52
  -6  -7   1  251.91   33.29
  -6  -7   1  223.82   28.28
  -2  -5 -10  170.99   25.07
  -2  -5 -10  178.37   27.65
  -2  -5 -10  157.88   32.65
  -2  -5 -10  146.31   38.87
   0  -3 -10   12.38    8.09
   0  -3 -10   13.26    8.64
   0  -3 -10   21.70    8.63
  -5  -1   6   12.52    8.14
  -5  -1   6   20.91    7.03
  -5  -1   6   21.33    9.78
  -5  -1   6    5.76    9.48
   5   1  -6   11.58    9.07
   5   1  -6    4.18    8.40
   5   1  -6    8.43    7.00
  -4   7   1   21.46   12.86
  -4   7   1   58.06   11.71
  -4   7   1   69.60   16.28
   4  -7  -1   33.23    9.14
   4  -7  -1   41.87    4.73
   4  -7  -1   32.03   12.13
   4  -7  -1   57.18   11.03
  -4   7   1   61.15   10.67
  -7  -6   0    3.53    7.22
   7   6   0   -2.75    5.76
   7   6   0   -2.72    6.29
   7   6   0    5.18    6.66
  -7  -6   0   -0.11    6.59
   5  -4  -4   36.52    8.62
  -5   4   4   41.46   10.22
  -5   4   4   41.53    8.03
   5  -4  -4   46.61   10.38
  -5   4   4   47.83   11.04
  -5   4   4   47.23   10.05
   5  -4  -4   22.76    7.01
   5  -4  -4   30.76   11.03
   5  -4  -4   34.36   10.28
  -6  -1 -10  297.00   25.55
   6   1  10  292.08   39.96
   6   1  10  217.96   37.91
   6   1  10  216.51   27.65
  -6  -1 -10  254.11   25.04
  -6  -1 -10  215.69   29.59
  -6  -1 -10  253.01   26.05
  -8  -2  -7   -5.25    4.86
   8   2   7  -10.77    8.79
   8   2   7   -1.29    8.25
   8   2   7    5.81    6.70
  -8  -2  -7   19.09    9.08
  -8  -2  -7    7.25    8.62
   2   1  11   78.24   15.04
   2   1  11   84.57   17.26
  -2  -1 -11   41.55   14.89
  -2  -1 -11   68.78   18.52
  -2  -1 -11   55.64   14.63
  -2  -1 -11   58.81   17.28
  -6  -3 -10   16.62    7.99
   6   3  10   22.14    9.12
   6   3  10   32.24   10.21
  -6  -3 -10   17.29    7.59
  -6  -3 -10   14.45    8.83
   1  -8  -5   59.07    7.81
  -1   8   5   60.16   11.14
  -1   8   5   74.57   12.62
  -1   8   5   56.08    9.08
   1  -8  -5   63.89   13.03
   1  -8  -5   74.26   19.44
   1  -8  -5   60.12   12.85
  -8  -5  -3  709.65   74.76
   8   5   3  593.43   98.66
  -8  -5  -3  565.29   78.07
   8   5   3  633.68  138.82
   8   5   3  650.92   96.31
  -1  -6  -9   57.76   14.28
  -1  -6  -9   48.51   12.78
  -1  -6  -9   63.09   13.52
  -1  -6  -9   77.44   14.13
   0   8  -5    3.02    5.97
   0  -8   5   24.45   13.58
   0  -8   5    3.74    6.39
   0  -8   5    1.48    7.55
   0   8  -5    7.64    7.02
   0   8  -5    8.95    5.78
   0   8  -5    7.89    5.72
  -3   8  -2  167.43   22.04
   3  -8   2  182.84   25.02
   3  -8   2  168.06   19.49
  -3   8  -2  192.16   18.59
  -3   8  -2  140.11   36.97
  -7   2  -7    6.96    5.83
   7  -2   7    7.01    6.21
   7  -2   7   -0.40    5.88
   7  -2   7    3.76    3.63
   7  -2   7    3.83    9.36
  -7   2  -7    3.61    7.25
  -7  -3  -9    9.75    6.66
  -7  -3  -9   14.59    7.62
  -7  -3  -9    6.23    6.81
   7   3   9    2.61    6.42
   7   3   9   12.74    8.10
  -7   2   1   55.22   16.17
   7  -2  -1   46.15   10.50
   7  -2  -1   56.27   10.90
   7  -2  -1   54.23   11.80
  -7   2   1   72.82   11.47
  -7   2   1   53.35   11.50
   8   0   6    0.11    7.94
  -8   0  -6   -1.33    5.22
  -8   0  -6   -6.77    6.83
   8   0   6    2.80    7.40
  -8   0  -6    2.57    7.35
   8   0   6    8.69    7.06
   1  -9  -2  246.93   25.63
   1  -9  -2  179.77   27.23
   1  -9  -2  249.65   41.00
  -1   9   2  238.81   39.32
  -1   9   2  202.49   26.92
   7   7   5  195.65   24.09
   7   7   5  191.22   25.97
   7   7   5  175.44   29.81
  -7  -7  -5  196.93   20.88
  -7  -7  -5  161.65   22.66
  -4  -2 -11   -4.27    8.68
   4   2  11   -2.02    3.44
   4   2  11    6.22    2.88
  -4  -2 -11    0.45    3.40
  -4  -2 -11   -0.36    3.26
  -4  -2 -11    7.74    5.61
  -8  -5  -5    4.38   10.09
   8   5   5   -2.40    5.86
   8   5   5    2.92    7.71
  -8  -5  -5   -7.34    5.63
  -1   4   9   26.48    8.77
   1  -4  -9   30.41    7.65
   1  -4  -9   24.63    8.50
   8   3   7   25.18    9.14
   8   3   7   21.01    7.38
  -8  -3  -7    9.79    9.94
  -8  -3  -7   29.96    6.21
  -2   3 -10  133.61   18.58
  -2   3 -10  134.54   23.18
  -2   3 -10  141.03   25.83
   2  -3  10  139.47   19.05
   2  -3  10  134.34   19.84
   2  -3  10  150.12   32.95
  -2   3 -10  131.96   21.28
  -2   3 -10  124.80   23.53
  -3   0 -11   28.19    8.48
  -3   0 -11   24.78    7.33
   3   0  11   44.65   10.40
  -3   0 -11   50.01   11.78
  -3   0 -11   21.53    7.27
   3   0  11   36.78    7.53
   3   0  11   59.73   11.39
  -3   0 -11   25.29   11.99
   0   2 -10    8.49    5.81
   0   2 -10   19.66    3.80
   0   2 -10   25.03    7.71
   0  -2  10   15.98    5.29
   0  -2  10   19.49    8.48
  -4  -1 -11   -1.22    3.13
  -4  -1 -11    1.44    7.92
  -4  -1 -11    2.43    4.43
   4   1  11    0.22    2.99
  -4  -1 -11   -5.78   10.32
  -4  -1 -11  -13.40    7.86
   4   1  11   -4.39    3.94
  -7   1  -8    1.55    9.24
  -7   1  -8    2.22    6.57
   7  -1   8   -7.04    8.08
   7  -1   8   -0.61    8.31
   7  -1   8    7.07    5.31
   6  -5   1   22.63    5.71
   6  -5   1   20.03    8.85
  -6   5  -1    3.47    8.62
  -6   5  -1   31.97    6.71
   6  -5   1   47.65    9.35
  -6   5  -1   20.03    8.18
  -5   0   6   50.76    8.89
   5   0  -6   38.58   10.61
   5   0  -6   22.29   10.22
   5   0  -6   32.97    9.76
  -5   0   6   54.90   12.35
  -5   0   6   18.22    9.39
   3  -2  -8   53.11   10.21
  -3   2   8   47.11   12.40
  -3   2   8   50.49    7.46
  -3   2   8   62.96   11.50
   3  -2  -8   49.61    8.17
   3  -2  -8   52.79    9.50
  -5   4  -8    3.06    7.23
  -5   4  -8   -2.50   10.15
   5  -4   8    1.83    5.20
   5  -4   8   -6.85   10.78
  -5   4  -8    8.98    5.67
   8  -1   4  212.54   55.09
  -8   1  -4  205.16   36.78
  -8   1  -4  256.73   28.80
   8  -1   4  266.97   31.24
   8  -1   4  163.79   28.86
  -8   1  -4  169.49   29.95
  -2  -2 -11   45.58    5.97
  -2  -2 -11   28.77    5.51
   2   2  11   38.64    6.22
  -2  -2 -11   53.97   11.83
  -2  -2 -11   18.70    9.94
   2   2  11   46.96    5.85
  -8   1  -3   97.36   15.18
   8  -1   3   94.08   23.61
   8  -1   3   77.04   19.15
  -8   1  -3   93.65   15.59
   8  -1   3   78.26   32.34
  -8   1  -3   84.64   18.42
   7   1   9   12.07    8.13
   7   1   9   -5.74    7.38
   7   1   9   -3.54    5.05
  -7  -1  -9    7.35    7.83
  -7  -1  -9   -1.36    7.05
  -5  -6   4   63.64   14.81
   5   6  -4   67.49   10.36
   5   6  -4   42.23    9.66
  -5  -6   4   55.51   11.91
  -5  -6   4   39.72    5.51
  -5  -6   4   48.01    9.92
  -7  -7  -2    8.91    7.89
   7   7   2   11.26    7.92
   7   7   2   -1.13    6.48
   7   7   2    4.70    8.99
  -7  -7  -2   -7.94    6.89
  -5  -9  -3  106.98   14.62
  -5  -9  -3   82.32   14.98
   5   9   3   87.91   18.70
  -5  -9  -3  102.81   18.83
   5   9   3  120.01   20.08
   5   9   3   62.76   12.87
  -1  -9  -5   64.95   12.47
  -1  -9  -5   90.14   14.43
  -1  -9  -5   82.15   15.36
   1   9   5   66.02   11.56
   1   9   5   85.97   17.46
  -1  -9  -5   91.00   18.02
  -1  -9  -5   73.71   13.29
   0  -9  -4   92.33   14.81
   0  -9  -4   45.80   10.24
   0  -9  -4   61.00    8.46
   0  -9  -4   70.38   12.24
   0   9   4   64.92   13.09
   0   9   4   59.05   10.75
   8   0   1  329.12   43.84
  -8   0  -1  321.23   61.03
  -8   0  -1  322.12   46.70
  -8   0  -1  349.04   50.36
  -8   0  -1  341.28   40.87
   8   0   1  295.90   33.51
  -5   3  -9   -4.45    7.85
   5  -3   9   10.13    6.15
   5  -3   9   -2.00    6.45
  -5   3  -9    0.00    4.22
   5  -3   9    5.88    6.58
  -5   3  -9   10.31    6.65
  -5   3  -9    5.21    8.05
   5   2  -6   61.32   12.11
  -5  -2   6   49.62   10.31
  -5  -2   6   46.55   15.20
  -5  -2   6   48.23   11.55
   5   2  -6   49.28   22.52
  -5  -2   6   62.08    9.61
  -6  -8  -1   18.14   10.59
   6   8   1    3.59   10.46
   6   8   1    8.88    9.48
   6   8   1   16.99    7.15
  -6  -8  -1   12.49    7.50
   2   0  11   -0.44    3.54
  -2   0 -11   11.60    8.09
  -2   0 -11    1.05    4.83
  -2   0 -11    9.19    3.25
  -2   0 -11    5.97    8.03
  -2   0 -11    0.53    4.52
   2   0  11   -6.14    6.57
   2   0  11    5.94    5.89
  -6   5  -4    5.46    9.67
  -6   5  -4   15.28    5.48
   6  -5   4   21.70    8.86
   6  -5   4   13.85    3.69
   6  -5   4   15.33    8.85
  -6   5  -4   20.92    7.73
   7   4  -2   38.95   10.27
  -7  -4   2   21.78    4.44
  -7  -4   2   29.72    8.37
  -7  -4   2   34.03   12.63
  -7  -4   2   28.09   11.74
   1  -9   2   11.77    6.32
  -1   9  -2    8.10    6.21
  -1   9  -2    0.34   11.53
  -1   9  -2   10.68   11.12
   1  -9   2    0.40    5.89
   4  -7   4  236.27   18.76
  -4   7  -4  178.91   19.37
  -4   7  -4  193.63   30.90
  -4   7  -4  184.41   35.07
  -4   7  -4  185.62   24.26
  -3  -3 -11   40.04    7.19
   3   3  11   62.82    8.10
  -3  -3 -11   58.86    6.84
  -3  -3 -11   53.16   13.90
   3   3  11   53.22    6.08
  -8  -4  -1    3.05    3.07
  -8  -4  -1    5.86    7.25
  -8  -4  -1    3.64    5.48
  -8  -4  -1   -5.22    9.62
   8   4   1    2.45    7.34
  -8  -4  -1    2.23    7.82
   8   4   1   17.38    9.56
  -5  -8  -7  110.64   18.72
  -5  -8  -7   86.40   15.96
  -5  -8  -7  109.47   18.67
  -5  -8  -7   76.90   20.66
   5   8   7   94.66   20.25
   5   8   7  111.43   13.70
   5   8   7  102.31   20.18
  -5  -5 -10   59.63   13.41
  -5  -5 -10   35.21    7.47
  -5  -5 -10   43.33    6.97
  -5  -5 -10   61.20   11.86
   5   5  10   32.28    5.21
  -8  -1  -7   16.85    8.55
   8   1   7    4.63    8.36
  -8  -1  -7   18.78   10.91
   8   1   7   24.07    9.28
   4   5  -6  115.31   21.52
  -4  -5   6  116.93   19.81
  -4  -5   6  107.59   21.86
   4   5  -6  160.30   19.74
  -4  -5   6  102.47   26.43
   5   9   2   -0.75    7.09
  -5  -9  -2    0.67    5.26
   5   9   2    3.23    7.05
   5   9   2   -2.75    5.94
  -5  -9  -2   -1.79    6.98
  -5  -9  -2    2.24    5.06
   1   8  -5   26.28    9.52
  -1  -8   5   43.33   12.70
   1   8  -5   22.81    7.15
  -1  -8   5   37.19   10.29
   1   8  -5    9.79   19.74
   1   8  -5   23.00    7.91
   2  -2  -9  303.51   42.85
  -2   2   9  292.40   33.34
   2  -2  -9  284.16   28.63
   2  -2  -9  326.67   39.00
  -2   2   9  277.10   37.66
  -5  -7   3  120.92   18.39
  -5  -7   3  123.16   15.64
  -5  -7   3  131.86   21.63
   5   7  -3  166.74   30.43
   5   7  -3  129.97   29.56
   3  -8  -1    6.86    8.51
  -3   8   1    1.44    6.58
  -3   8   1    2.56    5.07
   3  -8  -1    3.57    5.40
   3  -8  -1   -8.06    7.24
   1  -8   5  115.00   29.04
  -1   8  -5  165.89   32.14
   1  -8   5  124.84   19.82
   1  -8   5  179.22   26.06
  -1   8  -5  111.52   23.22
  -1   8  -5  141.88   22.55
  -1   8  -5  177.76   18.70
   7  -1  -2    0.66    4.77
   7  -1  -2    2.45    6.39
  -7   1   2    3.42    6.65
  -7   1   2   -0.90    6.08
  -7   1   2    3.49    5.47
   1   8   7    0.06    1.17
  -1  -8  -7    2.83    3.75
  -1  -8  -7   -0.74    1.40
  -1  -8  -7    0.77    1.78
  -1  -8  -7    2.56    5.68
  -1  -8  -7    2.10    6.07
   1   8   7    2.70    1.31
  -3   3 -10  159.71   24.10
   3  -3  10  140.30   19.99
   3  -3  10  131.43   22.54
  -3   3 -10  168.81   19.87
   3  -3  10  124.76   18.17
  -3   3 -10  166.56   23.76
  -3   3 -10  134.50   15.99
   1   9  -3   15.70    6.09
   1   9  -3   16.53    6.76
   1   9  -3   15.02   10.18
  -1  -9   3   18.71    9.29
   1   9  -3   35.01   12.01
  -1  -9   3   16.72    6.18
  -5   5   3   15.88    7.04
  -5   5   3    1.45    4.80
   5  -5  -3    0.00    4.85
   5  -5  -3    2.75    4.58
  -5   5   3    8.47    7.40
   5  -5  -3    2.76    5.81
  -5   5   3   -3.41    6.47
   5  -5  -3   17.42    8.29
   5  -5  -3    3.52    5.08
   6  -3  -3   -0.47    4.45
   6  -3  -3    3.64    6.86
   6  -3  -3    3.40    6.09
  -6   3   3    8.23    6.51
  -6   3   3    6.88    7.52
   6  -3  -3    2.10    3.99
  -6   3   3   10.83    9.95
   6  -3  -3  -10.47    4.90
  -2  -2   9    5.22    6.79
  -2  -2   9    3.88    5.48
   2   2  -9    5.02    5.53
  -2  -2   9    2.69    5.04
   2   2  -9   10.34    5.31
  -5   3   5  372.13   53.92
  -5   3   5  415.31   42.29
   5  -3  -5  366.00   69.53
   5  -3  -5  316.92   35.96
   5  -3  -5  353.49   66.30
   5  -3  -5  407.71   57.73
   5  -3  -5  458.37   49.99
  -5   3   5  413.44   59.58
  -1   3 -10   54.34    9.84
  -1   3 -10   50.67    9.58
  -1   3 -10   47.98   10.39
  -1   3 -10   97.56   18.73
   1  -3  10   72.68   10.77
  -1   3 -10   81.44   10.60
   1  -3  10   46.59   10.11
   1  -3  10   51.86   14.10
  -4   5   5  394.38   48.77
  -4   5   5  313.66   34.10
   4  -5  -5  359.52   42.71
   4  -5  -5  300.13   40.74
   4  -5  -5  316.35   35.04
   4  -5  -5  368.77   62.14
  -4   5   5  320.36   35.78
   4  -5  -5  327.71   38.62
  -4   5   5  317.22   56.10
   5   9   4  127.22   17.08
   5   9   4  117.26   20.55
   5   9   4   97.97   18.86
  -5  -9  -4  117.17   22.31
  -5  -9  -4  122.99   20.06
  -5  -9  -4  105.24   17.96
  -5  -9  -4  152.42   19.60
   5  -6  -1   85.08   17.28
   5  -6  -1   77.34   11.47
  -5   6   1   65.30   15.07
  -5   6   1   74.25   14.02
  -5   6   1   39.99   12.38
  -5   6   1   71.92   15.67
   5  -6  -1  101.57   22.25
   6  -3   8  188.30   37.04
   6  -3   8  205.61   26.89
   6  -3   8  159.33   27.58
  -6   3  -8  148.35   20.15
  -6   3  -8  172.31   21.25
  -6   3  -8  188.17   33.59
  -4  -3   7  153.42   20.92
   4   3  -7  223.60   41.93
  -4  -3   7  238.48   33.88
  -4  -3   7  209.95   29.69
  -4  -3   7  233.25   31.68
  -4  -3 -11  153.82   32.65
  -4  -3 -11  126.19   21.32
   4   3  11  103.46   16.89
  -4  -3 -11  140.79   22.70
  -6  -4   4   -1.42    6.10
   6   4  -4   14.51    8.25
  -6  -4   4    0.87    8.58
  -6  -4   4   14.11    6.54
   3  -7  -4   14.43    6.11
   3  -7  -4    8.94    5.32
   3  -7  -4    4.21    3.11
   3  -7  -4    2.78    2.67
  -3   7   4    2.14    5.13
  -3   7   4    0.88    4.67
  -3   7   4    2.88    6.60
  -3   7   4    2.62    5.10
   3  -7  -4   21.34    8.81
   3   9  -2  106.09   20.30
   3   9  -2  108.18   15.57
   3   9  -2  116.87   23.69
  -3  -9   2  135.97   20.36
  -3  -9   2  128.66   23.16
   0  -9   3  116.80   17.70
   0  -9   3  105.23   15.43
   0   9  -3  115.51   29.66
   0   9  -3  131.82   26.56
   0   9  -3  128.77   22.37
   0   9  -3  119.47   10.67
   0   9  -3   93.95   19.54
  -8   1  -5    9.16   11.07
   8  -1   5   21.66    7.94
  -8   1  -5   27.86   12.17
  -8   1  -5   14.84    8.65
   8  -1   5   10.24    7.87
   8  -1   5   15.49    7.39
  -8  -5  -2    4.38    7.75
   8   5   2    0.33    9.98
   8   5   2   14.63    8.65
  -8  -5  -2   10.06    7.49
  -8  -5  -2    0.88    5.50
  -8   1  -2   15.43    6.48
  -8   1  -2    6.89   10.39
   8  -1   2   22.19    8.76
   8  -1   2    4.93    7.48
  -8   1  -2   15.40    9.30
  -8  -2   0   19.54    8.94
  -8  -2   0   15.98   11.79
  -8  -2   0    9.51    5.17
   8   2   0    0.50    7.41
  -4   0 -11   56.41   12.77
   4   0  11  102.29   19.68
  -4   0 -11   69.80   14.43
  -4   0 -11   72.43   16.17
   4   0  11   92.28   12.24
  -4   0 -11   74.07   13.60
  -4   0 -11   72.67   24.46
   4   0  11   52.13   19.32
  -4   2   7   28.44    8.05
   4  -2  -7   23.36    6.41
  -4   2   7    3.55    9.74
   4  -2  -7   23.36    7.70
   4  -2  -7   21.43    7.37
  -4   2   7   32.86    5.48
   3   5  -7   89.41   19.04
  -3  -5   7  137.79   25.01
  -3  -5   7   99.14   19.08
  -3  -5   7  116.44   18.56
   4   8  -3  295.20   37.59
  -4  -8   3  314.39   41.14
  -4  -8   3  259.24   55.09
   4   8  -3  257.51   40.54
  -4  -8   3  288.69   36.89
   4   8  -3  275.97   44.34
   7  -3   0   30.41    7.61
   7  -3   0   38.99   12.03
  -7   3   0   17.69   11.55
   7  -3   0    9.64    6.32
  -7   3   0   27.62    9.88
   7  -3   0   36.06   14.29
  -7   3   0   23.15    8.13
   3   8  -4   43.06    8.29
   3   8  -4    9.97    7.35
  -3  -8   4   51.23    7.99
  -3  -8   4   35.20    7.20
  -3  -8   4   22.92    9.92
  -3  -8   4   24.18   10.21
  -8  -4  -7  260.77   49.48
   8   4   7  211.33   28.23
  -8  -4  -7  201.82   31.72
   8   4   7  254.54   30.11
   3   9   6   37.90    8.74
  -3  -9  -6   27.46    5.07
  -3  -9  -6   14.01    6.20
  -3  -9  -6   15.42    6.81
  -3  -9  -6   24.95    8.41
  -3  -9  -6    9.24    8.79
   3   9   6   25.45    5.00
   4  -4   9  204.04   29.89
   4  -4   9  240.08   33.36
  -4   4  -9  222.30   29.67
  -4   4  -9  154.65   24.23
  -4   4  -9  187.89   36.49
  -4   4  -9  221.59   23.05
  -2  -7   6   30.69    9.26
   2   7  -6   36.40   11.04
   2   7  -6   24.32    9.28
  -2  -7   6   41.73   10.54
  -2  -7   6   31.70    5.78
  -2  -7   6   16.84    4.96
  -7  -4  -9   -6.26    7.53
  -7  -4  -9    1.03    4.20
   7   4   9   -5.58    5.06
   7   4   9   -2.81    4.44
  -6   0 -10    8.91   10.07
   6   0  10   35.91    8.18
  -6   0 -10   16.58    9.08
  -6   0 -10   27.86    9.05
   6   0  10   11.42    8.19
  -6   0 -10    4.66    9.10
  -8  -5  -6  103.12   16.66
  -8  -5  -6  143.06   16.60
  -8  -5  -6  135.65   12.82
   8   5   6  131.64   18.21
   8   5   6  119.50   23.43
  -3   8  -3   43.50   14.66
   3  -8   3   19.65   10.06
   3  -8   3   36.28   12.47
  -3   8  -3   21.86    9.92
  -3  -3   8   13.21    7.49
  -3  -3   8    5.03    9.21
   3   3  -8    0.24    8.20
   3   3  -8    0.86    6.85
  -3  -3   8   13.55    8.75
   4  -5   8    7.38    6.74
  -4   5  -8    7.03    7.87
   4  -5   8    8.66    6.86
  -4   5  -8    2.53    4.41
  -4   5  -8   -3.79    5.89
  -4   5  -8   -0.71    2.48
   6   4  10  157.78   29.83
  -6  -4 -10  170.24   22.69
   6   4  10  198.61   20.80
  -6  -4 -10  156.02   24.79
  -6  -4 -10  147.19   18.39
  -6  -4 -10  168.29   21.67
   1   0 -10  225.49   23.98
  -1   0  10  268.49   31.53
  -1   0  10  272.05   48.62
  -1   0  10  233.00   34.04
   1   0 -10  250.34   40.83
   1   0 -10  266.79   46.41
   1   0 -10  269.09   34.20
  -6   4   2   76.57   16.90
   6  -4  -2   92.36   15.70
   6  -4  -2  116.52   15.90
  -6   4   2   74.90   20.96
  -6   4   2   83.43   15.59
  -6   4   2  116.26   19.03
   6  -4  -2   73.73   14.12
   6  -4  -2   74.55   13.48
   2   6  -7   36.23   10.25
  -2  -6   7   40.51    8.95
  -2  -6   7   27.88   10.47
  -2  -6   7   27.36   14.01
   5  -1  -6  117.59   26.55
   5  -1  -6  119.76   18.67
   5  -1  -6  120.73   16.90
   5  -1  -6  153.54   22.12
  -5   1   6  125.82   20.87
  -5   1   6  167.95   19.91
  -5   1   6  137.87   22.14
  -5   1   6  125.96   24.49
   6  -2   9   46.89   10.93
   6  -2   9   60.48   16.44
   6  -2   9   46.03    9.61
  -6   2  -9   39.35   10.13
  -6   2  -9   60.80   13.21
  -6   2  -9   23.34    9.39
   7  -3   6  158.10   27.48
  -7   3  -6  127.43   25.22
  -7   3  -6  117.38   21.01
   7  -3   6  160.00   30.83
   7  -3   6   99.26   19.97
  -6  -8  -6  208.91   22.63
   6   8   6  269.65   24.95
   6   8   6  163.42   26.85
   6   8   6  240.81   26.78
  -6  -8  -6  227.78   28.34
  -6  -8  -6  173.24   25.86
  -6  -8  -6  203.34   24.45
  -8  -1   0   40.16   11.88
   8   1   0   32.53    9.54
  -8  -1   0   48.37   13.35
  -8  -1   0   45.53   10.66
   4  -4  -6   11.80    6.84
   4  -4  -6    6.63    7.65
   4  -4  -6    7.78    5.63
   4  -4  -6   -3.97    5.49
  -4   4   6    0.11    9.21
  -4   4   6    4.80    6.11
  -4   4   6   14.13    6.49
  -4   4   6   10.16    4.67
   4  -4  -6    6.86    7.00
   4   9  -1    5.24    5.34
   4   9  -1   10.80    9.28
  -4  -9   1    5.24    6.48
  -4  -9   1    7.22    5.45
   4   9  -1    8.98    6.61
  -3  -7  -9   -3.63    9.17
  -3  -7  -9   16.98    7.70
  -3  -7  -9   13.67    7.67
  -3  -7  -9   24.71   12.09
  -5   5  -7  184.33   24.88
  -5   5  -7  166.45   23.00
  -5   5  -7  193.73   28.29
   5  -5   7  176.67   26.03
   5  -5   7  123.86   26.95
   7   7   6   15.04    9.02
   7   7   6    5.75    6.54
   7   7   6   38.33   10.49
  -7  -7  -6   12.47    7.26
  -7  -7  -6   15.88    7.01
   1  -1 -10    6.86    4.25
  -1   1  10    5.82    8.25
  -1   1  10    5.17    2.69
  -1   1  10    5.82    3.14
   1  -1 -10    4.39    3.18
   1  -1 -10   -2.51    3.66
  -6   5   0  116.82   15.96
  -6   5   0   91.92   11.74
  -6   5   0  127.46   16.84
   6  -5   0   87.34   14.44
   6  -5   0  136.82   19.82
  -6   5   0  127.64   18.35
   6  -5   0  118.82   18.41
  -2  -3 -11    4.57    7.92
  -2  -3 -11   -3.55    4.59
   5   5  -5  106.60   13.79
  -5  -5   5  119.04   19.13
  -5  -5   5   93.56   13.26
   5   5  -5   70.50   29.02
  -5  -5   5   72.78   19.16
   5  -6   5  128.49   18.08
  -5   6  -5   84.97   19.80
   5  -6   5  171.39   20.54
  -5   6  -5  123.97   20.08
  -5   6  -5  109.44   21.22
   8   3   0  366.13   48.62
  -8  -3   0  295.80   47.63
  -8  -3   0  268.05   39.08
  -8  -3   0  270.42   59.17
  -8  -3   0  302.14   51.94
   5   9   1    7.82    5.90
   5   9   1   -6.75    6.85
   5   9   1   -7.65    8.49
  -5  -9  -1    4.92    6.91
  -5  -9  -1   -2.29    6.44
  -4  -7  -9  156.06   26.59
   4   7   9  124.06   15.47
   4   7   9   90.70   24.02
  -4  -7  -9  100.93   20.65
  -4  -7  -9   64.73   19.01
  -4  -7  -9  124.23   23.03
  -4  -7  -9   92.68   13.53
  -4  -7  -9  112.49   19.75
  -1   6  -8   21.70    9.34
  -1   6  -8   17.75    6.67
   1  -6   8   12.93    7.69
   1  -6   8   20.58    8.62
  -1   6  -8   11.46    5.29
  -2   8   4   72.12   11.77
  -2   8   4   71.11   16.96
   2  -8  -4   86.86   19.32
   2  -8  -4   58.13   13.92
   2  -8  -4   91.55   15.18
   2  -8  -4   91.17   13.23
   2  -8  -4   74.85    7.98
  -3   1 -11   56.45    8.96
  -3   1 -11   30.04    7.45
  -3   1 -11   59.00   14.29
   3  -1  11   43.89   12.65
   3  -1  11   61.93   11.04
  -3   1 -11   51.76    9.00
  -3   1 -11   50.77   12.82
   2   9   6  566.78  125.16
  -2  -9  -6  615.10   77.84
  -2  -9  -6  639.65   72.79
  -2  -9  -6  519.19   68.30
  -2  -9  -6  657.90   81.77
  -2  -9  -6  613.69   71.89
   2   9   6  581.02   77.18
  -1   9   3   71.46   12.13
   1  -9  -3   91.65   17.24
   1  -9  -3   98.22   15.28
  -1   9   3   77.55   13.51
   1  -9  -3   83.37   19.34
   7   0   9  155.33   32.23
  -7   0  -9  185.75   23.12
   7   0   9  148.65   23.36
  -7   0  -9  154.49   24.26
   7   0   9  122.64   21.70
  -1  -1 -11    5.67    3.89
  -1  -1 -11   -0.17    8.12
  -1  -1 -11   -4.08    6.81
  -1  -1 -11    4.95    4.55
  -1  -1 -11    0.42    2.40
   1   1  11   -0.11    2.58
  -2  -9   3   90.66   17.27
  -2  -9   3   90.41   17.86
  -2  -9   3  101.08   19.75
   2   9  -3  122.44   22.83
   2   9  -3  100.76   23.10
   2   9  -3  110.20   15.45
  -6   4  -7   84.45   17.09
   6  -4   7   73.86   17.52
   6  -4   7   78.29   14.29
  -6   4  -7  116.34   13.88
  -2   1 -11   13.33    7.93
  -2   1 -11   44.28   11.35
   2  -1  11   34.90    9.30
   2  -1  11   32.74    7.51
  -2   1 -11   21.89    7.32
  -2   1 -11   50.15    9.99
   2  -1  11   13.88   10.27
  -2   1 -11   15.94    7.93
  -3   7  -6  120.13   21.88
  -3   7  -6  106.41   17.55
   3  -7   6  114.72   18.55
   3  -7   6  109.80   16.06
   3  -7   6   97.67   32.65
  -3   7  -6  113.72   18.43
  -6  -6  -9  180.60   24.42
   6   6   9  175.68   28.19
   6   6   9  169.03   24.96
   6   6   9  213.66   22.85
  -6  -6  -9  151.23   22.31
  -6  -6  -9  182.04   23.54
  -6  -6  -9  197.20   53.14
   7   7   1   15.31    6.02
   7   7   1    0.17    7.34
  -7  -7  -1   19.24    7.28
  -7  -7  -1   -3.00    4.16
  -7  -7  -1   11.02    8.90
   7   7   1    7.04    7.43
   5   3  -6  271.90   35.52
  -5  -3   6  250.24   32.57
  -5  -3   6  225.81   40.21
  -5  -3   6  234.05   28.45
  -5  -3   6  223.12   27.12
   6  -2  -4   -0.97    6.27
  -6   2   4   -7.05    6.80
  -6   2   4    1.13    5.64
   6  -2  -4    2.58   10.49
  -6   2   4    1.37    7.97
  -6   2   4    2.06    6.13
   6  -2  -4   -0.12    6.51
   6  -2  -4   -0.23    5.09
  -4  -9  -6   17.27    7.10
  -4  -9  -6   23.28    8.85
  -4  -9  -6   27.57    7.86
  -4  -9  -6   15.47    7.10
   4   9   6   29.49    5.48
   4   9   6   22.55    7.60
  -4  -9  -6   17.83    9.00
   4   9   6   21.05    9.18
   4  -6  -4   -3.46    5.27
  -4   6   4    1.20    7.03
  -4   6   4    1.39    5.61
  -4   6   4   -2.27    6.37
  -4   6   4   -4.84    6.32
   4  -6  -4   -4.28    3.84
   4  -6  -4   -4.18    5.15
   4  -6  -4    0.11    5.88
   4  -6  -4    1.45    6.95
   4  -7  -2   55.53   14.27
   4  -7  -2   55.27   13.52
   4  -7  -2   68.69    8.89
   4  -7  -2   71.23   13.63
  -4   7   2   63.73   17.20
  -4   7   2  100.61   17.27
  -4   7   2  101.46   16.45
  -4   7   2   68.97   17.34
  -5  -2 -11   35.90    8.42
  -5  -2 -11   52.73    8.89
  -5  -2 -11   41.92   13.27
   5   2  11   51.32   11.77
   5   2  11   77.36   10.41
  -5  -2 -11   45.06   15.17
   6   7   8  125.79   24.98
  -6  -7  -8   93.54   15.39
  -6  -7  -8   93.51   24.63
   6   7   8  114.57   15.30
   6   7   8  107.97   14.74
  -6  -7  -8   79.21   17.43
   1   4  -9  260.34   42.94
  -1  -4   9  273.62   25.50
  -1  -4   9  270.76   46.81
  -1  -4   9  258.06   52.59
   5   9   5  147.22   25.79
   5   9   5  127.90   24.78
   5   9   5  175.64   27.47
  -5  -9  -5  181.85   23.07
  -5  -9  -5  128.18   22.43
  -5  -9  -5  104.17   19.97
  -5  -9  -5  165.24   25.93
  -6   5  -5    3.68    4.12
   6  -5   5   -0.40    6.30
   6  -5   5   15.02    7.26
  -6   5  -5   -7.28    5.16
   6  -5   5    9.77    5.68
  -6   5  -5   -6.19   14.84
   1   1 -10   37.65    8.63
  -1  -1  10   35.06    8.17
   1   1 -10   40.49    8.35
   1   1 -10   24.00    4.76
   1   1 -10   36.64    9.61
  -1  -1  10   46.72   11.05
  -1  -1  10   47.05   13.26
   1   0  11   17.54    5.73
   1   0  11   13.02    5.92
  -1   0 -11   31.60    6.60
  -1   0 -11   21.57    4.92
  -1   0 -11   18.15    8.91
  -1   0 -11   30.27    6.29
  -1   0 -11    3.66    7.88
   2  -6  -7    5.93    3.91
   2  -6  -7   -0.35    1.92
   2  -6  -7   -1.01    1.75
   2  -6  -7    1.01    7.56
  -2   6   7    0.82    1.83
  -2   6   7   16.82    6.96
   2  -6  -7   -5.93    7.66
  -2   6   7    0.45    2.10
  -3  -8  -8   30.63   12.98
  -3  -8  -8  111.55   18.34
  -3  -8  -8   71.56   14.91
   3   8   8   76.68   15.39
   3   8   8   57.39   12.84
  -3  -8  -8   74.22   10.74
  -3  -8  -8   74.07    7.89
   1  -6  -8  -11.37    5.09
   1  -6  -8    6.05    6.53
   1  -6  -8   -3.63    7.31
   5  -2  10   29.92    6.99
  -5   2 -10   48.57   13.53
  -5   2 -10   15.87    7.75
  -5   2 -10   24.90    9.05
  -5   2 -10    6.52    9.14
   5  -2  10   12.28    7.24
   5  -2  10   17.36    7.73
  -7  -1   3  232.32   36.56
  -7  -1   3  277.57   54.96
   7   1  -3  231.80   29.83
  -7  -1   3  200.67   27.07
  -1   7   7   33.05    5.60
  -1   7   7   43.86    5.94
   1  -7  -7   28.31   11.02
   1  -7  -7   23.33    6.36
   1  -7  -7   36.41    7.33
   1  -7  -7   36.78    4.59
   1  -7  -7   31.79   12.18
  -7  -2   3    3.61    8.21
  -7  -2   3    4.73    5.91
   7   2  -3    2.02    7.16
  -7  -2   3    2.57    3.94
  -7  -2   3    2.13    5.18
  -8   0  -7   68.76   13.11
   8   0   7   94.72   17.66
  -8   0  -7  102.13   18.63
   8   0   7  104.33   18.27
   8   0   7   71.40   23.22
  -1  -5 -10   11.04    8.35
  -1  -5 -10   11.78    7.09
  -1  -5 -10   30.28   10.87
  -5  -1 -11    8.93    4.75
  -5  -1 -11   15.95    7.81
  -5  -1 -11   15.23    7.85
   5   1  11   25.79    7.45
   5   1  11   29.11    9.43
  -5  -1 -11   22.29   11.58
  -5  -1 -11   34.16    9.81
   2  -6   8  407.13   49.64
  -2   6  -8  354.87   29.07
  -2   6  -8  429.90   61.40
   2  -6   8  327.40   59.42
   2  -6   8  336.55   44.41
  -2   6  -8  309.23   44.49
   2  10   2  187.02   44.04
   2  10   2  126.04   27.67
  -2 -10  -2  153.78   29.49
   2  10   2  188.57   31.00
  -2 -10  -2  230.17   42.82
  -2 -10  -2  180.31   22.85
   2  10   1    9.76    3.31
  -2 -10  -1    2.23    5.19
  -2 -10  -1    1.50    5.11
  -2 -10  -1    6.73    3.76
   2  10   1    6.26    8.09
   2  10   1   15.93    8.20
  -3   8   2    2.44    5.74
  -3   8   2   -0.79    3.15
  -3   8   2   11.06    8.15
   3  -8  -2    8.61    5.89
   3  -8  -2   -1.61    7.90
   3  -8  -2    2.40    7.64
  -1  -2 -11  342.06   47.02
  -1  -2 -11  392.10   62.05
   1   2  11  397.01   67.15
   1   2  11  267.94   32.59
   1  -5   9  216.86   40.38
   1  -5   9  268.38   37.12
  -1   5  -9  211.01   23.18
  -1   5  -9  184.82   27.63
  -1   5  -9  197.79   29.52
   0  -6   8  107.83   21.01
   0  -6   8   62.75   17.52
   0   6  -8   85.74   19.62
   0   6  -8   97.41   18.52
   0  -4 -10    0.47    5.27
   0  -4 -10    9.68    7.42
   0  -4 -10   -1.71    8.16
  -2   5  -9   -0.28    6.43
   2  -5   9   -3.51   10.76
  -2   5  -9    2.09    8.03
  -2   5  -9   -0.06    4.87
   2  -5   9    0.05    6.36
  -4  -8  -8   18.33    7.94
  -4  -8  -8   19.09    7.79
  -4  -8  -8   29.03    6.11
  -4  -8  -8   35.84    8.90
   4   8   8   18.13    6.54
  -4  -8  -8   19.76   11.81
   8  -1   6  180.36   34.72
   8  -1   6  146.37   34.66
  -8   1  -6  209.89   37.55
   8  -1   6  154.47   24.68
  -8   1  -6  137.86   23.55
   6   8   0   16.52   12.25
   6   8   0   24.13   11.26
  -6  -8   0   30.57    9.69
  -3  -4 -11   35.89    9.79
  -3  -4 -11    9.66    9.13
   1  -7   7   36.41    8.93
   1  -7   7   15.95    8.10
   1  -7   7   24.08    9.12
  -1   7  -7   45.49    9.07
  -1   7  -7   13.67    8.93
  -1   7  -7   19.74    7.00
   5   8  -2   11.51    5.94
   5   8  -2   -0.34    6.30
   5   8  -2  -32.19   12.44
  -5  -8   2    2.07    7.33
  -5  -8   2   -2.61    3.39
  -1   9  -3    2.89    8.20
  -1   9  -3    5.20    7.67
  -1   9  -3   -3.54    6.19
   1  -9   3   -1.30    5.56
   1  -9   3    8.26    6.50
  -3  -6 -10   95.77   16.81
  -3  -6 -10   92.40   15.36
  -3  -6 -10   74.54   12.34
   1  -2 -10  196.73   23.81
  -1   2  10  193.38   23.83
  -1   2  10  243.00   38.46
  -1   2  10  189.31   27.87
   1  -2 -10  175.73   28.70
   1  -2 -10  182.74   23.82
   8  -1   1   -7.11    7.10
  -8   1  -1    2.67    8.72
   8  -1   1   15.00   11.41
  -8   1  -1    3.09    8.92
  -8   1  -1    9.87    6.18
  -4  -6 -10    0.57    6.30
  -4  -6 -10    6.74    6.43
  -4  -6 -10    6.06    7.85
  -5  -3 -11   45.74   10.03
  -5  -3 -11   36.88    8.28
  -5  -3 -11   47.60    8.25
   5   3  11   39.60    9.72
   5   3  11   55.22   10.37
  -7  -6  -8   70.98   20.39
  -7  -6  -8   59.55   10.96
  -7  -6  -8  106.35   15.42
  -7  -6  -8   90.48   17.58
   7   6   8   94.95   20.74
   7   6   8  106.91   18.35
   2   8  -5   51.59   11.94
   2   8  -5   57.34   14.63
  -2  -8   5   92.40   14.76
  -2  -8   5   64.77    8.84
  -2  -8   5   29.19   12.34
  -2  -8   5   90.49   18.69
  -2  -7  -9  736.83  124.97
  -2  -7  -9  793.66  111.03
  -2  -7  -9  890.01  117.99
  -2  -7  -9  892.89  153.20
   3  -3  -8   92.13   17.04
   3  -3  -8   87.82   19.91
   3  -3  -8   93.90   17.05
  -3   3   8   87.49   11.40
  -3   3   8   78.14   15.10
   3  -3  -8   90.17   12.47
   4   4  11   46.88    9.69
  -4  -4 -11   46.18   10.36
  -4  -4 -11   35.51   10.53
  -4  -4 -11   39.02    5.78
  -4  -4 -11   47.67   10.73
   4   4  11   48.66    6.64
  -8  -6  -4   28.30    9.79
  -8  -6  -4   48.58   11.22
   8   6   4   32.15   12.14
   8   6   4   34.36    8.74
  -8   0   0   35.36   12.51
   8   0   0   33.15    9.14
  -8   0   0   69.60   14.66
  -8   0   0   45.55   15.99
  -4   3 -10  136.68   19.35
  -4   3 -10  145.11   21.01
  -4   3 -10  131.36   18.32
  -4   3 -10  114.02   14.25
   4  -3  10  154.84   17.79
   4  -3  10  134.33   32.25
   7  -4   3  265.67   42.99
   7  -4   3  288.61   48.67
   7  -4   3  325.12   59.88
  -7   4  -3  288.90   49.64
  -7   4  -3  250.62   52.10
  -7   4  -3  279.68   36.38
  -2   8  -5   72.56   16.43
   2  -8   5   39.11    9.73
  -2   8  -5   21.30   12.05
   2  -8   5   40.60   10.56
  -2   8  -5   41.97   12.74
  -2   8  -5   51.36    7.53
   0   7  -7   68.54   12.23
   0   7  -7   53.01   14.17
   0  -7   7   63.71   16.42
   0  -7   7   76.28   14.31
   0  -7   7   78.16   17.86
   2  -9   0   13.61    8.12
  -2   9   0    8.30    8.56
  -2   9   0   11.13    9.95
   2  -9   0   14.50    9.96
  -8  -2  -8   51.12   16.02
  -8  -2  -8   59.13   14.52
   8   2   8   58.30   15.44
   8   2   8   66.68   15.11
  -6  -6   3   40.83   13.51
  -6  -6   3   13.21    3.61
   6   6  -3   -2.98   10.34
  -6  -6   3   17.99    3.61
  -6  -6   3   30.30   12.02
  -1 -10  -1   59.32   10.90
  -1 -10  -1   38.76   11.17
   1  10   1   37.02   12.01
   1  10   1   52.29   10.76
  -6  -1   5   25.10    5.14
  -6  -1   5   31.75    9.04
  -6  -1   5   15.73    9.92
  -6  -1   5   10.02    6.50
   6   1  -5    9.25    9.22
  -6  -1   5   24.17    9.65
  -2   3   9  428.31   49.87
   2  -3  -9  494.03   52.39
   2  -3  -9  547.96   70.81
   2  -3  -9  400.00   92.58
  -2   3   9  462.91   44.06
  -2   3   9  312.42   64.50
   2  -3  -9  363.41   46.63
  -8  -5  -1   11.42    7.69
  -8  -5  -1   22.98    6.30
   8   5   1    8.58    6.69
  -8  -5  -1   -6.96    8.27
   8   5   1  -13.72   21.94
  -2   9  -1  373.88   43.95
  -2   9  -1  328.01   50.16
   2  -9   1  274.23   48.65
   2  -9   1  323.78   33.31
  -2   7   6    5.90    4.01
  -2   7   6  -12.10    7.32
  -2   7   6    0.72    2.93
   2  -7  -6   -0.47    2.21
   2  -7  -6   -9.74    8.74
   2  -7  -6    2.91    3.74
   2  -7  -6   -3.18    3.75
  -3 -10  -2  -10.39    4.76
  -3 -10  -2   -1.47    3.03
  -3 -10  -2   -0.88    6.04
   3  10   2    0.56    3.67
   3  10   2    4.70    6.58
   3  10   2    0.12    5.53
  -8  -3  -8    9.68    6.98
  -8  -3  -8   16.08   10.23
   8   3   8    1.57    4.98
   8   3   8    1.51    5.95
   0   3 -10    3.14    5.16
   0   3 -10   -0.34    2.57
   0  -3  10   -0.44    5.62
   0  -3  10   -0.06    7.67
   4  -6   7   34.98   17.27
   4  -6   7   75.05   13.52
  -4   6  -7   57.27   10.44
  -4   6  -7   61.40    9.47
  -4   6  -7   50.55   12.06
  -4   6  -7   71.37   12.75
   4  -6   7   51.50   10.92
  -4   7  -5   -5.72    7.76
   4  -7   5   -0.78    6.98
  -4   7  -5    1.36    2.55
  -4   7  -5   -2.11   10.48
   4  -7   5    3.19    5.08
   7   6  -1  145.38   17.76
  -7  -6   1  100.69   19.01
  -7  -6   1  154.29   14.73
  -7  -6   1  140.06   16.71
  -4   1 -11  -13.20    8.00
  -4   1 -11  -14.05    7.38
  -4   1 -11    0.40    5.48
   4  -1  11   13.81    8.97
  -4   1 -11   14.06    8.31
  -4   1 -11    1.25    5.94
   4  -1  11   -1.83    4.02
   4  -1  11    3.89    6.42
   0  -7  -8   -0.82    5.06
   0  -7  -8    3.09    5.21
   0  -7  -8   -4.84    6.21
   0  -7  -8    5.97   11.50
   7  -4   2    3.52    7.61
   7  -4   2    3.01    6.06
  -7   4  -2   -2.90    5.61
  -7   4  -2    4.93    8.28
  -7   4  -2    3.03    3.72
   7  -4   2    0.40    4.90
   2  10   3   -0.11    5.37
   2  10   3    2.49    5.36
  -2 -10  -3    1.02    5.08
  -2 -10  -3   -1.30    4.73
  -2 -10  -3    8.41    3.91
  -2 -10  -3    2.04    6.18
  -2  -5   8  202.91   39.70
  -2  -5   8  194.45   27.42
  -2  -5   8  208.31   40.49
   2   5  -8  215.46   39.94
   8   6   3   -1.72    6.39
   8   6   3   12.82    6.10
  -8  -6  -3   13.73    8.47
   8   6   5  104.50   18.70
  -8  -6  -5   57.92   18.91
  -8  -6  -5   87.79   16.03
   8   6   5   83.82   18.79
  -2  -3   9   65.91   14.55
  -2  -3   9   68.31    9.70
   2   3  -9   60.15   16.72
  -2  -3   9   40.15    7.53
  -7   0   3   49.04   15.77
  -7   0   3   77.83   14.99
   7   0  -3   94.14   32.05
   7   0  -3   58.20   15.98
  -7   0   3   86.96   15.60
   8   4   0   -3.63    7.54
  -8  -4   0    4.05    3.64
  -8  -4   0    0.33    3.70
  -8  -4   0   -5.42    8.41
  -8  -4   0   -3.91    6.30
  -1 -10  -2    1.12    7.94
  -1 -10  -2   -0.50    2.35
   1  10   2    4.60    5.96
   1  10   2   -3.59    6.79
  -1 -10  -2    8.70    8.99
  -7  -3   3   94.95   21.80
   7   3  -3  154.86   27.02
  -7  -3   3   98.34   22.90
  -7  -3   3  109.12   22.34
  -7  -3   3  119.24   18.20
  -6  -2   5    1.95    6.29
  -6  -2   5   -0.92    5.70
   6   2  -5   -0.87    7.77
  -6  -2   5   -4.12    6.81
  -6  -2   5    1.51    5.04
  -7  -5   2    0.11    3.37
  -7  -5   2   -3.48    6.73
  -7  -5   2    0.43    2.60
  -7  -5   2    4.50    7.75
   7   5  -2   -7.88    8.86
  -7   4  -4  334.34   46.21
   7  -4   4  278.73   44.18
   7  -4   4  276.97   36.49
   7  -4   4  287.04   58.62
  -7   4  -4  207.81   33.53
  -7   4  -4  294.58   45.08
  -5  -7  -9   70.51   14.35
  -5  -7  -9   58.58   10.89
  -5  -7  -9   82.25   12.53
  -5  -7  -9   68.25    9.51
   5   7   9   65.02   12.02
   5   7   9   90.68   15.50
  -5  -7  -9   60.48   14.84
   5   7   9   62.68   17.66
  -8  -5  -7   34.27    8.69
  -8  -5  -7   27.88   11.08
  -8  -5  -7   23.44    6.95
   8   5   7   58.66   12.82
   8   5   7   45.58   10.14
   2  10   0  299.25   51.99
  -2 -10   0  273.04   46.18
  -2 -10   0  346.96   66.36
  -2 -10   0  356.74   32.13
   2  10   0  295.53   34.27
   2  10   0  319.05   47.01
  -2   5   8   41.86   13.15
   2  -5  -8   68.50   14.91
   2  -5  -8   61.96   10.91
  -2  -8  -8  162.36   38.45
  -2  -8  -8  237.91   38.44
  -2  -8  -8  222.50   31.94
  -3 -10  -3  193.43   35.04
   3  10   3  179.42   27.48
   3  10   3  195.89   39.11
  -3 -10  -3  175.02   25.61
  -3 -10  -3  183.66   27.38
   3  10   3  194.04   34.79
   3  10   1  103.79   15.14
  -3 -10  -1   63.94   10.60
  -3 -10  -1   57.77   14.33
   3  10   1   68.80   22.08
   3  10   1   86.01   11.72
   0  -9  -5   29.28    6.72
   0  -9  -5   35.39    6.20
   0  -9  -5   35.72   10.98
   0   9   5   29.35    6.42
   0   9   5   40.05    8.07
   0  -9  -5   16.81    6.78
  -6  -7   2  301.91   36.79
   6   7  -2  315.12   50.30
  -6  -7   2  317.31   37.54
   6   7  -2  365.78   43.24
  -3   8  -4   22.41   10.81
  -3   8  -4    9.59    8.65
   3  -8   4   -5.71    7.20
   3  -8   4   -2.33    7.37
   1  10   0   10.53    7.95
  -1 -10   0   10.45    7.88
   1  10   0    4.22    8.25
  -1 -10   0   10.74    6.89
   1  10   0    8.18    6.72
  -2   9   1  116.15   21.67
   2  -9  -1  114.66   20.57
   2  -9  -1   92.47   12.54
  -2   9   1   89.73   13.82
  -7  -5  -9  226.41   29.77
  -7  -5  -9  248.23   35.83
   7   5   9  268.43   32.45
  -7  -5  -9  181.84   28.97
   7   5   9  217.40   28.09
  -7  -5  -9  213.56   43.63
   5  -6  -2   -4.81    6.86
   5  -6  -2    3.08    2.47
  -5   6   2    9.56    8.06
  -5   6   2    6.55    5.97
  -5   6   2   -4.51    5.43
  -5   6   2   -6.08    8.01
   5  -6  -2  -10.71    5.91
  -1   1 -11    7.98   11.21
  -1   1 -11   -0.81    5.97
   1  -1  11    5.92    3.90
  -1   1 -11    2.67    4.72
  -1   1 -11   -0.75    4.56
   1  -1  11   -6.17    4.28
  -1   1 -11    5.74    7.09
   7  -2   8    0.50    6.26
   7  -2   8    3.60    4.00
   7  -2   8    8.89    8.04
  -7   2  -8   -0.69    7.58
  -7   2  -8    5.23    6.80
   7  -2   8   18.76   10.70
  -6   0   5   38.96   10.07
  -6   0   5   18.99    4.85
  -6   0   5   14.92    7.19
  -6   0   5   17.76    8.35
   6   0  -5   27.64    7.90
   5   9   0   40.84   16.65
  -5  -9   0   24.68    8.23
  -5  -9   0   44.76   11.21
   5   9   0   43.51   10.10
   5   9   0   36.77    9.34
   7  -2  -2  630.17   82.59
   7  -2  -2  582.02   79.10
   7  -2  -2  567.03   69.75
  -7   2   2  591.60   70.40
  -7   2   2  619.21   69.44
  -7   2   2  658.59  103.87
   5   0  11   21.66    6.29
  -5   0 -11   12.60   10.50
  -5   0 -11   -1.36    5.19
  -5   0 -11    2.56    5.52
  -5   0 -11    1.97    5.01
   5   0  11    2.21    5.82
   5   0  11   11.61    6.38
  -5   0 -11   16.04    9.00
  -5   2   6   -1.42    6.40
  -5   2   6    3.15    4.21
  -5   2   6    3.12    5.38
  -5   2   6    4.03    4.84
   5  -2  -6   10.77    6.96
   5  -2  -6    4.00    5.14
   5  -2  -6    8.22    4.60
   5  -2  -6    0.46    4.23
  -6   1 -10   34.60   10.15
  -6   1 -10   31.24   10.68
   6  -1  10   28.49    8.50
   6  -1  10   26.68   11.18
   6  -1  10   22.72    6.02
  -8   2  -3  106.78   20.48
  -8   2  -3  106.07   18.21
   8  -2   3  123.68   21.55
  -8   2  -3  114.65   17.58
  -8   2  -3  129.25   32.96
   8  -2   3   98.24   20.78
   8   1   8  322.08   54.46
  -8  -1  -8  263.81   57.39
  -8  -1  -8  313.45   48.76
   8   1   8  312.07   71.64
  -8   2  -4    9.24    6.12
  -8   2  -4   26.69   11.82
   8  -2   4    4.08    8.20
   8  -2   4    2.77    9.56
  -4  -4   7    1.38    7.78
  -4  -4   7   -5.31    8.52
  -4  -4   7    3.98    6.39
   4   4  -7   -0.41    7.85
   3  -6  -6    4.89    4.22
  -3   6   6   19.53    8.92
   3  -6  -6    4.39    5.83
   3  -6  -6    7.06    6.66
  -3   6   6    6.72    3.91
  -3   6   6    6.32    4.66
  -3   6   6   10.96    7.17
   3  -6  -6    1.64    4.47
   3  -6  -6   12.99   11.56
   6   5  10   25.86    6.46
  -6  -5 -10   13.15    6.97
  -6  -5 -10   19.12    7.18
  -6  -5 -10   13.21    6.49
   6   5  10   14.03    5.19
  -6  -5 -10    6.07    4.60
   0  -6  -9   -0.29    8.07
   0  -6  -9    9.05    6.23
   0  -6  -9   10.62    9.12
  -2   7  -7   15.75    6.27
  -2   7  -7   -2.85    7.20
   2  -7   7    5.09    7.18
   2  -7   7   -2.31    3.70
   2  -7   7   11.74    8.29
  -2   7  -7    2.31    6.09
   7   7   7   94.10   15.99
  -7  -7  -7   85.42   15.55
  -7  -7  -7  103.72   17.17
   7   7   7   72.29   16.14
   7   7   7   89.12   11.79
  -6   5   1   68.01   13.80
  -6   5   1   48.05    9.39
  -6   5   1   59.67   14.71
   6  -5  -1   78.42   17.19
   6  -5  -1   69.04    9.60
   6  -5  -1   52.12    9.59
   1   9   6    1.23    4.00
   1   9   6   -0.22    3.25
  -1  -9  -6    4.06    5.62
  -1  -9  -6   -2.23    2.91
  -1  -9  -6   -3.27    3.83
  -1  -9  -6   -9.17    9.84
  -1  -9  -6    1.05    3.41
  -2  -4 -11   77.25   14.67
  -2  -4 -11   97.07   15.80
  -2  -4 -11  103.73   18.59
   0   5  -9   -1.78    5.60
   0   5  -9   11.74    3.69
   0  -5   9   11.61    9.69
   0  -5   9   16.17    8.79
  -7   3   1  248.16   34.27
  -7   3   1  243.44   31.73
   7  -3  -1  219.22   34.30
   7  -3  -1  191.69   28.38
   7  -3  -1  195.22   28.56
  -7   3   1  162.57   25.75
   7  -3  -1  239.29   38.47
  -1  -2  10   20.24    6.87
  -1  -2  10    8.11    7.64
  -1  -2  10   22.69    8.54
   1   2 -10   15.61    7.17
   1   2 -10   14.66    6.28
  -2   9  -2   28.91   12.74
  -2   9  -2   45.71   11.55
   2  -9   2   43.96   16.28
   2  -9   2   73.57   19.61
  -2  -6 -10   19.63    9.11
  -2  -6 -10   14.68    9.57
   4  -3  -7   13.11    5.63
   4  -3  -7   18.26    9.69
   4  -3  -7   21.63    6.28
  -4   3   7   25.20    7.11
  -4   3   7   46.93   12.63
   4  -3  -7   24.77    9.58
   4  -3  -7   12.91    5.30
   3  -5   9  343.54   54.54
  -3   5  -9  250.86   45.08
  -3   5  -9  331.90   57.02
  -3   5  -9  334.09   38.71
  -3   5  -9  339.34   52.19
   3  -5   9  361.44   50.51
  -1  -3 -11   73.11   15.58
  -1  -3 -11   66.57   18.39
   1  -5  -9   22.05    9.03
   1  -5  -9   32.87   11.74
   1  -5  -9   54.14   10.92
   6   8   7   -1.47    5.88
  -6  -8  -7    4.71    5.67
  -6  -8  -7   -8.31   10.54
  -6  -8  -7    6.02    7.01
  -6  -8  -7    1.75    4.30
   6   8   7    1.51    4.95
   6   8   7    8.72    6.30
  -6  -5   4   -0.34    5.62
   6   5  -4    8.24    7.68
  -6  -5   4   -9.35    9.30
  -6  -5   4   12.15    8.62
   3  -5  -7   44.64   11.04
   3  -5  -7   20.45    9.98
  -3   5   7   34.82    9.21
  -3   5   7   34.92    9.70
   3  -5  -7   48.53    7.41
  -8  -4  -8  128.72   22.00
   8   4   8  142.79   25.23
  -8  -4  -8  121.96   21.19
   8   4   8  159.58   26.03
   5   6  10   22.53    4.76
   5   6  10   26.65    6.09
  -5  -6 -10   24.98   10.29
  -5  -6 -10   28.44    8.06
  -5  -6 -10   11.81    4.73
  -5  -6 -10   20.94    7.04
   7  -4   1   45.11   11.76
   7  -4   1   25.04    9.08
   7  -4   1   28.97    6.63
   7  -4   1   16.38    5.70
  -7   4  -1   23.60   12.88
  -7   4  -1   35.88   11.86
  -7   4  -1   24.94   11.21
   1  -8  -6  600.72  116.09
  -1   8   6  549.80   96.40
   1  -8  -6  610.67   64.94
   1  -8  -6  506.98  123.27
   1  -8  -6  573.67  112.71
   0  -9   4   18.34    7.37
   0   9  -4    2.52    9.65
   0  -9   4   11.83    7.00
   0   9  -4   14.18    7.69
   0   9  -4    7.85    3.28
   0   9  -4   21.04    5.93
   0   9  -4   12.30    9.09
  -5  -9  -6   28.83    6.66
   5   9   6   43.02    8.83
   5   9   6   22.48    6.06
   5   9   6   20.09    8.25
  -5  -9  -6   19.26    9.44
  -5  -9  -6   48.75   11.32
  -5  -9  -6    7.86    5.43
   0  -8  -7    6.23    7.85
   0  -8  -7    4.80    1.94
   0  -8  -7    4.96    1.55
   0  -8  -7    7.50    5.34
   0   8   7    4.83    1.94
   0   8   7    4.42    2.82
   0  -8  -7    3.32    6.35
   7  -3   7   16.81    6.44
   7  -3   7   21.51    8.11
   7  -3   7    1.94    8.60
  -7   3  -7    9.19    6.17
  -7   3  -7   19.84    7.37
   7  -3   7    2.46    9.38
  -5  -8  -8  180.20   30.42
  -5  -8  -8  189.66   26.66
   5   8   8  149.39   26.47
  -5  -8  -8  178.49   31.81
   5   8   8  142.12   25.13
  -5  -8  -8  203.27   33.69
   5   8   8  179.76   20.85
  -5  -4 -11   23.97    8.53
  -5  -4 -11   25.11    8.04
   5   4  11   26.27    5.54
  -5  -4 -11   20.71    3.71
  -5  -4 -11   17.21    4.24
  -1 -10  -3  313.26   28.81
  -1 -10  -3  241.94   44.79
  -1 -10  -3  226.16   39.98
   1  10   3  263.98   38.86
   1  10   3  262.07   38.48
  -1 -10  -3  265.76   31.58
  -1  -9   4  168.36   26.86
  -1  -9   4  136.30   19.83
   1   9  -4  159.12   32.63
   1   9  -4  130.52   21.82
   1   9  -4  132.96   17.61
  -8  -6  -2  689.00   72.89
   8   6   2  546.24   69.75
   8   6   2  633.40   80.11
  -8  -6  -2  566.47   59.35
  -2   4 -10  114.74   19.74
  -2   4 -10  128.76   21.05
   2  -4  10  128.42   18.43
  -2   4 -10   85.53   15.97
  -2   4 -10   98.18   14.33
   2  -4  10  127.14   28.30
  -3  -4   8   -6.42    5.95
  -3  -4   8   14.32    6.93
  -3  -4   8   -4.18    5.80
   3   4  -8    0.06    6.56
   8   6   6   23.56    8.90
  -8  -6  -6    6.16    8.32
   8   6   6   -6.06    7.58
  -8  -6  -6    6.43    7.23
   8  -2   2  147.55   21.27
   8  -2   2  128.69   30.85
  -8   2  -2  145.82   22.63
  -8   2  -2  139.80   30.79
  -8   2  -2  128.63   24.08
  -8   2  -2  111.41   23.43
  -7   1  -9  107.35   18.31
  -7   1  -9  103.31   19.20
   7  -1   9  112.48   20.56
   7  -1   9   89.81   20.52
   7  -1   9   97.00   16.89
  -3   6  -8  159.89   29.16
  -3   6  -8  219.49   27.70
  -3   6  -8  175.61   22.37
   3  -6   8  201.12   27.44
   3  -6   8  170.49   41.20
   3  -6   8  230.12   27.56
   2  -2  11   16.51    7.66
  -2   2 -11   11.88    8.59
  -2   2 -11   34.57   14.77
  -2   2 -11   11.42    7.50
  -2   2 -11   23.55    6.07
  -2   2 -11    2.91    8.65
   2  -2  11   29.78   10.12
  -1  -7   7  255.12   37.10
  -1  -7   7  261.19   35.78
   1   7  -7  222.90   21.82
   1   7  -7  224.22   40.86
  -8  -2   1    1.77   10.96
  -8  -2   1   -0.89    6.55
   8   2  -1   10.91    6.92
  -8  -2   1   20.52    6.74
  -7  -7   0    9.50    4.47
   7   7   0    4.01    7.23
  -7  -7   0    2.94    9.53
   7   7   0    8.82   19.66
   3   9  -3   55.60   19.27
   3   9  -3   64.88   14.60
  -3  -9   3   48.93   10.02
  -3  -9   3   45.85   11.54
  -3  -9   3   67.12   14.28
   1  -9  -4  142.15   17.33
   1  -9  -4  111.65   23.02
  -1   9   4  150.11   24.79
  -1   9   4  142.93   20.62
   3  -2  11   -0.16    7.38
  -3   2 -11   11.35    8.16
  -3   2 -11   -4.22    5.27
   3  -2  11   15.01    8.31
   3  -2  11   -6.41    4.38
  -3   2 -11    5.69    6.07
  -3   2 -11  -16.01    7.15
   8  -2   5   28.19   11.32
  -8   2  -5   17.68    8.88
  -8   2  -5   21.32    8.33
   8  -2   5   14.70    8.64
  -5  -4   6  292.49   49.04
  -5  -4   6  348.04   39.27
   5   4  -6  401.40   41.23
  -5  -4   6  282.81   42.96
  -5  -4   6  275.66   36.06
  -3 -10  -4   69.85   19.06
   3  10   4  117.76   14.99
  -3 -10  -4   95.56   19.33
  -3 -10  -4   74.74   14.11
  -3 -10  -4  119.18   17.33
  -3 -10  -4   84.59   19.65
   3  10   4   69.44   20.68
   3  10   4   62.67   18.82
  -5   6  -6  160.05   31.38
  -5   6  -6  177.48   28.26
   5  -6   6  167.97   22.60
  -6  -3   5  106.24   17.53
  -6  -3   5   94.92   16.76
  -6  -3   5  111.80   17.75
   6   3  -5   71.28   14.77
  -6  -3   5   88.51   18.40
   7   2  10   53.46   15.21
  -7  -2 -10   46.40   10.80
   7   2  10   67.37   16.82
  -7   4  -5   93.42   15.10
   7  -4   5   94.67   16.06
  -7   4  -5  140.14   29.26
   7  -4   5   83.55   16.94
   7  -4   5  123.16   30.29
  -4  -9   2   76.53   19.07
  -4  -9   2  123.21   18.60
   4   9  -2   99.88   20.09
   4   9  -2  104.31   17.72
   4   9  -2  122.87   19.49
  -3 -10   0   17.12   10.37
   3  10   0   -2.51    8.83
  -3 -10   0  -12.60    7.08
   3  10   0   18.54   10.33
   3  10   0    6.95    5.16
  -2 -10  -4   56.11   14.75
  -2 -10  -4   63.73   26.09
   2  10   4  102.59   17.05
   2  10   4   78.50   12.54
  -2 -10  -4   51.46   12.46
  -2 -10  -4   64.20   13.74
  -2 -10  -4   72.22   11.86
   6  -5   6   32.27   11.87
   6  -5   6   30.70   12.72
  -6   5  -6   13.39    5.89
  -6   5  -6   12.66    7.91
   7   8   4    4.97    7.02
   7   8   4   37.72   11.22
  -7  -8  -4   21.07    9.06
   7   8   4   22.90    9.05
  -7  -8  -4    7.62    7.38
   1  -3 -10   77.30   14.73
  -4  -7   5  119.80   21.44
  -4  -7   5  158.58   25.08
   4   7  -5  166.49   30.63
   4   7  -5  192.52   31.78
  -4  -7   5  195.09   37.28
  -4  -7   5  148.57   33.92
  -1 -10   1   99.32   20.99
   1  10  -1  122.77   26.55
   1  10  -1  130.15   19.94
   1  10  -1  111.34   14.60
  -1 -10   1  140.32   21.94
   0  -8   6  317.57   57.11
   0   8  -6  376.20   59.61
   0   8  -6  360.00   54.23
   0  -8   6  330.35   42.95
   1   6  -8   55.31   10.19
  -1  -6   8   53.90   13.54
  -1  -6   8   59.04   12.10
  -1  -6   8   40.68   10.83
   1   6  -8   53.32   16.70
  -8  -1   1  274.76   33.51
  -8  -1   1  248.39   29.03
  -8  -1   1  204.44   33.36
   8   1  -1  295.05   41.99
   7   8   3   13.61    9.72
   7   8   3   17.98    9.20
  -7  -8  -3   37.47   10.68
  -7  -8  -3   39.71    8.92
  -7  -8  -3   28.31   11.73
   7   8   3   52.87   13.22
  -3  -9  -7   98.46   21.03
  -3  -9  -7  108.15   15.11
  -3  -9  -7   57.20   19.91
  -3  -9  -7   92.80   14.73
  -3  -9  -7  102.82   18.23
   3   9   7   81.42   14.66
   3   9   7   75.69   18.15
   0  10   1   -0.82    6.49
   0 -10  -1    6.49    6.06
   0  10   1   -0.88    5.34
   0 -10  -1    1.39   10.89
  -2   9   2    5.07    6.48
   2  -9  -2    2.47    9.49
  -2   9   2    7.47    5.59
  -7  -3 -10   57.34   21.03
  -7  -3 -10   76.94   14.22
  -7  -3 -10   45.78   13.77
   7   3  10   78.97   13.36
   7   3  10   59.07   17.11
  -1   4 -10    8.55    6.13
   1  -4  10    2.84    5.18
   1  -4  10  -12.19   10.84
  -1   4 -10   19.85    8.49
  -1   4 -10   11.82    4.61
  -8   1  -7  226.75   36.74
  -8   1  -7  240.66   47.98
   8  -1   7  196.48   33.08
   8  -1   7  247.67   45.51
   8  -1   7  251.60   46.34
   2  10  -1   27.02   10.56
   2  10  -1   27.60   10.65
   2  10  -1   47.93    7.50
  -2 -10   1   56.79   13.76
  -2 -10   1   67.55   15.93
   0 -10   0  179.53   25.62
   0 -10   0  171.08   24.57
   0  10   0  139.27   29.21
   0  10   0  191.58   26.04
   5  -4  -5   40.97   10.75
   5  -4  -5   29.08    8.70
   5  -4  -5   54.61   10.29
  -5   4   5   63.07   13.22
  -5   4   5   44.47   12.82
  -5   4   5   70.95   11.76
  -5   4   5   54.56   11.05
   5  -4  -5   80.94   13.07
   5  -4  -5   29.12   10.06
  -4 -10  -2   21.78   10.01
  -4 -10  -2    9.44    9.91
   4  10   2    8.62    7.84
   4  10   2   13.06    6.99
   4  10   2   13.36    8.75
  -4 -10  -3    8.20    6.68
  -4 -10  -3   20.95    5.93
  -4 -10  -3   32.83    8.34
   4  10   3   14.86    6.50
   4  10   3   22.64    9.21
   4  10   3   10.21   11.63
  -5   5   4   -5.90    7.65
  -5   5   4   -4.54    5.79
  -5   5   4   -3.92    5.90
   5  -5  -4    3.30    6.97
   5  -5  -4    6.03    4.95
   5  -5  -4    4.94    5.81
   5  -5  -4    5.47    6.73
   5  -5  -4   -3.44    6.43
  -5   5   4   10.06    6.26
   6   9   3   13.54    7.40
  -6  -9  -3   10.28    7.48
  -6  -9  -3   -2.02    6.58
  -6  -9  -3    8.05    7.35
   6   9   3   22.31   10.48
   6   9   3    9.84    6.36
   4  -7  -3    6.51    3.15
   4  -7  -3   -4.79    8.31
   4  -7  -3   12.25    7.54
   4  -7  -3   -1.86    6.44
  -4   7   3    9.45    6.56
  -4   7   3   -1.57    4.35
  -4   7   3   13.80    7.92
  -8   1   0   38.96    8.12
  -8   1   0   26.48    6.98
  -8   1   0   24.13   10.79
   8  -1   0   24.73   12.43
   8  -1   0   31.54   11.21
   5  -7   2   92.01   21.21
  -5   7  -2  142.35   18.43
  -5   7  -2  125.59   17.07
  -5   7  -2  143.44   23.38
   5  -7   2  120.26   23.24
  -8  -3   1   19.61   14.77
   8   3  -1   16.83   10.23
  -8  -3   1    9.82    3.78
  -8  -3   1    6.52    5.61
  -8  -3   1    1.31    7.53
   7  -1  -3   39.91   11.97
  -7   1   3   50.56   15.05
  -7   1   3   41.27   11.47
  -7   1   3   41.53   14.14
   7  -1  -3   18.86   10.24
  -6   1   5   -0.81    7.08
   6  -1  -5   13.47    7.46
   6  -1  -5    6.01    3.21
  -6   1   5   15.41    7.49
  -6   1   5    5.14    6.36
  -6   1   5    7.58    4.47
   1  -8   6    3.41    6.73
   1  -8   6   -5.68    4.18
  -1   8  -6   -2.34    5.89
  -1   8  -6   -0.87    8.34
  -1   8  -6   -2.98    3.51
  -3   8   3    5.00    4.18
   3  -8  -3   -3.13    3.76
   3  -8  -3   -0.42    5.23
   3  -8  -3   -3.48    6.82
  -3   8   3    2.83    5.75
  -3   8   3    1.16    5.59
  -7  -4   3  715.22   73.36
   7   4  -3  824.06  118.04
  -7  -4   3  711.56   64.28
  -7  -4   3  641.62   76.04
  -7  -4   3  673.33   95.46
  -7  -4   3  742.80   84.50
   3  -7  -5  121.71   19.44
  -3   7   5  115.25   15.62
  -3   7   5  126.10   20.18
  -3   7   5   56.63   15.17
  -3   7   5   73.58   13.04
   3  -7  -5  108.42   19.10
   3  -7  -5  111.78   14.56
   3  -7  -5   91.99   18.93
   3  -7  -5   81.93   11.97
   6   9   4   67.76   12.53
   6   9   4   63.58   11.49
  -6  -9  -4   84.66   13.02
  -6  -9  -4   34.12   13.88
   6   9   4   64.11   14.81
  -6  -9  -4   43.72   12.50
   3  -4  10   65.38   17.55
   3  -4  10   58.62   15.82
  -3   4 -10   33.49   11.50
  -3   4 -10   48.59   13.38
  -3   4 -10   51.15    9.60
  -3   4 -10   56.33   14.02
  -4  -6   6   79.42   14.52
  -4  -6   6   68.81   15.27
  -4  -6   6   97.52   18.21
   4   6  -6   71.56   17.08
   4   9   7   21.36    4.56
  -4  -9  -7   18.48    5.90
   4   9   7   18.11    7.32
  -4  -9  -7    7.75    8.25
  -4  -9  -7   12.02    5.85
   4   9   7   11.72    6.50
  -4  -9  -7   14.78    6.75
  -4  -9  -7   10.45    6.05
   6  -4  -3  147.33   23.00
  -6   4   3  122.57   18.95
  -6   4   3  194.31   23.69
   6  -4  -3  169.76   35.88
   6  -4  -3  169.46   25.89
   6  -4  -3  126.89   20.95
  -6   4   3  151.95   28.72
  -6   4   3  165.66   27.83
  -7  -1 -10   16.49   10.65
   7   1  10   -3.38    6.26
   7   1  10   -0.93    5.13
  -7  -1 -10   14.14    6.91
   5  -7   1   12.70   10.12
  -5   7  -1   14.98    9.37
  -5   7  -1   22.69    8.75
  -5   7  -1   21.28    7.11
   5  -7   1    3.30    7.60
  -5   4  -9   -3.76    6.76
   5  -4   9   13.21   11.99
  -5   4  -9    0.85    6.39
  -5   4  -9    5.03    6.57
  -5   4  -9  -16.93    7.25
   0  -1 -11  140.38   22.70
   0  -1 -11  124.37   18.57
   0   1  11  135.93   27.70
   0  -1 -11  147.79   26.85
   0  -1 -11  157.61   16.42
   7   8   5  116.78   18.35
  -7  -8  -5  128.69   21.07
   7   8   5  100.01   12.55
   7   8   5   92.96   13.31
  -7  -8  -5  102.28   18.60
   3   7  -6   88.42   18.65
   3   7  -6   90.10   18.36
  -3  -7   6   67.08   16.54
  -3  -7   6   63.77   14.64
  -3  -7   6  115.58   19.69
  -3  -7   6   83.79   13.75
  -1  -7  -9   45.71   15.60
  -1  -7  -9   35.83   11.98
  -1  -7  -9   28.13   10.05
  -8   0  -8   30.85   11.81
  -8   0  -8   18.04    7.82
   8   0   8   21.12   12.54
   8   0   8   21.97    9.47
   0   0 -11    0.57    3.86
   0   0 -11   -6.03    4.60
   0   0 -11   -0.71    3.22
   0   0 -11    4.29    5.12
   0   0  11    3.43    6.37
   0   0  11   -1.28    4.04
  -6  -2 -11   17.40    7.88
  -6  -2 -11    4.23    7.82
   6   2  11   11.74    5.07
   6   2  11   11.37    7.93
   0  10   2   47.58   12.18
   0 -10  -2   26.47    9.80
   0 -10  -2   43.15    9.27
   0  10   2   33.56   11.12
   6  -3  -4   22.04    6.97
  -6   3   4   39.38   10.22
  -6   3   4   16.23   10.28
  -6   3   4   26.98   10.64
   6  -3  -4    7.01    6.30
   6  -3  -4   42.30   10.93
   6  -3  -4   33.78    7.55
  -4  -5 -11   39.33   11.51
  -4  -5 -11   28.04   10.36
  -1   9  -4   92.00   19.16
  -1   9  -4  135.11   23.09
   1  -9   4  106.76   19.10
   1  -9   4  131.09   21.92
  -1   9  -4  116.10   16.83
  -1   9  -4   92.38   20.95
  -1   9  -4   73.99   25.69
   4   0  -8   10.05    5.24
  -4   0   8    4.47    8.36
  -4   0   8    3.25    4.69
  -4   0   8   20.43    5.30
   4   0  -8   -5.38    7.23
  -3   0   9    5.23    6.61
  -3   0   9   13.53    8.04
   3   0  -9    8.82    4.66
   3   0  -9    0.70    5.64
  -3   0   9    2.70    4.52
  -4  -1   8   76.10   23.05
  -4  -1   8   99.64   17.31
   4   1  -8  127.75   15.16
  -4  -1   8  137.31   18.31
  -6  -8   1   15.61    7.30
  -6  -8   1   30.79    7.76
   6   8  -1   22.91    8.17
   6   8  -1   22.25    6.71
  -5  -7   4   31.66   10.63
  -5  -7   4   30.13    5.20
  -5  -7   4   10.82   14.99
   5   7  -4   20.87   13.39
   5   7  -4   39.39    9.52
  -2   8   5    7.68    4.62
   2  -8  -5    5.97    5.15
   2  -8  -5    0.35    2.80
   2  -8  -5    1.86    3.45
   2  -8  -5    5.69    3.81
   2  -8  -5   -2.71    6.60
  -2   8   5   -0.50    4.48
  -3  -5 -11  133.56   25.18
  -3  -5 -11  133.71   23.91
  -3  -5 -11  181.46   23.88
  -6   3  -9   29.34    9.08
  -6   3  -9   10.66   11.10
   6  -3   9   12.26    7.97
   6  -3   9   18.72    7.11
   6  -3   9   16.89   10.47
  -5   7  -3    7.20    7.09
  -5   7  -3    0.06    2.55
   5  -7   3   69.80   67.97
  -5   7  -3    0.66   10.09
  -6  -9  -2  572.62   75.63
  -6  -9  -2  524.40   52.72
   6   9   2  507.18   56.19
  -6  -9  -2  580.66   73.00
   6   9   2  523.21   69.10
   6   9   2  546.43   69.70
  -8  -5   0   23.67    9.43
  -8  -5   0   20.24    8.65
   8   5   0   38.20    8.62
  -8  -5   0   38.27   11.00
  -2   9  -3  189.58   38.08
   2  -9   3  167.14   26.97
  -2   9  -3  175.39   25.28
   2  -9   3  207.76   28.28
  -7  -8  -2  198.48   26.88
   7   8   2  213.56   24.02
   7   8   2  168.08   21.42
   7   8   2  178.47   29.44
  -7  -8  -2  195.73   22.25
  -7  -8  -2  173.84   26.77
  -1   2 -11  127.93   19.29
  -1   2 -11  100.33   19.47
   1  -2  11   70.99   13.48
  -1   2 -11   98.04   16.00
   1  -2  11   95.71   13.76
  -1   2 -11   93.58   20.63
  -1   2 -11  138.57   20.36
  -4 -10  -1   25.17    9.55
  -4 -10  -1   23.39    8.96
   4  10   1   30.65    9.56
   4  10   1   31.39    9.12
   4  10   1   23.93    8.98
   5  -1  11   40.25    8.79
   5  -1  11   74.28   12.46
  -5   1 -11   72.71   13.83
  -5   1 -11   42.81   12.55
  -5   1 -11   54.56   13.33
  -5   1 -11   65.52   21.51
   5  -1  11   49.80   15.45
   1   8  -6   -2.18    6.84
   1   8  -6    2.76    5.41
  -1  -8   6    6.94    8.95
  -1  -8   6    7.03    4.26
   1   8  -6   -0.11    4.20
  -4  -8   4   29.31    8.77
  -4  -8   4    9.87    7.40
   4   8  -4    8.51   10.77
   4   8  -4   21.18    8.89
  -4  -8   4   32.60    8.68
  -2  -9  -7   20.43    9.15
  -2  -9  -7   13.01    4.84
  -2  -9  -7   20.35    5.23
  -2  -9  -7   33.44    9.78
  -2  -9  -7   15.50    4.24
   2   9   7   21.16    4.68
   2   9   7   21.51    4.36
  -4   8  -1    0.11   11.14
  -4   8  -1   38.08    9.56
  -4   8  -1   21.57    4.96
   4  -8   1   51.60   13.91
   4  -8   1   26.86   11.47
  -9  -2  -4   -5.52    8.36
  -9  -2  -4    6.81    9.72
   9   2   4    0.49    5.20
  -9  -2  -4   17.12    9.32
   4  10   4    1.63    4.57
  -4 -10  -4    3.80    6.06
  -4 -10  -4    8.78    7.31
  -4 -10  -4    0.17    3.98
   4  10   4   -7.58    6.77
   4  10   4   10.59    6.47
   3   1  -9   21.28   10.93
   3   1  -9   50.15   11.31
  -3  -1   9   50.51   11.09
  -3  -1   9   78.95   14.89
  -3  -1   9   54.62   14.54
  -1  -8  -8    8.56    4.33
  -1  -8  -8    8.20    6.57
  -1  -8  -8   17.73    7.98
   2   9  -4   -0.80    6.81
  -2  -9   4    0.27    4.75
  -2  -9   4   -1.74    1.42
  -2  -9   4   -3.28    7.93
   2   9  -4   -7.98    3.88
   0 -10   1   -9.63    5.66
   0  10  -1    7.07    6.71
   0 -10   1   -6.67    7.47
   0  10  -1    4.14   10.36
   6   3  11  255.86   35.76
   6   3  11  216.35   30.86
  -6  -3 -11  203.07   26.02
  -6  -3 -11  226.14   26.69
  -6  -3 -11  152.60   19.73
  -8   2  -1  467.31   74.44
   8  -2   1  503.75   95.08
   8  -2   1  503.68   58.02
  -8   2  -1  550.43   70.95
  -9  -3  -4  153.00   19.55
   9   3   4  134.99   36.06
   9   3   4  220.52   37.82
  -9  -3  -4  178.53   28.92
  -9  -3  -4  176.40   31.48
   5  -5   8    0.64    7.81
  -5   5  -8   16.71   12.01
  -5   5  -8   14.95    9.01
  -5   5  -8   15.99    8.35
  -5  -6   5    3.74    6.98
   5   6  -5    1.63    7.64
  -5  -6   5   -0.38    7.44
  -5  -6   5   15.48    9.72
   6  -4   8   19.51    9.13
  -6   4  -8   22.36    8.12
   6  -4   8   23.47    9.80
  -6   4  -8   45.31    9.86
  -4   8  -2   54.41   71.82
  -4   8  -2   58.49   15.67
   4  -8   2   46.02   14.15
  -6  -1 -11   -5.80    6.94
  -6  -1 -11   -1.89    5.09
   6   1  11   10.55    6.35
   6   1  11    5.23    3.72
  -4   2 -11    1.49    6.25
  -4   2 -11    3.72    9.61
   4  -2  11   -8.31   10.87
  -4   2 -11    3.35    6.24
   4  -2  11    0.28    6.52
  -4   2 -11    2.02    5.49
  -8   0   1   -1.50    7.24
  -8   0   1   -4.33    5.44
  -8   0   1   -3.80    7.84
   8   0  -1   -0.55    8.39
   7  -4   0   20.50   10.32
   7  -4   0   31.40   10.41
   7  -4   0    4.56    5.59
   7  -4   0   12.76    5.70
  -7   4   0   -8.93    7.56
  -7   4   0   24.72    7.38
  -7   4   0   30.11    9.15
  -3  -6   7   -6.95    4.39
   3   6  -7   -1.72    8.26
   3   6  -7   10.90    9.45
  -3  -6   7    0.23   47.94
  -3  -6   7   -9.09    8.61
   9   2   5  -11.01    8.23
  -9  -2  -5    9.58    7.65
  -9  -2  -5   11.34    9.18
   9   2   5   -3.09    7.24
  -7  -4 -10    1.81    7.68
   7   4  10   13.98    8.04
   7   4  10   -0.64    4.37
  -7  -4 -10    5.53    5.91
  -7  -4 -10   -7.01    9.22
   6  -6   2   -8.08    7.03
  -6   6  -2    1.83    6.71
   6  -6   2   -9.31    5.57
   6  -6   2   -1.96    2.57
  -6   6  -2    3.42    8.48
   8  -2   6   33.96    9.60
  -8   2  -6   21.23    8.57
  -8   2  -6   26.77    7.03
   8  -2   6   32.23   11.59
  -6  -9  -5    8.57    6.59
  -6  -9  -5    8.74    7.72
   6   9   5    1.47    5.64
  -6  -9  -5  -13.48    8.41
   6   9   5    7.58    8.58
   6   9   5    7.12    5.69
   0  -2 -11   18.87    8.00
   0  -2 -11    8.03    8.34
   8   5   8    1.31    5.33
   8   5   8    2.11    8.82
  -8  -5  -8   -5.03    6.01
  -8  -5  -8    2.88    4.04
  -8  -5  -8   -2.96    7.83
  -9  -3  -5   72.40   16.38
   9   3   5   93.15   22.05
   9   3   5   80.82   16.25
  -9  -3  -5  102.94   21.61
  -1 -10  -4  156.18   93.97
   1  10   4   14.37    7.17
   1  10   4   15.30    7.35
   3  -1  -9   47.32    8.02
   3  -1  -9   40.92    8.13
  -3   1   9   56.72   12.11
  -3   1   9   46.03   10.75
  -3   1   9   80.72   16.86
   3  -1  -9   34.49   12.32
   5   9  -1  157.12   19.85
  -5  -9   1  148.97   28.39
   5   9  -1  124.86   24.70
  -5  -9   1   84.22   14.29
   5   9  -1  112.46   20.00
   2  -4  -9  101.89   13.23
   2  -4  -9  120.04   18.50
  -2   4   9  121.90   13.83
  -3  -8   5  113.22   17.40
  -3  -8   5   85.09   16.35
  -3  -8   5  107.26   17.29
   3   8  -5   93.96   23.48
   3   8  -5   95.44   14.83
  -6   6  -3  110.01   11.67
  -6   6  -3   75.23   16.77
   6  -6   3   90.60   17.92
   6  -6   3  125.41   19.59
   6  -6   3  143.46   28.66
  -6   6  -3  135.74   18.59
   0  -5 -10  326.50   41.55
   0  -5 -10  278.21   48.98
   0  -5 -10  276.74   33.52
  -5   3 -10  227.17   31.35
   5  -3  10  205.74   51.50
  -5   3 -10  252.01   49.29
   5  -3  10  226.65   39.50
   5  -3  10  250.20   46.12
  -5   3 -10  288.24   33.18
  -5   3 -10  280.00   47.92
  -5   7   0   26.70   11.40
  -5   7   0   -0.33    5.92
  -5   7   0   11.37    8.39
   5  -7   0    1.22    9.69
   5  -7   0   12.55    8.02
   3  -4  -8  166.91   32.91
  -3   4   8  124.91   18.03
   3  -4  -8  120.29   15.46
   3  -4  -8  124.93   16.42
   3  -4  -8   90.03   41.63
  -3   4   8  100.93   22.05
  -6  -7  -9   65.78   14.57
  -6  -7  -9   31.85    9.16
  -6  -7  -9   51.94   11.38
  -6  -7  -9   66.54   12.07
   6   7   9   63.47    8.64
   9   2   3  198.59   29.78
  -9  -2  -3  166.67   21.40
  -9  -2  -3  110.38   28.35
  -9  -2  -3  185.11   31.01
  -4   5   6    9.39    7.11
  -4   5   6    0.32    4.10
  -4   5   6    0.46    5.91
   4  -5  -6    5.34    7.01
   4  -5  -6    4.34    5.92
   4  -5  -6   -4.26    5.20
   4  -5  -6    0.57    3.15
   4  -5  -6   12.96    8.07
  -4   5   6    1.05    2.90
   8   6   1   72.44   16.16
  -8  -6  -1   92.53   12.90
  -8  -6  -1   70.10   15.50
   4  -7   6    2.05    6.78
   4  -7   6   26.31    9.19
  -4   7  -6   11.14    8.16
  -4   7  -6    3.12    2.58
  -3   8  -5  207.90   25.64
  -3   8  -5  184.80   32.64
   3  -8   5  316.72   43.36
   3  -8   5  178.88   29.83
   8   6   7   16.27    8.55
   8   6   7   15.46    9.41
  -8  -6  -7    5.83    6.99
  -8  -6  -7    2.19    3.14
  -8  -6  -7   -0.11    6.25
  -4   8   0   24.54    5.45
   4  -8   0   41.75   12.89
  -4   8   0   29.32    7.94
   4  -8   0   48.63   13.32
  -4   8   0   35.07    9.89
  -3   7  -7    2.86    8.81
   3  -7   7    6.52    8.92
   3  -7   7   -4.19    5.34
  -3   7  -7    4.46    4.47
  -3   7  -7   15.65    9.21
  -4   1   8   71.56   16.83
  -4   1   8   39.74    9.99
   4  -1  -8   38.57    9.52
   4  -1  -8   51.90    7.33
   4  -1  -8   50.15    8.29
  -4   1   8   70.20   14.83
   3  10   5  131.94   29.87
   3  10   5  126.30   30.71
  -3 -10  -5  143.53   33.77
  -3 -10  -5  143.55   27.55
  -3 -10  -5  156.89   22.44
  -3 -10  -5  100.15   18.91
  -3 -10  -5  136.88   23.62
   0   1 -11   30.16    9.08
   0  -1  11   49.57   10.80
   0  -1  11   42.12    7.70
   0   1 -11   37.19    6.58
   0   1 -11   19.39    6.81
   0   1 -11   24.34    9.99
   4   2  -8   59.93   15.50
  -4  -2   8   57.00   13.30
  -4  -2   8   57.60   19.06
  -4  -2   8   60.96   16.31
   9   3   3  160.92   25.05
  -9  -3  -3  176.80   29.19
  -9  -3  -3  180.66   28.67
  -9  -3  -3  171.18   26.59
  -1  -4 -11  -11.84   10.56
  -1  -4 -11   -2.72    6.69
  -1  -4 -11   -2.00    5.10
  -2  -4   9   16.98    9.27
  -2  -4   9   12.23    6.06
   2   4  -9   14.45    9.52
  -2  -4   9   21.06    7.53
  -1  -3  10  248.00   30.46
   1   3 -10  178.10   37.89
  -1  -3  10  236.10   50.55
  -1  -3  10  258.80   38.28
  -9  -1  -4  355.94   43.81
   9   1   4  305.52   62.25
  -9  -1  -4  327.33   48.95
   3  10  -1  676.51  138.35
   3  10  -1  743.82   81.39
   3  10  -1  735.71   63.04
  -3 -10   1  761.95   89.33
  -3 -10   1  713.11  133.23
  -8  -2  -9   -9.05    7.48
  -8  -2  -9   -3.85    6.32
   8   2   9   -0.22   11.06
   8   2   9    3.50    5.95
  -7  -6  -9   81.85   14.59
  -7  -6  -9   89.85   15.80
  -7  -6  -9   75.95   15.50
  -7  -6  -9   97.58   17.08
   7   6   9   57.82   11.34
   7   6   9  122.41   20.84
   1   5  -9  207.60   40.36
  -1  -5   9  199.71   46.31
  -1  -5   9  186.73   31.78
  -8  -4   1   43.54    7.05
  -8  -4   1   47.22   13.43
   8   4  -1   40.54   12.84
  -8  -4   1   49.33   10.44
  -7   4  -6   56.37   15.26
  -7   4  -6   32.77    7.89
   7  -4   6   27.96   12.26
   7  -4   6   36.93   10.02
   4  -6  -5   28.11    7.26
   4  -6  -5   32.12    7.98
  -4   6   5   19.75    6.48
   4  -6  -5   10.18    9.12
   4  -6  -5   38.85   11.29
  -4   6   5   27.43    9.38
   4  -6  -5   22.47    6.74
  -4   6   5   22.09    6.97
  -4   6   5   22.39   12.40
  -6   6  -1   38.22   12.89
  -6   6  -1   46.90    9.65
  -6   6  -1   28.47    9.95
   6  -6   1   38.53   13.30
   6  -6   1   36.41   10.52
   6  -6   1   40.71    7.39
   8   3   9  342.75   62.62
   8   3   9  269.89   32.16
  -8  -3  -9  262.75   29.18
  -8  -3  -9  293.18   42.90
   7   8   6  139.20   22.41
   7   8   6  182.66   33.75
   7   8   6  130.42   28.18
  -7  -8  -6  170.70   33.00
  -7  -8  -6  136.55   23.45
  -1  -6 -10  298.40   38.82
  -1  -6 -10  269.18   45.23
  -1  -6 -10  267.40   31.99
  -5  -1   7    9.68    6.56
  -5  -1   7   23.56    9.49
   5   1  -7   -1.38    5.31
  -5  -1   7   23.44   10.44
  -5  -1   7    0.79    7.78
  -5   3   6   51.58   10.08
   5  -3  -6   54.07   11.96
  -5   3   6   79.68   16.55
  -5   3   6   65.80    9.47
   5  -3  -6   71.58   16.52
   5  -3  -6   63.74   11.44
   5  -3  -6   71.97   14.62
   5  -3  -6   35.94   12.30
  -5  -8   3    1.75    3.44
   5   8  -3   16.01    9.24
  -5  -8   3    4.92    7.99
   5   8  -3   -7.26    6.44
   1  10  -2   84.12   15.69
  -1 -10   2   70.84   18.34
  -1 -10   2   62.10   12.63
   1  10  -2   47.40   11.56
   1  10  -2   54.05   11.69
   1  10  -2   93.58   14.71
  -6  -4   5   24.84   10.50
  -6  -4   5   15.91    9.58
   6   4  -5   34.44   11.91
  -6  -4   5   28.70    9.96
  -6  -4   5   49.53   11.80
   0  -4  10   22.56    9.39
   0   4 -10   16.83    5.12
   0   4 -10   26.92   10.24
   0  -4  10   22.71   10.61
   5   5  11   67.69   12.39
   5   5  11   67.59   25.20
  -5  -5 -11   65.59   16.48
  -5  -5 -11   69.10   17.08
  -5  -5 -11   53.65   10.93
   6  -5  -2   55.22   12.92
   6  -5  -2   42.47   11.37
  -6   5   2   34.96   10.58
  -6   5   2   39.46   13.61
  -6   5   2   30.49   13.16
   6  -5  -2   54.45   10.67
   6  -5  -2   38.02   11.56
  -6   5   2   69.75   15.64
   2  -8   6   70.45   15.68
  -2   8  -6   94.58   17.50
  -2   8  -6   66.21   10.90
  -2   8  -6  101.67   16.14
   2  -8   6  102.47   18.29
  -7  -7  -8   41.70    8.50
  -7  -7  -8   52.28    9.78
   7   7   8   43.64   10.03
  -7  -7  -8   24.22    9.53
   7   7   8   24.93    6.56
  -4   5  -9    7.09    8.59
  -4   5  -9   35.90    7.24
   4  -5   9    3.44    8.32
  -4   5  -9   12.71   10.54
  -4   5  -9   18.98    7.81
   4  -5   9   38.07   11.10
  -7   0 -10   -0.11    9.19
  -7   0 -10   -0.69    7.56
   7   0  10   -0.88    6.97
   7   0  10   -2.29    7.20
   0 -10  -3    2.98    7.90
   0 -10  -3    2.11    6.73
   0  10   3    6.21    9.18
   0  10   3    6.25    7.02
  -9  -1  -5   75.60   19.88
   9   1   5   70.15   17.68
  -9  -1  -5   42.85   18.38
   5  -6  -3  125.45   21.61
  -5   6   3  125.35   20.71
   5  -6  -3  102.23   20.08
  -5   6   3  154.75   29.25
  -5   6   3  123.98   22.28
  -5   6   3   89.03   14.64
   5  -6  -3  160.81   20.60
   5  -6  -3  128.93   26.13
   6  -2  10    9.04    6.85
  -6   2 -10   23.11    8.31
   6  -2  10   30.51    9.11
  -6   2 -10   22.95    9.23
   6  -2  10   18.77    8.17
  -8  -7  -4   52.28   13.64
   8   7   4   70.02   14.34
   8   7   4   31.35   10.31
  -8  -7  -4   51.87   16.69
  -2 -10  -5   -1.60    2.69
  -2 -10  -5    5.15    6.17
  -2 -10  -5    2.68    7.24
  -2 -10  -5    2.63    5.34
   2  10   5   -1.09    3.76
   2  10   5    2.85    4.33
  -2 -10  -5    5.39    5.67
   4  -8   3    6.82    9.18
  -4   8  -3   27.94    9.85
  -4   8  -3   15.10   11.13
   9   4   4  237.97   40.41
  -9  -4  -4  237.38   50.82
   9   4   4  213.39   38.23
  -9  -4  -4  162.00   25.56
  -9  -4  -4  246.45   42.89
   5  -7   4  138.00   20.00
  -5   7  -4   69.30   20.64
   5  -7   4   92.24   14.14
  -5   7  -4   93.46   16.90
  -5   7  -4  114.39   19.11
  -5   7  -4  104.09   13.82
   5   0  -7   34.65    8.00
  -5   0   7   65.33   18.13
  -5   0   7   55.84   11.99
  -5   0   7   81.20   19.85
   2   0 -10   14.74    6.37
  -2   0  10    8.40    7.73
  -2   0  10   15.90    7.82
  -2   0  10   10.59    6.05
   2   0 -10    6.06    4.92
   6   6  10   65.33   10.65
  -6  -6 -10   63.59   19.07
  -6  -6 -10   95.94   12.98
  -6  -6 -10   52.92   12.59
  -6  -6 -10   52.81   15.63
   6   6  10   69.49    9.88
  -2   9   3   -3.22    6.47
   2  -9  -3    3.94    6.86
  -2   9   3   -0.72    6.75
   2  -9  -3   -0.92    6.77
  -7  -6   2  414.67   57.79
  -7  -6   2  417.15   52.93
  -7  -6   2  454.72   51.55
   7   6  -2  424.34   78.89
  -3  -2   9   21.54    7.72
  -3  -2   9    6.90    6.17
  -3  -2   9   29.93    9.67
   3   2  -9   12.22    6.70
  -9  -1  -3    3.74    6.84
   9   1   3    1.69   10.07
  -9  -1  -3   33.38   10.69
  -9  -1  -3    8.26    6.09
  -2  -5 -11   -2.94    8.29
  -2  -5 -11    2.83    6.76
  -2  -5 -11    8.38    6.37
  -6  -9  -1  264.84   45.53
   6   9   1  295.11   36.46
   6   9   1  200.82   27.05
   6   9   1  271.64   45.97
  -6  -9  -1  266.50   29.69
   9   2   6    7.74   11.07
  -9  -2  -6   40.96   11.23
  -9  -2  -6   12.30    7.90
   9   2   6   18.73    7.07
  -5  -9  -7  370.57   46.43
  -5  -9  -7  383.74   70.68
  -5  -9  -7  347.26   54.16
   5   9   7  310.60   50.83
   5   9   7  367.93   48.75
   5   9   7  391.27   45.56
  -5  -9  -7  397.28   68.34
   9   3   6  150.17   30.48
   9   3   6  170.56   35.66
  -9  -3  -6  177.07   35.23
  -9  -3  -6  135.82   35.71
   9   4   5   14.49   11.27
   9   4   5    7.74    8.06
  -9  -4  -5   26.08   11.09
  -9  -4  -5   -7.92    7.35
  -6   6  -4   62.44   13.76
   6  -6   4   28.74   12.21
  -6   6  -4   31.14    5.67
   6  -6   4   27.12   11.59
   6  -6   4   33.38    6.38
  -3  -1 -12    0.75    3.48
   3   1  12   -1.52    2.53
  -3  -1 -12   -6.29    6.51
  -3  -1 -12   -4.40    5.16
  -3  -1 -12   -2.76    3.38
   3   1  12    5.54    3.46
   6   4  11  147.22   19.61
  -6  -4 -11  130.78   24.93
  -6  -4 -11  140.39   20.92
  -6  -4 -11  141.27   17.77
   6   4  11  154.27   28.09
   0  -9  -6   68.71   14.43
   0  -9  -6   69.71   11.54
   0  -9  -6   68.54   16.26
   0  -9  -6   77.87   10.80
   0   9   6   53.26   16.52
   0   9   6   89.47   11.08
  -8  -7  -5  161.81   31.12
  -8  -7  -5  106.41   19.27
   8   7   5  131.80   15.26
   8   7   5  147.71   24.08
   4  10   0   54.56   11.18
   4  10   0   77.85   14.80
  -4 -10   0   58.88   12.31
  -4 -10   0   56.35   11.63
   4  10   0   56.60   11.79
   3   2  12   61.38   13.24
  -3  -2 -12   72.64   14.69
  -3  -2 -12   67.96   15.98
   7  -3  -2    1.76    8.27
   7  -3  -2   10.80    7.68
   7  -3  -2    3.03    5.84
  -7   3   2    5.05    8.66
  -7   3   2   -5.60    9.45
  -7   3   2   -6.13    6.01
   7  -3  -2   -2.42    9.82
  -2 -10   2  206.54   28.32
  -2 -10   2  191.36   29.23
   2  10  -2  159.86   31.60
   2  10  -2  157.13   26.47
   2  10  -2  207.99   30.26
   8   7   3   17.93    9.35
   8   7   3   12.03    8.02
  -8  -7  -3   27.27    8.73
  -8  -7  -3   30.33   10.44
   4  10   5    0.91    4.86
  -4 -10  -5    0.57    8.49
  -4 -10  -5   -3.42    3.17
  -4 -10  -5   -1.91    6.13
  -4 -10  -5    4.58    5.65
   4  10   5   -0.52    5.56
   4  10   5    3.52    6.59
  -4  -7 -10   13.67    8.29
  -4  -7 -10    4.73    5.80
  -4  -7 -10   10.73    8.11
  -2   1  10   10.76    3.65
   2  -1 -10   11.96    5.65
   2  -1 -10   13.17    4.55
  -2   1  10    6.21    7.20
  -2   1  10    1.17    5.59
  -4  -8  -9   55.39   17.15
  -4  -8  -9   55.10   13.12
   4   8   9   57.01    8.10
   6   8   8   20.92    5.98
  -6  -8  -8    9.39    4.75
   6   8   8   23.85    6.60
  -6  -8  -8    7.73    6.34
  -6  -8  -8    5.73    5.05
  -6  -8  -8   10.70   10.15
   6   8   8    7.25   10.71
  -6   0 -11   61.45   15.61
   6   0  11   56.85   13.69
   6   0  11   35.30   11.59
  -6   0 -11   33.31   13.01
  -5  -2   7   61.54   23.95
  -5  -2   7   72.64   13.96
   5   2  -7   70.31   18.45
  -5  -2   7   50.33   13.23
  -5  -2   7   72.46   10.99
  -4  -5   7   -4.87    8.76
   4   5  -7    2.77   10.47
  -4  -5   7    3.08    8.74
  -4  -5   7   -2.83    5.40
  -3  -8  -9   38.09   11.17
  -3  -8  -9   24.25    9.08
  -3  -8  -9   36.73   11.10
   2   7  -7  104.04   18.92
  -2  -7   7   75.37   13.14
  -2  -7   7   70.89   19.65
  -2  -7   7   70.47   10.70
   7   8   1   -0.66    6.85
  -7  -8  -1    6.36    7.26
  -7  -8  -1   12.08    6.50
   7   8   1    9.30    9.58
   8   1   9   49.26   13.61
  -8  -1  -9   50.95   12.68
  -8  -1  -9   50.03   12.42
   8   1   9   56.34   14.22
   4  -4  10  164.78   34.29
   4  -4  10  118.91   17.73
  -4   4 -10  124.36   21.24
  -4   4 -10  162.63   23.77
  -4   4 -10  112.89   24.80
   4  -4  10  137.38   18.40
  -7  -1   4  244.85   31.09
  -7  -1   4  185.92   40.68
  -7  -1   4  252.86   38.03
   7   1  -4  167.68   23.88
   6  -2  -5  157.29   21.68
   6  -2  -5  121.44   18.19
   6  -2  -5  173.48   28.31
  -6   2   5  187.11   31.93
  -6   2   5  183.20   25.04
  -6   2   5  166.69   22.45
  -6   2   5  152.22   26.36
  -3  -7 -10   -4.74    7.97
  -3  -7 -10  -10.89    7.41
  -3  -7 -10   -9.37    5.64
  -2  -1  10   48.51   11.56
  -2  -1  10   79.01   16.73
   2   1 -10   83.10   13.07
  -2  -1  10   70.66   13.80
   4   2  12  117.22   23.40
   4   2  12   98.62   16.50
  -4  -2 -12   77.13   15.72
  -4  -2 -12   73.00   14.93
   0  10  -2    8.73    9.07
   0 -10   2    0.98    6.69
   0  10  -2    3.58    8.14
   0 -10   2   -3.64    5.75
  -7  -2   4  151.55   22.94
  -7  -2   4  138.25   30.93
  -7  -2   4  103.09   17.65
   7   2  -4  119.88   19.70
  -7  -2   4  127.12   20.67
  -9  -2  -2   -7.69    9.54
  -9  -2  -2   -0.50    7.81
   9   2   2    6.33    7.98
  -9  -2  -2   11.22   11.96
   9   4   3    8.80    8.77
  -9  -4  -3    0.79    8.07
  -9  -4  -3    5.72    8.38
  -9  -4  -3  -10.98    7.24
   1  -4 -10    4.02    5.47
   1  -4 -10   27.08    7.63
   1  -4 -10    3.34    4.32
  -7  -7   1   57.09    9.45
  -7  -7   1   26.22   11.43
   7   7  -1   70.05   13.65
   4   1  12   -6.38    5.37
   4   1  12    3.35    3.14
  -4  -1 -12    0.36    4.70
  -4  -1 -12   -5.77    6.55
  -4  -1 -12   -7.08    6.18
  -4  -1 -12   -2.29    6.24
  -4   8   1  247.29   30.59
  -4   8   1  188.22   22.19
   4  -8  -1  158.62   38.05
   4  -8  -1  208.94   23.51
  -4   8   1  182.04   23.33
   8   4   9  108.51   27.78
  -8  -4  -9   92.76   20.78
  -8  -4  -9  101.58   21.55
   8   4   9  102.66   26.41
  -3   2   9   64.42   13.94
  -3   2   9  101.08   21.62
   3  -2  -9   88.92   14.12
  -3   2   9   65.08   16.69
   3  -2  -9   57.46   13.56
   2  -3  11    5.52    7.39
   2  -3  11    7.09    6.66
  -2   3 -11    6.36    5.25
  -2   3 -11   11.23    6.58
  -2   3 -11   17.72    9.36
  -2   3 -11    6.34    7.35
   4  -4  -7  449.51   55.36
   4  -4  -7  578.20   89.63
   4  -4  -7  473.46   53.47
   4  -4  -7  607.70  112.15
   4  -4  -7  478.23  122.37
  -4   4   7  525.22   83.61
  -4   4   7  603.99   71.74
  -4   4   7  514.66  139.25
   4  -6   8  219.39   31.05
   4  -6   8  209.92   31.21
   4  -6   8  137.33   54.12
  -4   6  -8  187.11   31.03
  -4   6  -8  163.31   45.37
  -4   6  -8  223.10   36.75
  -6  -9  -6   60.09   12.91
   6   9   6  106.85   17.81
   6   9   6   87.99   13.57
   6   9   6   72.54   16.80
  -6  -9  -6   75.70   13.33
  -6  -9  -6   92.85   18.25
  -7   2  -9   13.09    7.76
   7  -2   9  -16.33    6.90
   7  -2   9   -2.38    3.16
  -7   2  -9    3.47    9.11
   7  -2   9   -4.07    6.56
   7  -2   9   -3.40   11.07
   7  -3   8   33.63    8.67
   7  -3   8   18.95   12.64
  -7   3  -8   24.48    6.39
  -7   3  -8   43.29   11.27
   7  -3   8   28.52    9.96
   7  -3   8   23.94    5.33
   9   3   2   21.76   10.43
  -9  -3  -2   34.59   10.96
  -9  -3  -2    9.00    8.90
  -9  -3  -2   23.97    9.27
  -6  -7   3    3.78    8.89
  -6  -7   3    0.82    3.18
   6   7  -3   -5.55    7.22
   0  -3 -11    2.37    5.82
   0  -3 -11    6.01    4.47
   1 -10   0  169.18   32.45
  -1  10   0  230.80   37.65
  -1  10   0  155.32   25.64
   1 -10   0  204.81   28.48
   7  -2  -3   30.68   10.81
  -7   2   3   32.67    8.69
   7  -2  -3   21.31    9.91
   7  -2  -3   32.62   10.81
  -7   2   3   35.50    8.44
  -7   2   3   26.45    9.73
  -7   2   3   19.35    7.14
  -1   9   5  318.51   49.32
   1  -9  -5  345.46   46.43
   1  -9  -5  290.39   43.25
   1  -9  -5  294.45   35.01
   1  -9  -5  289.16   79.34
  -1   9   5  348.37   67.26
   6  -5   7    9.97    9.31
   6  -5   7    4.02    7.21
  -6   5  -7   -5.63    6.13
  -6   5  -7   12.71    6.66
  -8   3  -3  321.40   51.51
  -8   3  -3  364.92   58.22
   8  -3   3  342.24   63.38
   8  -3   3  277.93   38.01
  -5  -5   6  267.14   51.19
  -5  -5   6  339.38   57.13
  -5  -5   6  271.49   43.22
   5   5  -6  277.06   45.11
  -9  -1  -6   98.87   20.17
   9   1   6   91.76   19.49
  -9  -1  -6   69.86   20.05
   7   5  -3   65.56   12.93
  -7  -5   3   48.22   13.06
  -7  -5   3   46.53    6.17
  -7  -5   3   40.82   13.90
  -7  -5   3   16.92   15.18
  -7  -5   3   45.74   12.68
  -8   3  -4    8.76    8.77
   8  -3   4    6.74    8.48
   8  -3   4    9.08    7.32
  -8   3  -4   33.15    8.63
  -5 -10  -3  351.95   50.99
  -5 -10  -3  339.81   45.77
  -5 -10  -3  347.51   80.73
   5  10   3  297.00   51.26
   5  10   3  344.32   54.22
   5  10   3  346.54   59.07
   5  -7  -1   73.78   16.20
   5  -7  -1   71.54   18.75
  -5   7   1   92.17   15.64
  -5   7   1   90.44   14.53
  -5   7   1   97.82   14.99
   8  -1   8   50.27   13.44
   8  -1   8   62.18   17.20
  -8   1  -8   34.69    9.67
  -8   1  -8   57.65   12.30
   3   0  12   -2.39    3.41
   3   0  12    0.50    2.61
  -3   0 -12   -6.31    3.76
  -3   0 -12   -3.99    3.61
  -3   0 -12   17.92   12.60
  -3   0 -12   -0.92    5.40
  -9  -4  -6    5.46    8.86
  -9  -4  -6   -2.69    6.10
   9   4   6   10.21   10.11
   9   4   6    2.36   12.91
   1 -10  -1   79.66   15.00
   1 -10  -1   47.63   12.90
  -1  10   1   66.14   14.35
  -1  10   1   40.58   11.59
  -6   6   0   -1.24    7.65
  -6   6   0   -8.76    5.58
  -6   6   0   -3.57    5.40
   6  -6   0   14.81    7.15
   6  -6   0   -2.94    6.90
   6  -6   0    2.51    3.56
  -3   3 -11   50.34    9.11
  -3   3 -11   75.88   18.54
  -3   3 -11   56.78   14.50
  -3   3 -11   63.57   14.45
   3  -3  11   64.31   12.88
   3  -3  11   45.90    8.91
   6   6  -4    7.85    7.88
  -6  -6   4  -16.93   10.31
  -6  -6   4   -1.94    7.53
   1   9   7   30.84    5.42
   1   9   7   43.56    7.49
  -1  -9  -7   30.22    8.02
  -1  -9  -7   35.76    9.75
  -1  -9  -7   18.79    9.97
  -1  -9  -7   38.84    6.18
  -3   9  -1  -10.42    6.34
   3  -9   1   -2.05    7.34
  -3   9  -1    4.37    9.25
   3  -9   1    0.18    8.49
   1  -7  -8   27.64    8.59
   1  -7  -8   14.75    5.69
   1  -7  -8    9.84    8.47
  -2  -1 -12  122.38   18.25
  -2  -1 -12  135.52   22.69
  -2  -1 -12  107.16   17.13
   2   1  12  117.65   23.52
   7   5  10   33.77   10.37
   7   5  10   16.39    8.16
  -7  -5 -10   11.89    8.44
  -7  -5 -10   19.18    6.32
  -7  -5 -10   34.35    6.83
  -7  -5 -10   51.33   13.26
  -2  -8   6  231.47   40.52
  -2  -8   6  234.82   44.72
   2   8  -6  243.70   36.22
   2   8  -6  227.35   36.92
  -2  -8   6  213.01   32.70
   5  -6   7    8.19    8.08
  -5   6  -7    1.58    3.02
  -5   6  -7    1.05    3.24
  -5   6  -7   13.62    8.34
  -8   1   1  212.56   37.93
  -8   1   1  216.64   39.09
  -8   1   1  237.97   39.79
   8  -1  -1  190.62   38.55
   2  -9   4  -10.72   10.63
  -2   9  -4   -5.63    9.93
   2  -9   4    9.16    7.96
  -5   1   7    3.23    5.94
   5  -1  -7    2.94    3.32
  -5   1   7    7.06    9.58
  -5   1   7    4.02    4.89
   5  -1  -7    0.93    6.26
   0  -9   5  208.59   41.82
   0   9  -5  163.30   34.53
   0   9  -5  193.74   27.93
   0   9  -5  203.24   31.34
   0  -9   5  215.60   22.93
   0   9  -5  180.59   32.50
   8  -2   0   56.34    9.62
   8  -2   0   43.22   13.01
  -8   2   0   61.58   15.16
  -8   2   0   61.01   15.71
   2   6  -8    4.64    7.51
  -2  -6   8    5.55   10.41
  -2  -6   8   14.90   10.45
  -2  -6   8    3.37    5.65
  -9  -1  -2  449.41   89.06
   9   1   2  466.37   78.12
  -9  -1  -2  494.19   65.55
  -9  -1  -2  510.51   70.73
  -9   0  -4   90.33   16.09
   9   0   4   91.67   20.90
  -9   0  -4  127.30   19.02
   3  -9   0   11.40   11.88
  -3   9   0   70.65   11.41
  -3   9   0   40.36   12.05
  -4   2   8   31.29    7.53
   4  -2  -8   34.45    8.69
  -4   2   8   32.27    8.39
   4  -2  -8   36.31    9.15
  -4   2   8   58.51   16.10
   4  -2  -8   23.07    8.57
   5  10   2   51.17   13.26
   5  10   2   17.67    8.99
  -5 -10  -2   30.94   11.88
  -5 -10  -2    4.31    6.82
   5  10   2   11.48   12.66
  -3  -5   8   33.62   10.83
  -3  -5   8   24.83   13.81
   3   5  -8    8.99   10.34
  -3  -5   8    9.52   11.80
   4   3  -8   -4.99    5.88
  -4  -3   8   -0.51    4.43
  -4  -3   8   11.28   10.60
  -4  -3   8    8.08    5.50
  -3  -3 -12    6.43   11.31
   8   7   6   64.36   17.60
   8   7   6   39.22   10.51
  -8  -7  -6   42.43   12.64
  -8  -7  -6   52.87   11.54
  -1   6  -9    3.01    8.37
   1  -6   9    7.92    7.75
   1  -6   9    2.43    7.53
  -1   6  -9   -5.31    3.77
  -1   6  -9   -0.54    6.47
  -4  -3 -12   -4.74   11.52
   4   3  12   19.91    5.61
   4   3  12    5.45    2.77
  -4  -3 -12    3.44    3.01
  -7   0   4    6.36    4.08
   7   0  -4   -7.99    9.96
  -7   0   4   11.83    8.35
  -7   0   4   -3.93    7.09
   2  -7  -7  147.08   22.81
   2  -7  -7  107.47   14.52
   2  -7  -7  134.25   22.00
  -2   7   7  123.64   26.28
  -2   7   7  149.26   21.33
   2  -7  -7  179.53   28.97
   4   9  -3  124.16   28.79
  -4  -9   3  138.47   23.48
  -4  -9   3  154.38   23.63
   1 -10   1    7.59    8.00
   1 -10   1   20.76   11.55
  -1  10  -1   31.18    8.80
  -3   8   4   58.13   12.91
   3  -8  -4   42.34   19.52
  -3   8   4   53.58   10.99
   3  -8  -4   41.49   11.51
  -3   8   4   85.19   18.89
   3  -8  -4   39.25   11.17
   3  -8  -4   86.40   13.55
   0   2 -11    4.35    2.80
   0  -2  11   -0.56    4.29
   0  -2  11   11.37    6.73
   0   2 -11    7.57    5.67
  -5 -10  -4    1.40    7.75
   5  10   4    2.38    6.37
   5  10   4    6.06    7.31
  -5 -10  -4    7.38    5.43
   5  10   4    4.16    7.87
  -5 -10  -4    2.03    5.98
   8  -2   7    4.56    8.47
  -8   2  -7    8.44    8.67
  -8   2  -7    2.25    7.48
   8  -2   7   -8.52    7.20
   2   2  12    2.29    1.55
  -2  -2 -12    2.30    7.90
  -2  -2 -12   -2.22    5.48
   2   2  12    0.17    1.47
   2  -6  -8  145.31   21.17
  -2   6   8  158.61   24.06
   2  -6  -8  143.36   23.68
   2  -6  -8  152.58   24.49
   1  -7   8   22.82   12.29
   1  -7   8   15.80    5.84
   1  -7   8   28.01    8.08
  -1   7  -8   43.18   11.38
  -1   7  -8   36.67    8.69
  -1   7  -8   39.58   14.28
   8   2  -2   36.57   11.20
  -8  -2   2   39.80   15.61
  -8  -2   2   41.19   10.54
  -8  -2   2   27.88    9.53
   8   7   2   31.09   12.10
  -8  -7  -2   36.09   13.11
  -8  -7  -2   42.21   11.34
   8   7   2    8.21   10.33
  -8   3  -2   33.48   11.10
   8  -3   2    7.62   10.12
   8  -3   2   23.83   11.27
   8  -3   2    5.43    7.41
  -8   3  -2    7.52    9.19
  -5  -7 -10  159.63   24.48
   5   7  10  142.08   27.28
  -5  -7 -10  220.99   28.89
   5   7  10  162.31   21.21
  -5  -7 -10  149.78   22.97
  -5  -7 -10  159.57   30.62
  -7  -3   4   86.70   11.18
  -7  -3   4   83.81   14.37
  -7  -3   4   65.40    9.49
  -7  -3   4   52.59   10.64
   7   3  -4   64.44   16.06
  -2   6  -9   10.10   10.01
  -2   6  -9   22.07    5.81
  -2   6  -9   12.72    6.88
   2  -6   9    6.03    8.88
   2  -6   9    6.07    6.77
   7  -4  -1   15.51    5.87
   7  -4  -1    7.50    3.88
   7  -4  -1   -0.52    6.41
  -7   4   1   -5.81    7.33
  -7   4   1    1.64    6.68
  -7   4   1   -9.15    9.66
  -7   4   1   -2.28    7.99
   7  -4  -1    9.25    6.90
  -9   0  -5    6.25    7.17
  -9   0  -5   13.91   10.38
   9   0   5    5.06    6.73
   1   9  -5   27.48    9.37
  -1  -9   5   28.96   10.48
  -1  -9   5   23.35   11.99
   1   9  -5   25.40   11.59
   1   9  -5   21.35    7.15
  -4   8  -4  653.17   68.84
   4  -8   4  700.64   76.19
   2  -2 -10  100.16   17.37
  -2   2  10   98.68   19.05
  -2   2  10  105.03   21.31
   2  -2 -10   84.43   20.46
  -2   2  10   96.93   13.23
   3  -9   2  289.76   43.45
   3  -9   2  259.88   31.26
  -3   9  -2  295.78   42.03
  -3   9  -2  272.63   52.61
  -9   0  -3   33.44   11.80
  -9   0  -3   29.67   11.99
   9   0   3   20.19    9.42
   4   0  12   24.39    5.60
   4   0  12   29.58   10.52
   4   0  12   30.02   11.74
  -4   0 -12   19.36    9.64
  -4   0 -12   31.20    9.06
  -4   0 -12   48.18   12.59
  -4   0 -12   19.53    8.43
  -7   5  -3    4.75    3.39
  -7   5  -3   19.77    9.84
  -7   5  -3    9.37   11.36
   7  -5   3    2.88    6.40
   7  -5   3    9.60    8.26
   7  -5   3   19.35    7.54
  -3  -9   4   20.57    6.56
   3   9  -4   36.00   11.53
  -3  -9   4   24.00    9.95
   3   9  -4   23.35    7.51
  -3  -9   4   12.98    7.24
  -5  -8  -9   73.65   16.94
  -5  -8  -9   92.20   17.28
   5   8   9   68.66   16.60
   5   8   9   90.28   12.70
  -5  -8  -9   64.84   10.90
  -2   0 -12   21.42    6.58
  -2   0 -12    2.64   11.08
   2   0  12   17.70    7.12
  -2   0 -12   12.02    5.30
  -8  -1   2   69.31   13.58
   8   1  -2   44.48   13.68
  -8  -1   2   48.66   14.02
  -8  -1   2   29.66   12.04
  -1 -10  -5  838.59  103.31
  -1 -10  -5  861.08  128.24
  -1 -10  -5  649.98   82.28
  -1 -10  -5  775.44  125.17
   1  10   5  754.82  112.00
   1  10   5  749.06  140.76
  -1 -10  -5  748.28   53.66
   4  -7  -4   58.50    9.61
   4  -7  -4   67.40   14.55
  -4   7   4   80.39   15.28
  -4   7   4   66.15   12.79
  -4   7   4   54.36   10.37
  -5   2 -11    9.55   11.28
  -5   2 -11   27.93   12.29
  -5   2 -11   14.90    9.34
  -5   2 -11   28.54    7.88
   5  -2  11   21.58   10.37
   5  -2  11    7.65    9.30
   5  -2  11   35.70    9.89
  -2  -8  -9   13.51    8.10
  -2  -8  -9    5.89    8.21
  -2  -8  -9    9.01    7.17
  -9  -3  -7   22.08   12.71
  -9  -3  -7   -6.33    7.54
   9   3   7    9.27    7.74
   9   3   7    3.89    6.74
   8  -3   5  109.92   21.47
   8  -3   5   54.48   14.50
  -8   3  -5   70.94   17.83
  -8   3  -5   58.17   14.12
  -1   3 -11   48.96   12.00
  -1   3 -11   47.77   13.56
  -1   3 -11   58.73   17.62
   1  -3  11   68.53   16.67
   1  -3  11   55.78   16.37
  -9  -2  -7  323.97   60.18
   9   2   7  329.25   46.81
   9   2   7  269.56   42.28
  -9  -2  -7  281.22   39.36
  -7  -8  -7  121.43   22.69
   7   8   7  113.69   24.76
   7   8   7  120.69   16.74
  -7  -8  -7  118.57   21.43
  -6   6  -5    6.30    4.54
   6  -6   5   10.74    7.35
   6  -6   5   -1.67    7.97
  -6   6  -5   -4.20    7.37
   1  -6  -9  195.89   34.84
   1  -6  -9  213.44   29.70
   1  -6  -9  276.76   35.51
   7  -5   2   53.16   10.44
  -7   5  -2   52.00   19.12
  -7   5  -2   39.16   10.76
   7  -5   2   73.37   19.95
   7  -5   2   66.94   14.98
  -9  -5  -4  118.65   23.00
   9   5   4   57.72   15.43
  -9  -5  -4  128.48   21.69
  -9  -5  -4   98.33   20.92
   9   5   4   91.32   18.47
   5   3  -7    0.59    7.16
  -5  -3   7    3.21   11.12
  -5  -3   7    0.38    5.61
  -5  -3   7    4.71    6.85
  -9  -4  -2  653.79   65.75
  -9  -4  -2  605.83   76.33
  -9  -4  -2  577.47   81.38
   9   4   2  675.23   98.31
  -8  -6   0  166.48   24.86
   8   6   0  154.03   20.75
  -8  -6   0  162.79   30.51
  -2  -2  10    6.62    7.54
  -2  -2  10    2.97    5.68
   2   2 -10   14.99    6.11
  -2  -2  10    2.98   10.37
   0   7  -8   27.69    8.87
   0   7  -8   47.15   12.95
   0  -7   8   36.12   12.64
   0  -7   8   14.85   11.29
  -1  10   2    4.78    5.49
   1 -10  -2   21.79    8.46
  -1  10   2   -2.36    6.64
   1 -10  -2   12.39   10.56
  -8  -6  -8    7.67    7.64
  -8  -6  -8   -3.02    6.78
  -8  -6  -8    0.06    5.41
   8   6   8    5.25    5.36
   8   6   8   15.69   10.49
   0 -10  -4    8.21   12.92
   0  10   4    4.61    5.90
   0  10   4   -2.66    5.13
   0 -10  -4   -1.29    9.78
   0 -10  -4   -1.13    7.93
   9   5   5  160.47   22.03
   9   5   5  180.46   22.55
  -9  -5  -5  159.84   24.80
  -9  -5  -5  131.41   28.00
  -2  -7 -10    8.75    9.00
  -2  -7 -10    9.68    6.30
  -2  -7 -10   21.38    8.28
   3   9   8    7.53    2.43
  -3  -9  -8   -0.12    7.98
  -3  -9  -8    2.68    4.85
  -3  -9  -8   20.25    9.34
  -3  -9  -8    5.71    2.91
  -5   7  -5   54.64   14.46
  -5   7  -5   42.41    7.31
   5  -7   5   76.66   13.26
   5  -7   5   50.32   15.72
  -5   7  -5   50.40    9.28
   8   5  -1   98.73   17.00
  -8  -5   1   79.74   14.09
  -8  -5   1   72.02   15.11
  -8  -5   1   79.08   14.82
  -1   9  -5  128.96   22.02
  -1   9  -5  145.74   29.07
   1  -9   5  118.55   22.51
  -1   9  -5  175.05   18.40
  -1   9  -5  185.00   38.73
   1  -9   5  184.47   30.28
  -3 -10  -6   88.69   18.05
  -3 -10  -6   77.25   12.36
  -3 -10  -6   55.68    9.33
  -3 -10  -6   53.56   17.70
   3  10   6   61.55   14.52
   3  10   6   82.85   14.66
   1  -8  -7    1.67    1.37
   1  -8  -7    0.11   11.72
  -1   8   7    3.94    2.02
  -1   8   7    0.68    1.62
   1  -8  -7    5.26    4.51
   3   3  -9    4.44    8.07
  -3  -3   9   27.36   10.44
  -3  -3   9    4.26    8.20
  -3  -3   9   13.77    6.94
  -4  -6 -11   62.63   13.16
  -4  -6 -11  101.76   20.05
  -4  -6 -11   65.79   19.29
  -5  -2 -12  139.69   13.48
  -5  -2 -12  144.45   30.79
   5   2  12  173.41   45.31
   5   2  12  189.67   36.69
   8   3  -2   -4.10    8.78
  -8  -3   2    2.78    3.68
  -8  -3   2   -0.94    4.93
  -8  -3   2    0.59    9.07
  -8  -3   2    1.46    7.23
  -8   0  -9  132.56   27.29
   8   0   9  132.35   22.02
  -8   0  -9   93.90   17.46
   8   0   9  173.75   26.42
   4   9   8   22.13    6.36
  -4  -9  -8   26.20   10.12
  -4  -9  -8   21.70   13.17
  -4  -9  -8   10.18    4.67
   6   8  -2    3.81    7.21
  -6  -8   2   -3.32    8.10
  -6  -8   2    8.67    3.98
  -6  -9   0  138.57   30.76
  -6  -9   0  224.45   30.79
   6   9   0  153.79   31.39
   6   9   0  171.60   37.66
   3  -9  -1   -3.74   10.96
  -3   9   1   -3.40    7.03
  -3   9   1   -6.34    7.71
   3  -9  -1    5.23    6.90
  -7   5  -4   55.90   13.33
  -7   5  -4   62.96   13.09
   7  -5   4   34.74   10.77
   7  -5   4   21.53   12.14
   7  -5   4   69.26   15.44
   3  10  -2   44.50   17.01
  -3 -10   2   51.66    9.87
  -3 -10   2   94.45   16.40
   3  10  -2   91.01   13.02
  -3 -10   2   65.14   13.38
  -2   7  -8   26.06    8.61
  -2   7  -8   22.68    8.82
  -2   7  -8   33.49    9.84
   2  -7   8   23.45   11.00
   2  -7   8   25.80    8.12
   0  -7  -9  221.05   40.09
   0  -7  -9  202.63   38.06
   0  -7  -9  194.83   32.32
  -6  -1   6  168.14   45.65
  -6  -1   6  352.13   49.05
  -6  -1   6  243.65   39.34
   6   1  -6  328.06   41.59
   7  -1  10  196.98   26.67
   7  -1  10  176.60   30.55
  -7   1 -10  179.54   30.77
  -7   1 -10  206.17   37.16
   7  -1  10  230.90   48.81
  -5 -10  -1    4.16   10.80
   5  10   1    2.17   10.08
   5  10   1   21.72    7.75
   5  10   1   23.37    7.94
  -5 -10  -1   25.75   10.01
   7  -4   7   -1.26    5.02
  -7   4  -7   12.32    7.41
  -7   4  -7   -4.37   12.48
   7  -4   7   14.88   11.72
  -3  -6 -11    8.14    8.98
  -3  -6 -11    2.68    7.74
  -3  -6 -11   11.23    7.49
   0  -6   9   71.42   18.08
   0  -6   9   72.76   18.04
   0   6  -9   39.90   11.94
  -3   6   7   15.44    4.60
   3  -6  -7   12.60    4.47
   3  -6  -7   25.68   11.16
   3  -6  -7    8.24    7.81
  -3   6   7   24.28    9.93
  -3   6   7    0.86    3.97
   5   1  12    2.23    4.71
  -5  -1 -12   -2.68    4.81
  -5  -1 -12    4.15    5.34
  -5  -1 -12   13.03   11.29
   5   1  12    0.68    5.02
  -6  -5 -11  167.27   22.88
  -6  -5 -11  122.43   16.38
  -6  -5 -11  135.36   25.97
   6   5  11  126.33   17.36
   6   5  11  128.57   26.34
   2  -5  10   -1.79   12.99
   2  -5  10   -4.82    6.02
  -2   5 -10    5.33    6.81
  -2   5 -10    6.04    6.58
  -2   5 -10   -4.27    5.51
  -5  -9   2   91.80   18.23
   5   9  -2   89.73   17.58
  -5  -9   2  135.34   15.18
   5   9  -2  108.73   17.80
  -4 -10   1  233.69   37.97
   4  10  -1  237.23   23.24
  -4 -10   1  244.86   37.11
   4  10  -1  259.88   42.76
   4  10  -1  160.71   38.88
   1  10  -3  100.17   25.30
  -1 -10   3  109.78   21.79
  -1 -10   3   81.04   15.13
   1  10  -3   96.77   13.44
   8   5   9   13.72    7.44
   8   5   9   11.34    7.85
  -8  -5  -9    6.33    5.13
  -8  -5  -9   16.77    8.97
  -8  -5  -9   -0.99    7.79
  -9  -5  -3   56.90   15.44
  -9  -5  -3   39.17   14.03
  -9  -5  -3   47.82   17.46
   9   5   3   57.02   16.79
   5  10   5   68.48   14.94
   5  10   5   83.38   14.31
   5  10   5   54.75   10.56
  -5 -10  -5   51.91   13.77
  -5 -10  -5   47.07   12.43
  -5 -10  -5   64.39   10.99
   0  -8  -8   19.10   11.08
   0  -8  -8    5.41    6.07
   0  -8  -8   19.83    9.70
  -9  -2  -1  197.89   24.37
  -9  -2  -1  256.11   39.71
   9   2   1  222.24   36.49
   4  10   6   60.96   16.30
   4  10   6   89.90   15.90
   4  10   6   79.51   14.31
  -4 -10  -6   75.85   20.25
  -4 -10  -6   91.26   18.00
  -4 -10  -6  110.16   19.54
  -4 -10  -6   66.31    9.36
  -4 -10  -6   68.74   17.38
  -2  -3 -12  111.40   19.99
  -2  -3 -12   73.71   18.80
   4  -3  11   18.60   10.30
  -4   3 -11   13.19    9.71
   4  -3  11   43.97    8.93
  -4   3 -11   23.19    9.82
  -4   3 -11   24.66    8.67
  -9  -4  -7   26.39    8.69
   9   4   7   15.94   10.20
   9   4   7   23.26    9.35
  -9  -4  -7   11.44    7.68
  -6   1 -11    5.84    7.21
  -6   1 -11   20.39    9.34
  -6   1 -11    6.38   10.74
   6  -1  11   15.23    9.87
   6  -1  11    9.62    5.73
   6  -1  11   18.55    6.82
   1 -10   2  135.15   28.77
   1 -10   2  123.80   25.20
  -1  10  -2   82.73   22.06
  -1  10  -2  122.99   23.13
  -5  -3 -12   20.54    9.53
  -5  -3 -12    9.52    4.72
   5   3  12    3.59    3.71
   5   3  12    6.11    5.08
  -6  -2   6   -7.50    7.20
   6   2  -6    1.20   12.39
  -6  -2   6   -4.07    8.06
  -6  -2   6   -8.84   10.85
  -6  -2   6   -0.90    6.49
   9   0   6  222.80   43.08
  -9   0  -6  268.89   54.08
  -9   0  -6  261.39   35.34
  -3   1 -12  221.90   32.90
   3  -1  12  196.89   44.90
  -3   1 -12  255.48   43.47
  -3   1 -12  215.43   25.75
  -3   1 -12  168.67   38.86
  -9  -1  -7   -8.18   11.09
  -9  -1  -7   -4.59    9.99
   9   1   7    8.82   11.37
   9   1   7    2.64   11.48
  -4   8   2   54.43   10.11
  -4   8   2   64.56   12.63
  -4   8   2   51.82   14.45
   4  -8  -2   46.78   14.55
   4  -8  -2   56.87   10.79
   1  -5  10   65.03   18.02
   1  -5  10   90.47   22.84
  -1   5 -10   65.45    9.66
  -1   5 -10   61.58   12.77
  -1   5 -10   66.25   14.63
   6  -4  -4    0.23    5.99
   6  -4  -4   -2.08    5.44
  -6   4   4    9.35    8.11
   6  -4  -4   -8.17    5.64
  -6   4   4   -0.49    6.02
  -6   4   4    4.03    9.54
  -6   4   4   -3.34    5.91
   6  -4  -4    4.52    6.76
  -1  -5 -11  157.08   25.42
  -1  -5 -11  195.19   26.71
  -1  -5 -11  178.29   27.94
  -7  -8   0  221.53   25.88
   7   8   0  265.59   38.00
  -7  -8   0  167.50   25.09
   9   0   2   35.84   10.96
  -9   0  -2   43.06   13.73
  -9   0  -2    2.19    8.14
  -9   0  -2   19.80    6.96
  -6   0   6  115.06   17.01
  -6   0   6   76.83   17.61
  -6   0   6   66.68   13.79
   6   0  -6   73.84   17.95
  -6  -5   5    6.61    6.94
  -6  -5   5    9.82   11.38
  -6  -5   5    3.66    9.61
   6   5  -5    7.84   11.84
  -6  -5   5   22.41    8.25
   1   0 -11    8.44    4.97
  -1   0  11    4.29    7.87
  -1   0  11    0.87    4.84
  -1   0  11    0.22    3.92
  -2   9   4  177.37   25.23
  -2   9   4  150.22   29.57
   2  -9  -4  114.12   29.40
   2  -9  -4  150.64   20.29
   2  -9  -4  177.74   25.19
  -9  -5  -6   -0.84    7.48
  -9  -5  -6   -4.77    7.93
   9   5   6   -8.17    9.43
   9   5   6   -4.57    7.05
  -8   0   2   22.28   11.75
   8   0  -2   21.91   11.96
  -8   0   2   34.41   10.41
  -8   0   2   22.42    6.67
  -7   5  -1   16.97    8.71
  -7   5  -1    6.95    9.22
   7  -5   1   17.41    7.03
   7  -5   1   17.41   10.04
   7  -5   1    9.43    8.07
  -2 -10  -6   46.41   12.10
  -2 -10  -6   24.20    8.22
   2  10   6   29.12    7.14
  -2 -10  -6   55.66   13.64
   2  10   6   28.22    8.47
  -2 -10  -6   25.47    8.21
   3  -8   6   17.70    9.10
  -3   8  -6   19.07    9.06
   3  -8   6    1.52    7.61
  -9  -3  -1   -9.67    6.43
  -9  -3  -1    1.38    5.96
   9   3   1   -8.90    6.23
   5  -5  -5   22.90    9.15
   5  -5  -5   60.27    9.40
   5  -5  -5   53.31   16.27
   5  -5  -5   49.41   12.06
  -5   5   5   36.59   11.98
  -5   5   5   47.59   13.84
  -5   5   5   56.02   13.41
  -5   5   5   57.80   13.71
  -1   1  11  102.11   17.06
   1  -1 -11  118.60   16.44
   1  -1 -11   74.93   13.75
   0 -10   3   43.57   11.71
   0 -10   3   50.61   17.32
   0  10  -3   71.63   17.82
   8  -3   1   51.53   11.92
  -8   3  -1   80.57   14.25
  -8   3  -1   56.35   14.87
   8  -3   1   66.15   14.64
   8  -3   1   42.96   12.31
   3  -9   3   45.44   16.71
   3  -9   3   61.76   14.65
  -3   9  -3   57.59   16.13
  -4  -4 -12   11.54   12.05
  -1  -4  10  145.74   33.01
  -1  -4  10  164.16   24.85
   1   4 -10  258.64   43.26
  -1  -4  10  152.94   29.39
  -3   7   6   24.86    9.82
   3  -7  -6   23.38    7.08
  -3   7   6   28.97    6.06
   3  -7  -6    4.45   11.34
   3  -7  -6   29.68    8.24
  -3   7   6   14.67    5.62
   3  -7  -6   32.87    7.00
   3  -7  -6   24.44   10.46
   2  -8  -6    4.11    4.10
   2  -8  -6    8.91    5.20
   2  -8  -6   27.65   11.73
  -2   8   6   10.27    4.33
  -2   8   6    6.85    4.04
  -7   1   4  151.51   30.92
  -7   1   4  162.74   33.63
  -7   1   4  148.61   31.70
   7  -1  -4  132.60   24.85
  -7   1   4  146.42   27.07
   0  -8   7   16.61    8.24
   0   8  -7   16.30   11.68
   0   8  -7   22.61    7.87
   0  -8   7   23.22    6.46
  -7  -2 -11   19.37   10.32
   7   2  11   24.27    9.00
   7   2  11   48.49   11.08
  -7  -2 -11   19.14    7.44
   1  -8   7    2.45    8.03
   1  -8   7    0.61    5.40
  -1   8  -7    9.07    8.57
  -1   8  -7    5.36    4.68
  -1   8  -7   -3.16    4.92
  -6   6   1  464.76   56.23
  -6   6   1  426.06   61.51
  -6   6   1  477.59   61.18
   6  -6  -1  446.84   66.52
   6  -6  -1  393.54   73.73
   8   7   7  363.91   58.52
  -8  -7  -7  472.49   78.78
  -8  -7  -7  313.77   52.25
   8   7   7  406.50   61.47
  -5  -6 -11   26.41    8.95
  -5  -6 -11    4.45    8.20
   5   6  11   22.00    5.08
   5   6  11   35.83    8.82
  -3   3   9   25.49    6.63
   3  -3  -9   23.70    8.04
   3  -3  -9   42.09   11.16
  -3   3   9   60.42   13.29
   3  -6   9   48.35   14.98
  -3   6  -9   33.10   10.87
  -3   6  -9   62.79   14.21
   3  -6   9   29.35   13.77
  -3   6  -9   15.51    7.43
  -6  -9  -7   55.94   15.30
   6   9   7   39.90   11.78
  -6  -9  -7   35.26   10.92
   6   9   7   50.47   10.33
   6   9   7   51.36    8.72
  -6  -9  -7   22.04   10.37
  -2   1 -12   -2.02    6.24
  -2   1 -12   -7.08    8.85
  -2   1 -12   -0.87    4.48
   2  -1  12    3.43    7.40
  -2   1 -12    4.92    7.18
   2  -1  12   -4.71    5.20
   5  -2  -7   93.22   17.89
  -5   2   7  103.77   18.16
  -5   2   7   94.95   20.03
  -5   2   7  102.91   17.53
   5  -2  -7   96.63   17.04
   9   1   1   20.74   12.77
  -9  -1  -1   22.46   10.60
  -9  -1  -1   50.99   13.01
  -3  -4 -12    1.94    9.93
  -3  -4 -12    2.48    8.07
  -3  -4 -12    2.52    8.86
  -4   7  -7   41.54   10.32
  -4   7  -7   50.74   14.91
   4  -7   7   48.81   16.58
   4  -7   7   28.15   10.11
   2  -5  -9   -0.06   13.31
   2  -5  -9   -1.04    7.41
  -2   5   9    8.47   10.09
  -2  -9  -8    6.26    5.85
  -2  -9  -8   -0.81    8.29
  -2  -9  -8  -23.40   21.22
   7   3  11    8.37    5.23
   7   3  11   17.31    8.05
  -7  -3 -11    7.30    7.01
  -7  -3 -11   11.98    7.55
   1   1  12   10.59    4.51
  -1  -1 -12   11.68    4.13
  -1  -1 -12   26.36    6.39
  -1  -1 -12    2.59    6.15
  -1  -1 -12   15.75   10.02
   8  -3   6   -7.55   10.46
   8  -3   6    4.78   11.13
  -8   3  -6   -3.18   12.54
   8  -3   6    1.18    1.88
  -8   3  -6    0.33    5.33
   2   9  -5    6.50    8.19
  -2  -9   5    1.91    8.07
  -2  -9   5   14.03    5.97
   2   9  -5   -4.44    9.51
  -2 -10   3   94.99   17.97
   2  10  -3  111.37   18.27
   2  10  -3  110.58   23.90
  -2 -10   3  126.47   20.14
   0  -4 -11   76.58   16.03
   0  -4 -11   78.55   16.59
   0  -4 -11   61.94   14.54
  -7  -4   4   13.52   12.00
  -7  -4   4    4.86   10.34
   7   4  -4   10.82   10.57
  -7  -4   4    6.15    6.94
  -8  -7  -1   77.15   16.54
   8   7   1   87.57   16.14
   5  -7  -2   14.16    9.60
  -5   7   2    3.78    7.76
  -5   7   2   15.00   11.02
  -5   7   2   16.31    7.22
   5  -7  -2   15.03    9.96
  -7   5  -5  197.20   28.16
   7  -5   5  164.18   29.40
   7  -5   5  217.74   39.67
  -7   5  -5  248.47   35.59
   7  -5   5  217.03   32.28
  -6   5   3   -2.94    9.05
  -6   5   3    7.47    6.06
  -6   5   3    1.34    8.69
   6  -5  -3   -4.55    5.87
   6  -5  -3    3.66    6.81
   6  -5  -3   14.63    8.37
   6  -5  -3    8.98    9.24
  -6   5   3    4.63    5.45
  -3   5 -10   75.09   13.54
   3  -5  10   75.58   16.84
   3  -5  10   69.19   17.28
  -3   5 -10   84.74   13.05
  -3   5 -10   63.53   10.84
  -3   5 -10   72.95   13.58
  -7  -7  -9   49.19   11.97
   7   7   9   60.72   15.29
  -7  -7  -9   41.28   11.36
  -7  -7  -9   38.44   10.74
  -6   4  -9  101.62   19.17
   6  -4   9   80.14   17.70
  -6   4  -9  109.00   19.57
   6  -4   9   66.47   24.88
  -5  -9  -8    0.96    3.75
   5   9   8    0.23    4.66
  -5  -9  -8   -0.46    7.54
  -5  -9  -8  -11.01    9.06
   5   9   8   12.58   10.71
   3  -5  -8   46.34    9.87
   3  -5  -8   23.92    9.71
  -3   5   8   34.58    9.23
   3  -5  -8   24.97    8.18
  -3   5   8   36.08   13.09
  -3   5   8   32.53    7.99
   4  -1  12    3.02    4.27
  -4   1 -12    5.62    8.37
   4  -1  12   -0.22    4.80
  -4   1 -12   -8.63    8.45
  -4   1 -12    6.01    8.36
  -4   1 -12   -1.04    7.54
  -4  -7   6  177.95   28.30
  -4  -7   6  214.72   38.55
   4   7  -6  193.07   28.22
  -2  -5   9   33.77    8.47
  -2  -5   9   40.61   11.48
  -2  -5   9   27.55   12.11
   2   5  -9   38.98   14.04
   1   1 -11   -2.05    7.24
  -1  -1  11    1.19    3.85
  -5   4   6   -3.15    4.28
  -5   4   6    5.02   11.76
  -5   4   6    0.38    4.02
   5  -4  -6   -0.63    6.05
   5  -4  -6   -8.43    5.80
   5  -4  -6   -4.48    5.91
   5  -4  -6  -13.75    6.67
   5   0  12    6.07    5.03
  -5   0 -12    1.05    4.24
  -5   0 -12    1.69    7.91
   5   0  12    5.15    8.66
   8   4  -2   20.62   12.31
  -8  -4   2   -1.88    4.41
  -8  -4   2    5.80    5.29
  -8  -4   2   -2.36   11.65
   1 -10  -3    4.30    6.75
  -1  10   3    6.90    5.59
  -1  10   3    3.67    5.18
   1 -10  -3   21.22    9.53
  -7  -9  -4    4.48    8.15
  -7  -9  -4    2.48    7.70
   7   9   4   -6.74    6.36
   7   9   4    3.83    8.31
   7   9   4   -4.34    7.08
  -7  -9  -4    7.33   10.42
   0  -6 -10   20.57    9.46
   0  -6 -10    7.79    8.86
   0  -6 -10   -5.29    7.25
  -1   0 -12  169.35   25.17
   1   0  12  151.91   19.04
  -1   0 -12  138.50   24.05
  -1   0 -12  121.88   25.09
  -6   3   5   32.81   12.05
  -6   3   5   70.19   12.00
   6  -3  -5   59.63   12.85
  -6   3   5   64.54   16.99
   6  -3  -5   55.76   11.40
   6  -3  -5   96.17   14.75
  -2   3  10   55.25    7.24
  -2   3  10   50.30   17.80
  -2   3  10   38.26    4.83
   2  -3 -10   63.67   10.26
   7   1  11  154.99   26.95
   7   1  11  148.03   20.57
  -7  -1 -11  139.56   28.64
  -7  -1 -11  148.71   24.46
  -9   1  -4   51.86    9.96
   9  -1   4   46.95   17.07
  -1  -7   8  197.24   34.81
  -1  -7   8  128.02   24.91
   1   7  -8  153.63   32.83
   3  -9  -2  761.42  112.69
   3  -9  -2  756.46  100.15
  -3   9   2  683.75  142.89
  -3   9   2  741.73   95.20
  -1  -2 -12   45.40   14.36
  -1  -2 -12   47.87   11.80
   7   9   3    9.51   18.46
   7   9   3   -1.28    6.46
   7   9   3  -21.62    8.60
  -7  -9  -3   -1.10    6.44
  -7  -9  -3   -4.28    6.71
  -7  -9  -3    2.24    8.00
  -5   6   4   91.58   13.89
  -5   6   4  143.49   21.46
   5  -6  -4   91.89   18.98
   5  -6  -4   89.29   22.47
   5  -6  -4  116.12   23.10
   5  -6  -4   71.87   11.89
  -5   6   4   87.06   13.74
  -5   5  -9   47.87   16.43
  -5   5  -9   62.03   13.75
  -5   5  -9   54.53   14.46
  -6   3 -10    9.27    8.19
   6  -3  10    3.94    5.35
  -6   3 -10   -4.69    5.60
   6  -3  10   -2.92    6.11
   6  -3  10   -3.97    8.04
  -6   3 -10   -6.21    6.11
   4   8  -5   -1.47    7.62
   4   8  -5    3.64    8.88
  -4  -8   5    0.00    7.94
  -4  -8   5    3.58    3.28
  -4  -8   5    9.35    5.23
   1  -2 -11   19.07    7.30
  -1   2  11   15.95    3.87
  -1   2  11   26.13    4.58
  -8  -2 -10   42.17   10.45
   8   2  10   73.15   19.29
   8   2  10   58.69   13.31
  -8  -2 -10   66.92   22.54
  -4   3   8   62.49   20.02
  -4   3   8   76.11   16.04
   4  -3  -8   65.57   13.14
   4  -3  -8   66.23   15.68
  -6  -3   6   93.76   30.65
  -6  -3   6  108.58   20.74
  -6  -3   6   86.36   21.42
  -6  -3   6   84.60   17.33
   6   3  -6   90.36   21.18
  -8  -3 -10   15.66   10.07
   8   3  10   10.06    7.22
  -8  -3 -10    3.02    6.46
   8   3  10    2.83    6.45
   9   5   2   16.89   10.03
  -9  -5  -2    0.91    6.61
  -9  -5  -2   -0.40    8.07
  -9  -5  -2   14.48    9.21
   5  -4  10    8.92    9.72
   5  -4  10   37.19   11.25
  -5   4 -10   24.28    7.32
  -5   4 -10   31.10    6.35
  -5   4 -10   15.56   10.88
  -2  -6 -11   61.38   17.05
  -2  -6 -11   56.65   15.16
  -2  -6 -11   77.11   14.77
  -4  -4   8  317.80   61.24
   4   4  -8  305.03   51.21
  -4  -4   8  351.46   61.76
  -4  -4   8  354.33   70.74
  -5  -7   5   42.92   12.89
  -5  -7   5   30.62    9.97
   5   7  -5   74.91   12.70
   4  -8   5   12.06    8.20
   4  -8   5    4.60   10.71
  -4   8  -5    9.14    8.29
  -9  -4  -1   47.97    9.00
  -9  -4  -1   35.39   14.76
   9   4   1   33.68   11.62
   6   7  10   10.01    5.88
  -6  -7 -10   31.50    8.98
  -6  -7 -10   25.18   11.77
  -7  -6 -10   13.26    8.49
  -7  -6 -10    4.47    8.56
   7   6  10    2.47    4.94
  -8   2   1  239.34   31.54
  -8   2   1  220.35   35.83
   8  -2  -1  159.66   16.80
   8  -2  -1  234.09   43.97
   5   4  12    7.55    3.87
  -5  -4 -12    4.59    2.54
  -5  -4 -12    6.05    8.90
   5   4  12    3.02    3.38
   9  -1   3  147.97   29.86
  -9   1  -3  137.23   22.01
  -9   1  -3  153.44   22.83
   5  10   0   12.33    9.26
   5  10   0    3.02    8.70
  -5 -10   0    7.02    7.66
  -5 -10   0    3.40    8.79
   5  10   0    7.85   10.15
   0   3 -11  106.63   17.47
   0  -3  11  100.12   18.05
   0  -3  11   78.82   18.04
   9  -1   5    4.09    8.05
  -9   1  -5    3.72    8.94
  -9   1  -5    0.39    5.77
  -9  -3  -8   -4.08    6.92
  -9  -3  -8   -3.18   11.13
   9   3   8   -5.82   12.37
   9   3   8   -0.32    5.05
   6  -1  -6    3.53    5.06
  -6   1   6    2.65    4.62
  -6   1   6    0.68    6.25
  -6   1   6   -0.39    6.67
  -6   1   6    8.70    7.25
  -7  -9  -5  311.24   34.08
  -7  -9  -5  295.86   44.04
   7   9   5  292.95   39.13
   7   9   5  284.00   36.26
   7   9   5  277.24   37.89
  -7  -9  -5  345.28   50.90
  -6   6  -6   53.01   11.21
  -6   6  -6   19.63   10.02
   6  -6   6   40.45   17.12
   6  -6   6   39.43   11.49
   9   2   8   39.17   12.48
  -9  -2  -8   22.88   11.04
  -9  -2  -8   29.34   10.26
   9   2   8   39.58   11.82
   2  -9   5   13.39    9.24
  -2   9  -5   -3.07    8.89
  -2   9  -5    3.04    2.09
   2  -9   5    1.21    6.67
  -2  -3  10  133.35   26.69
  -2  -3  10  129.48   19.95
   2   3 -10  128.19   28.04
  -2  -3  10   98.83   20.51
  -6  -8  -9   23.45    7.75
  -6  -8  -9   46.69   11.01
  -6  -8  -9   37.81   11.07
   6   8   9   40.13    9.36
  -6  -8  -9   47.63   13.04
   1  -5 -10   -0.34    5.46
   1  -5 -10    3.59    6.27
   1  -5 -10    4.79    9.26
   5   4  -7   39.65   12.77
  -5  -4   7   24.12   10.59
  -5  -4   7   25.39   11.96
  -5  -4   7   50.97   14.16
   0   5 -10  132.99   21.96
   0  -5  10   79.27   16.38
   0  -5  10   69.00   17.24
  -3   7  -8   39.57   11.63
  -3   7  -8   52.09   14.22
   3  -7   8   59.19   16.19
  -3   7  -8   57.06   12.77
   3  -7   8   48.42   12.77
  -7  -4 -11  190.13   33.57
   7   4  11  122.42   33.27
  -7   3   3   66.27   18.14
  -7   3   3   91.00   17.85
  -7   3   3  118.05   17.23
   7  -3  -3  133.18   19.71
   7  -3  -3   53.45   16.37
   7  -3  -3   85.66   20.68
   1   8  -7   49.28   12.82
   1   8  -7   46.34   15.06
  -1  -8   7   39.79    6.78
  -1  -8   7   62.32   15.93
   9   5   7   87.35   20.06
  -9  -5  -7  110.45   21.60
   9   5   7  138.51   23.94
   8  -2   8  323.14   56.82
  -8   2  -8  256.23   49.79
  -8   2  -8  231.29   40.52
  -2   8  -7    2.46    9.17
   2  -8   7   20.65    8.43
  -2   8  -7   44.88   11.35
   2  -8   7   21.98   10.91
  -2   8  -7   24.00    6.37
   7   7  -2    4.64    7.97
  -7  -7   2   10.19    3.62
  -7  -7   2   -0.11    9.06
  -7  -7   2    6.21    2.66
   5   8  -4   22.53    9.64
  -5  -8   4   -1.50    6.56
  -5  -8   4    9.08    4.02
  -1  -8  -9  117.91   21.01
  -1  -8  -9   74.60   15.73
  -1  -8  -9   85.60   17.91
   2  11   2   -3.93   11.15
   2  11   2   -9.47    5.67
  -2 -11  -2   -1.23    5.85
  -2 -11  -2   -9.40    6.41
   5  10   6    5.31    6.75
  -5 -10  -6    7.61    7.89
  -5 -10  -6   29.00   11.20
  -5 -10  -6    3.78    9.05
   5  10   6   14.29    9.59
  -9   0  -7    7.05    8.47
  -9   0  -7    1.37    7.91
   9   0   7   14.48   10.97
  -7  -6   3   90.79   16.51
   7   6  -3   98.90   17.03
  -7  -6   3  107.47   21.42
   7  -5   0   62.94   16.27
   7  -5   0   55.00    9.76
   7  -5   0   25.72    9.68
   7  -5   0   26.85   11.72
  -7   5   0   46.89   11.57
  -7   5   0   35.78   11.80
  -7   5   0   29.23    8.33
   2  11   1    7.20    6.89
  -2 -11  -1   -1.23    6.90
  -2 -11  -1   -1.07   10.20
   2  11   1    8.28    9.17
  -3  -7   7   39.48   11.24
  -3  -7   7   40.48   12.49
   3   7  -7   34.06   13.56
   0   9   7   44.56   10.51
   0   9   7   38.97    8.89
   0  -9  -7   34.58    9.36
   0  -9  -7   47.96   17.10
   0  -9  -7   44.09   13.90
  -7  -8  -8   61.97   17.10
  -7  -8  -8   87.63   18.43
   7   8   8   89.90   14.96
  -6   5  -8   33.29    8.74
   6  -5   8   44.53   12.77
  -6   5  -8   49.72   12.90
  -9   0  -1   33.25   17.49
   9   0   1   40.70   17.51
  -9   0  -1   25.29   14.12
  -1  10  -3    4.56    7.24
   1 -10   3    0.29    5.70
   1 -10   3   -5.65    8.76
   8  -1   9    5.04    9.85
  -8   1  -9    3.05    7.11
  -8   1  -9  -16.53   10.82
   8  -1   9   22.91   13.66
  -2  -4 -12  125.44   30.80
  -2  -4 -12  179.33   44.82
  -2  -4 -12  191.01   28.62
  -9  -6  -4    2.46   12.02
   9   6   4    9.65    9.81
   9   6   4    8.74   22.61
  -9  -6  -4    0.81    9.23
   8   8   4   27.46   10.05
  -8  -8  -4    1.80    7.23
   8   8   4   21.16   10.87
  -8  -8  -4    1.38    7.99
   9   6   5  212.38   30.14
   9   6   5  199.97   30.71
  -9  -6  -5  155.59   34.96
  -9  -6  -5  247.99   40.90
  -3  -8   6    0.76    3.73
  -3  -8   6   -1.08    4.72
   3   8  -6   -0.06    6.83
   3   8  -6   11.22    8.61
  -3  -8   6    1.72    9.28
   8   1  10   75.50   18.55
   8   1  10   71.54   14.96
  -8  -1 -10   36.80   12.34
  -8  -1 -10   39.77   12.81
   4  -6  -6  105.26   11.88
   4  -6  -6  137.07   27.67
   4  -6  -6  151.11   23.06
  -4   6   6  141.76   19.77
  -4   6   6  121.75   17.72
  -4   6   6  115.69   31.72
   4  -6  -6  100.04   26.29
   7   9   2   19.43   14.40
  -7  -9  -2   -1.74    7.41
  -7  -9  -2   10.12    7.74
   7   9   2    4.90    7.17
  -7  -9  -2   10.01    7.10
  -1  -6   9    0.67    9.76
   1   6  -9   -6.98    7.19
  -1  -6   9   21.35    8.89
  -1   9   6   -1.23    3.00
   1  -9  -6    1.03    3.38
   1  -9  -6    5.81    8.63
  -4  -6   7   26.83   11.89
  -4  -6   7   10.69    9.68
   4   6  -7   14.92    8.81
  -4  -6   7   21.79    9.63
  -5   7  -6  186.14   33.79
  -5   7  -6  215.13   37.27
   5  -7   6  178.53   28.08
   0 -10  -5    2.11    5.35
   0 -10  -5    7.57    9.99
   0  10   5    6.52    4.35
   3  11   2  177.99   33.77
  -3 -11  -2  256.10   35.24
   3  11   2  192.73   34.19
  -3 -11  -2  210.79   30.23
  -1  -7 -10    7.13    7.03
  -1  -7 -10   13.59    8.42
  -1  -7 -10   12.01   11.62
  -7   4   2   61.38   17.22
  -7   4   2   84.16   12.69
  -7   4   2   40.37   11.91
   7  -4  -2   46.93   12.32
  -7   4   2   57.57   12.45
   7  -4  -2   65.77   14.31
   7  -4  -2   46.85   14.64
   7  -4  -2   43.91   12.32
   2  -4  11  117.60   24.02
  -2   4 -11   91.33   21.74
  -2   4 -11  133.62   26.57
  -2   4 -11  105.74   12.98
   2  -4  11   91.76   21.15
   8  -1  -2   17.13   11.26
  -8   1   2   27.13   16.00
  -8   1   2   36.53    8.22
  -8   1   2   45.81   13.42
  -8  -4 -10   -4.99    6.49
  -8  -4 -10   -0.34    8.29
   8   4  10    7.41    7.94
   8   4  10    5.93    5.62
  -2  10   0   26.40    8.75
  -2  10   0   21.21    9.02
   2 -10   0   21.18    9.36
   2 -10   0    2.92    8.85
  -7   3  -9   85.49   16.81
   7  -3   9   65.76   10.83
   7  -3   9   27.35   16.43
   7  -3   9   61.52   14.80
  -7   3  -9   49.64   10.50
   1  -1  12   26.54    8.83
  -1   1 -12    7.28    6.69
  -1   1 -12   17.36   15.72
   1  10   6    3.87    3.17
  -1 -10  -6    6.65    8.46
  -1 -10  -6   -4.27    7.16
  -1 -10  -6    4.30    5.77
   6   9  -1   43.18   15.25
  -6  -9   1   61.62   17.36
   6   9  -1   41.66   12.93
  -6  -9   1   49.03   10.30
   6   2  12    4.71    4.52
  -6  -2 -12   11.87    6.69
  -8  -8  -5    6.21    8.64
  -8  -8  -5    2.83    9.49
   8   8   5   -0.22    8.49
   8   8   5   12.26   11.68
   3  -9   4   10.70    9.27
   3  -9   4   23.84   13.75
  -3   9  -4   17.02    9.26
  -9  -4  -8   19.83   13.57
   9   4   8   48.93   11.34
   9   4   8   45.67   14.11
  -9  -4  -8   13.75    9.05
  -3  -4   9    5.81    9.89
  -3  -4   9   24.21    9.87
  -3  -4   9    6.55    9.98
   3   4  -9   11.54    8.25
  -5  -6   6    6.52    8.22
  -5  -6   6  -10.99   12.57
   5   6  -6    1.62   10.10
  -5  -6   6    8.39    8.51
   8  -3   0    1.83    8.67
  -8   3   0   14.67    9.65
   8  -3   0    7.36    8.79
  -8   3   0   42.67   13.96
   8  -3   0   12.06    9.39
   2  11   3   -5.09   11.84
  -2 -11  -3    1.81    7.98
   2  11   3    3.64    5.74
  -2 -11  -3  -15.41    6.98
  -3 -11  -3    1.35    6.84
   3  11   3   -8.41    6.84
  -3 -11  -3   -5.45    7.70
   3  11   3   13.54   10.28
  -2  10  -1   24.68   10.21
  -2  10  -1   10.19    9.56
   2 -10   1   34.06    9.43
   2 -10   1   44.41   12.01
   6  10   3   56.45   15.24
   6  10   3   63.61   16.65
   6  10   3   37.48   15.17
  -6 -10  -3   58.04   12.94
  -6 -10  -3   64.66   15.60
  -6 -10  -3   33.92    9.26
   8   8   3   57.65   18.94
   8   8   3   97.36   20.55
  -8  -8  -3   86.74   19.91
  -8  -8  -3   80.91   15.55
  -8  -8  -3  120.64   20.59
  -9   1  -2    8.25    7.53
  -9   1  -2   -0.11    7.01
   9  -1   2   -5.80    6.55
   9   1   8    4.11    8.69
   9   1   8   12.90    9.94
  -9  -1  -8    4.34    7.84
  -9  -1  -8    7.17   10.18
  -1 -11  -1   17.26    8.43
  -1 -11  -1    1.31    6.82
   1  11   1   14.99   11.27
   1  11   1   15.03    9.01
  -1  -3 -12   97.46   14.99
  -1  -3 -12   48.85   15.68
   4  -5  -7   48.38   12.83
   4  -5  -7   27.43   10.04
   4  -5  -7   60.09    9.99
  -4   5   7   55.35   13.14
  -4   5   7   47.36   12.18
  -4   5   7   55.75   13.54
   4  -5  -7   36.13    8.53
   3  11   1   17.75   10.65
  -3 -11  -1    7.34    8.95
  -3 -11  -1   20.77   11.80
   3  11   1    1.20    9.02
   6  10   4    7.52    9.92
  -6 -10  -4  -12.13   11.39
  -6 -10  -4    4.24    6.79
   6  10   4    0.16    5.92
  -6 -10  -4   -6.69    8.00
   6  10   4    5.51    8.45
  -3   2 -12    4.48    9.63
   3  -2  12    8.84    5.80
  -3   2 -12   -1.90    5.97
  -3   2 -12    1.08    6.30
  -3   2 -12    3.62    6.21
  -1  -2  11  236.61   33.24
  -1  -2  11  197.30   35.33
  -8  -6   1   11.54    9.59
  -8  -6   1   -2.10    3.52
  -8  -6   1    5.31    7.31
   8   6  -1   -8.18    8.41
   9   2   0   52.98   13.78
  -9  -2   0   23.44    8.27
  -9  -2   0   26.91   14.34
   3  -8  -5   -6.50    5.10
  -3   8   5    5.43    5.00
  -3   8   5   -0.39    5.45
   3  -8  -5   -6.17    7.12
  -8  -6  -9   58.31   10.80
  -8  -6  -9   25.87    7.25
  -8  -6  -9   53.70   12.75
   8   6   9   25.45    8.94
   9  -1   6   25.60   13.20
  -9   1  -6    9.03    9.31
  -9   1  -6   -2.55    6.64
  -6  -3 -12   13.71   10.35
   6   3  12    0.50    4.10
  -6  -3 -12   -6.88    4.63
  -3   4 -11   39.38   12.43
   3  -4  11   33.37   10.06
  -3   4 -11   41.48   10.56
   3  -4  11   17.97   11.37
  -3   4 -11   42.17    9.82
  -3   4 -11   10.69    9.11
  -5   6  -8   61.73   12.56
  -5   6  -8   52.35   12.77
   5  -6   8   52.55   12.30
  -7   0 -11   -1.49    7.82
   7   0  11   -1.89    7.08
   7   0  11   -5.05    8.20
  -7   0 -11    5.01    9.25
  -3 -10  -7    8.60    3.91
  -3 -10  -7    0.00    7.15
   3  10   7    5.59    3.83
  -3 -10  -7  -14.14   10.05
  -3 -10  -7   10.97    5.88
  -9  -6  -3  134.55   34.87
  -9  -6  -3  161.01   22.00
   9   6   3  126.08   24.16
  -9  -6  -3  171.48   27.11
  -4 -10   2  328.73   54.69
   4  10  -2  417.31   47.49
  -4 -10   2  345.62   56.72
   4  10  -2  338.47   52.00
  -2 -11   0  242.22   34.70
   2  11   0  251.21   42.08
   2  11   0  152.06   43.30
  -2 -11   0  257.46   48.04
  -7   5  -6    5.81    8.90
   7  -5   6   14.83   11.35
   7  -5   6    8.86    9.30
   7  -5   6    1.21    4.89
  -7   5  -6   -3.22    5.20
   2 -10  -1   88.61   19.29
   2 -10  -1   75.41   14.71
  -2  10   1   41.38   13.22
  -2  10   1   51.96   10.68
  -1 -11  -2  161.37   19.61
  -1 -11  -2  231.36   39.67
   1  11   2  144.10   26.28
   1  11   2  161.60   25.10
  -6  -6 -11  118.98   18.70
   6   6  11  136.66   27.39
  -6  -6 -11  128.47   32.84
  -6  -6 -11  142.95   24.16
   6   1  12   24.43    6.09
  -6  -1 -12    6.33    9.75
  -6  -1 -12   12.37    7.76
   4  -8  -3  111.18   29.92
  -4   8   3  132.99   25.47
  -4   8   3  125.05   26.07
   4  -8  -3  139.26   26.25
  -7  -9  -6   -7.89    5.78
  -7  -9  -6   -9.22   12.47
   7   9   6    2.90    5.85
   7   9   6   14.09    9.50
  -7  -9  -6    4.46    8.16
  -2   2 -12   78.57   18.39
   2  -2  12   82.86   16.11
  -2   2 -12   84.79   18.60
  -9  -6  -6   -4.36   10.15
   9   6   6   -1.93    5.80
  -9  -6  -6    3.99    6.99
   9   6   6   15.40   10.59
  -4  -5 -12  230.65   36.06
  -4  -5 -12  249.51   32.31
  -4  -5 -12  227.29   32.97
  -5   3 -11   64.88   14.68
   5  -3  11   38.43   18.83
   5  -3  11   51.80   12.18
   5  -3  11   48.22   13.38
  -5   3 -11   80.12   17.83
  -5   3 -11   56.01   15.99
  -3 -10   3   21.52    7.39
   3  10  -3   -0.33    7.62
   3  10  -3    0.40    6.76
  -3 -10   3   12.97    7.47
  -4 -10  -7   21.85    7.96
  -4 -10  -7   40.16    9.83
  -4 -10  -7   23.85   10.64
  -4 -10  -7    1.64    7.96
   4  10   7   25.62    9.73
  -7   2 -10   45.58   11.04
  -7   2 -10   39.09   11.51
   7  -2  10   20.58    9.40
   7  -2  10   39.87   11.84
   9   3   0   -1.95    7.43
  -9  -3   0    3.96    5.51
  -9  -3   0  -14.84    8.92
  -7   2   4  184.69   34.21
  -7   2   4  183.59   55.03
   7  -2  -4  181.61   28.97
   7  -2  -4  214.33   39.66
  -7   2   4  160.68   32.46
  -7   2   4  185.25   33.29
   8   7   8   -0.17    6.00
   8   7   8   12.71   13.89
  -8  -7  -8    2.92    8.12
  -8  -7  -8   11.86    7.05
  -8  -7  -8   -2.58    6.73
  -8   3  -7   -8.22    7.61
  -8   3  -7    4.93    8.54
   8  -3   7   -4.68   10.34
   8  -3   7    2.39    9.62
   1  -4  11   23.11   10.67
  -1   4 -11   30.27   12.10
   1  -4  11    1.06    8.66
  -1   4 -11   10.39    8.24
  -4  -8 -10    6.67   10.49
  -4  -8 -10   -3.78   11.40
  -4  -8 -10    5.78    8.15
   0   9  -6    9.88    7.61
   0  -9   6    9.95   12.23
   0  -9   6   19.83    5.09
   0   9  -6    2.93   10.93
   0   9  -6    5.45    5.77
   0   9  -6    2.45    5.86
   5  -1  12   67.28   17.46
  -5   1 -12   98.65   39.41
  -5   1 -12   96.22   14.75
  -5   1 -12  127.71   18.73
   5  -1  12  125.99   24.59
  -4  -9   4   33.86    7.37
  -4  -9   4   37.01   11.12
   4   9  -4   30.34    8.48
   4   9  -4   16.01    7.76
   1  11   0    6.87    9.84
  -1 -11   0    4.95    7.52
  -1 -11   0   -2.05    7.09
   1  11   0    6.78    8.48
   6   7  -4    4.39    8.91
  -6  -7   4    5.62    8.30
   1  -3 -11    6.38    8.40
   1  -3 -11   13.22    8.12
   7  -4   8   18.22   10.47
  -7   4  -8   10.42   10.04
  -7   4  -8   33.12    8.21
   6  -2  11   11.92    9.45
   6  -2  11   18.75    6.85
  -6   2 -11   -1.13    7.31
  -6   2 -11    0.23    7.78
   6  -2  11   -2.85    6.37
  -6   2 -11    6.28    7.20
  -6 -10  -2   19.17   11.79
  -6 -10  -2   14.02    9.44
   6  10   2    4.83    6.49
   6  10   2    2.31    7.32
   6  10   2    0.17    6.09
   8  -4   3   17.71    9.30
   8  -4   3   26.19    5.32
   8  -4   3   15.21   11.38
  -8   4  -3    7.85    9.39
   8  -4   3   21.47    9.47
  -8   4  -3   29.14    8.47
  -1  -9  -8   21.75    5.37
  -1  -9  -8    8.81    8.14
  -4   5 -10   61.28   14.78
   4  -5  10   61.25   14.77
  -4   5 -10   69.91   15.50
  -4   5 -10   56.62   12.66
  -4   5 -10   39.53   23.12
   4  -5  10   45.26   19.41
   9   1   0   10.19   10.08
  -9  -1   0   12.09    6.93
  -9  -1   0    7.39    9.36
  -7  -8   1   86.76   12.30
  -7  -8   1   77.55   17.71
  -6   6   2   28.91    9.50
  -6   6   2   10.01    8.66
   6  -6  -2   -0.51    7.28
   6  -6  -2   13.34   10.20
  -6   6   2   12.31    7.52
   6  -6  -2    2.53    6.29
  -1 -10   4   25.22   11.21
   1  10  -4    3.58    6.57
   1  10  -4   -0.33   10.01
  -1 -10   4   -1.32    7.75
  -3  -5 -12  111.61   23.39
  -3  -5 -12  128.57   21.78
  -3  -5 -12  109.98   14.31
   3   6  -8   23.72   12.00
  -3  -6   8   27.53   13.87
  -3  -6   8   52.52   12.72
  -3  -6   8   57.24   15.62
   8  -4   4   75.53   17.00
   8  -4   4   72.66   21.88
   8  -4   4   81.37   22.82
   8  -4   4   50.42   17.53
  -8   4  -4   95.60   13.78
  -8   4  -4   98.34   20.16
  -5   8  -2   -5.22   13.46
  -5   8  -2   -2.02    2.35
  -5   8  -2  -12.82   10.60
   5  -8   2    1.95    8.10
   5  -8   2   -2.11    8.98
   8   8   6  141.93   23.88
  -8  -8  -6  149.71   22.14
  -8  -8  -6  119.96   24.02
   8   8   6  126.48   18.71
   0  10  -4   14.73   13.24
   0 -10   4   -7.03    9.99
   0 -10   4   10.30    8.59
   4  -7  -5   37.71   13.85
   4  -7  -5   37.79   12.55
  -4   7   5   19.16    5.72
  -4   7   5    3.25   10.36
  -4   6  -9   91.42   15.66
   4  -6   9  100.57   24.88
  -4   6  -9  108.49   17.79
   8   7   0  193.07   26.64
  -8  -7   0  194.34   25.62
  -8  -7   0  139.93   25.74
  -3  -8 -10    5.33    7.38
  -3  -8 -10   -0.86    8.28
  -3  -8 -10   46.11   13.00
   8   5  -2   78.74   13.94
  -8  -5   2   86.27   20.84
  -8  -5   2   67.77   10.10
   1 -10  -4  106.75   21.32
  -1  10   4   77.29   18.90
   8   2  -3  177.39   30.38
  -8  -2   3  180.92   33.05
  -8  -2   3  153.93   30.63
   2 -10   2   33.65   13.14
   2 -10   2   32.15   10.60
  -2  10  -2   14.87   13.07
  -2  10  -2   41.60   14.96
   9   5   1  112.73   16.64
  -9  -5  -1   72.16   14.33
  -9  -5  -1   82.73   18.45
   6   4  -6  220.11   32.60
  -6  -4   6  189.49   34.42
  -6  -4   6  278.56   41.49
  -6  -4   6  145.87   30.29
   5  -3  -7   54.38   11.51
  -5   3   7   67.46   13.65
  -5   3   7   55.73   13.52
  -6 -10  -5  210.63   35.97
  -6 -10  -5  151.31   21.30
  -6 -10  -5  123.57   24.22
   6  10   5  121.13   20.91
   6  10   5  198.03   33.87
   6  10   5  152.70   24.47
  -7  -5   4   94.59   13.88
   7   5  -4   80.71   21.47
  -7  -5   4  118.88   21.04
   5  -8   1   13.42   12.88
   5  -8   1   45.82   14.23
  -5   8  -1   35.02   10.99
  -5   8  -1   24.69   11.10
  -5   8  -1   47.06    7.78
   3  11   4   23.81    8.45
  -3 -11  -4    4.70    6.56
  -3 -11  -4   18.32   14.14
   3  -9  -3   46.04    8.74
   3  -9  -3   41.96   18.65
  -3   9   3   35.21    9.01
  -7  -1   5  161.57   33.00
  -7  -1   5  165.25   24.77
  -7  -1   5  146.45   40.56
   7   1  -5  196.51   24.10
  -4   0   9   13.86    9.09
  -4   0   9   38.99   14.20
   1  -9   6   -0.11    9.23
  -1   9  -6  -12.03    9.03
  -1   9  -6    0.29    4.09
  -1   9  -6    9.69    8.28
   1  -9   6   11.77    5.56
  -6   7  -2   54.18    9.74
  -6   7  -2   25.59   14.20
   6  -7   2   43.54   12.74
  -6   7  -2   60.49   16.70
   6  -7   2   59.97   16.42
   6   9   8  -13.92    8.08
  -6  -9  -8   -3.36    8.55
  -6  -9  -8   17.18   10.11
   6   9   8    6.39    6.68
   8   1  -3   10.15    7.80
  -8  -1   3    9.95   12.29
  -8  -1   3   15.30   10.10
  -4  -1   9    1.27    9.01
  -4  -1   9   -3.17    4.67
  -4   2 -12   66.85   17.95
  -4   2 -12   40.72   17.16
  -4   2 -12   34.44    8.76
  -4   2 -12   33.10   13.35
  -7  -5 -11   95.34   17.01
  -7  -5 -11  123.89   23.41
   7   5  11   96.84   16.27
  -7  -2   5    4.00   12.26
  -7  -2   5    2.84    6.91
   7   2  -5    1.12    7.80
  -7  -2   5   16.70    9.17
  -7  -2   5   -0.11    8.36
  -2   9   5   46.22   12.05
   2  -9  -5   43.36   16.71
  -6  -8   3   99.69   23.53
  -6  -8   3  100.74   31.19
   6   8  -3  100.30   20.17
   8   8   2   -8.09   14.22
  -8  -8  -2    5.46   10.23
  -8  -8  -2   -4.36    9.02
  -8  -8  -2    4.09    9.29
   3  -4  -9    1.05    7.20
   3  -4  -9    8.09    7.40
  -3   4   9    8.70   11.71
   8  -4   2    8.46    3.35
   8  -4   2   11.95   13.24
   8  -4   2    0.68    5.99
  -8   4  -2    7.46   12.56
   8  -4   2   24.02   13.15
   1  11   3   24.20    6.53
  -1 -11  -3   24.47    5.39
  -1 -11  -3   21.11    9.73
   5   9  -3  -10.07    9.87
   5   9  -3  -11.93    7.10
  -5  -9   3    1.55    7.42
  -5  -9   3   -1.76    5.26
  -3 -11   0   85.37   22.41
  -3 -11   0   75.05   15.14
   3  11   0   84.06   20.55
   3  11   0  131.49   29.65
   4  11   3   18.23    7.40
   4  11   3   22.83   12.73
  -4 -11  -3    7.37    7.87
  -4 -11  -3    5.14   10.10
   3   9  -5   -8.94   10.24
   3   9  -5    9.81   13.78
  -3  -9   5   18.89   15.92
  -7  -9  -1  115.38   20.62
   7   9   1   61.23   19.27
  -7  -9  -1  102.67   14.37
   5   5  12  117.02   15.21
  -5  -5 -12  156.48   22.91
  -5  -5 -12  228.05   30.31
   5   5  12  179.10   25.64
  -4  -7 -11   20.46   11.27
  -4  -7 -11    5.56    9.78
  -4  -7 -11    6.18    6.68
   1   9  -6  208.11   24.83
   1   9  -6  192.94   31.38
  -1  -9   6  175.65   33.68
  -1  -9   6  171.34   37.95
   4  11   2   -7.59    6.56
   4  11   2  -22.70   11.43
  -4 -11  -2    0.00    6.87
  -4 -11  -2    7.13    7.89
   6  -7   3  156.98   32.89
   6  -7   3  220.42   35.43
  -6   7  -3  208.78   34.81
  -6   7  -3  192.91   30.43
  -2 -11  -4   95.01   18.32
   2  11   4   99.90   17.40
  -2 -11  -4  102.29   22.30
  -6   2   6  228.94   38.37
  -6   2   6  275.22   39.54
   6  -2  -6  250.29   48.85
   6  -2  -6  250.81   32.33
  -8   0 -10   30.65   11.85
  -8   0 -10   47.64   15.64
   8   0  10   23.82   10.12
   8   0  10   42.16   11.44
  -2 -10  -7  344.45   41.57
   2  10   7  280.25   40.59
  -2 -10  -7  236.24   39.22
  -2 -10  -7  365.32   62.33
  -2 -10  -7  258.93   29.70
   6   4  12    2.28    4.55
  -6  -4 -12    0.81    3.69
  -6  -4 -12    0.45    8.87
  -5   7   3  457.72   62.86
  -5   7   3  555.64   95.25
   5  -7  -3  487.14   82.00
   5  -7  -3  721.53   92.83
  -5   8  -3   39.22   12.96
   5  -8   3   68.64   14.47
   5  -8   3   40.04   12.53
  -4  -9  -9   -4.82    5.12
   4   9   9    5.26    2.23
  -4  -9  -9    6.40    9.73
   4   9   9    7.27    2.36
  -5  -8 -10   -2.82    7.40
  -5  -8 -10    6.21    9.56
   5   8  10    2.09    2.32
  -5  -8 -10   -0.06    9.10
  -3   0  10   26.15    7.47
   3   0 -10   32.37   46.09
  -3   0  10   12.10    9.62
   5  10  -1   71.29   14.75
   5  10  -1   83.34   13.89
  -5 -10   1   74.81   17.68
  -5 -10   1   49.39   14.91
   8   5  10   32.10    9.62
  -8  -5 -10   23.38   10.11
  -8  -5 -10   14.80    6.90
  -6  -6   5  289.95   36.65
  -6  -6   5  246.87   50.73
   6   6  -5  333.94   54.63
  -2  10   2    1.36    6.34
   2 -10  -2   -2.49   11.52
  -9  -5  -8   16.98   10.49
  -9  -5  -8    3.29   11.75
   9   5   8   -5.98    8.73
   9   5   8   16.69    9.16
  -8  -3   3   -5.15   10.59
   8   3  -3   -6.26    7.67
  -8  -3   3   11.79   10.72
   2  -4 -10    9.66    6.70
   2  -4 -10    7.06    8.21
  -2   4  10    1.30    6.89
  -6   7  -1  107.28   14.97
  -6   7  -1  100.00   20.37
   6  -7   1  103.57   27.38
   6  -7   1  117.15   21.78
  -6   7  -1   96.08   19.84
   0  -5 -11   78.77   15.71
   0  -5 -11   48.30   15.76
   0  -5 -11   61.24   10.40
  -8   4  -5    4.00    9.87
   8  -4   5    4.30    6.06
   8  -4   5    8.02    9.60
  -8   4  -5   14.45    6.54
   9   6   2   -1.30   11.50
  -9  -6  -2    9.10    6.70
  -9  -6  -2    4.72   12.44
  -9  -6  -2    5.56   14.63
  -9  -4   0   79.79   20.08
  -9  -4   0   50.03   14.61
   0  -1 -12   53.39   15.46
   0  -1 -12   69.53   16.06
   0   1  12   66.95   12.89
  -3  -9  -9  268.29   47.44
  -3  -9  -9  228.54   35.46
  -1  -6 -11   67.48   18.86
  -1  -6 -11   73.56   16.99
  -1  -6 -11   47.70   14.38
  -6   0 -12  159.52   28.03
  -6   0 -12  155.21   30.32
   6   0  12  171.82   54.81
  -3  -7 -11   42.62   10.37
  -3  -7 -11   34.78   12.91
  -3  -7 -11   57.21   14.60
  -3  -1  10  137.75   20.21
  -3  -1  10  118.37   26.08
   7  -5  -1   16.86    6.09
   7  -5  -1    4.73    6.91
   7  -5  -1    6.34    7.70
  -7   5   1    5.85    9.92
  -7   5   1   16.10   12.03
  -7   5   1    9.26    7.52
   2   7  -8   21.31   15.40
  -2  -7   8   19.46   24.88
  -2  -7   8   17.07   12.25
  -7   0   5   -9.49    8.11
   7   0  -5   -2.56    6.97
  -7   0   5   11.48    9.82
  -7   0   5    4.58   12.90
  -1 -11   1    3.86   10.19
   1  11  -1    6.90    7.79
   1  11  -1    1.88    8.50
  -1 -11   1    2.56    9.61
   2   8  -7   13.29    8.96
  -2  -8   7   15.01    4.65
  -2  -8   7   14.22    5.02
  -2  -8   7    8.33    9.71
   2   8  -7   23.78    9.71
   0   0  12   25.72    5.46
   0   0 -12   16.23    6.65
   0   0 -12   14.31    9.32
  -2 -11   1    7.18   10.78
  -2 -11   1   12.24    9.25
   2  11  -1   12.20   10.59
   2  11  -1    8.32    9.01
  -5   8   0   65.33   11.19
  -5   8   0   51.73   15.26
   5  -8   0   39.17   20.15
   5  -8   0   31.76    9.79
  -5  -1   8   46.38   11.88
  -5  -1   8   17.03    7.28
   5   1  -8   23.16    9.57
  -9  -6  -7    2.35    6.50
  -9  -6  -7    7.17    9.70
   9   6   7    6.46    7.72
   9   6   7   14.09    7.71
  -9   1  -1  166.23   22.71
   9  -1   1  128.13   24.74
  -4   1   9   64.62   13.13
  -4   1   9   73.24   10.74
  -9   0  -8   17.78   11.18
  -9   0  -8   12.69   13.85
   9   0   8   30.77   16.27
  -3   8  -7   61.14   11.57
   3  -8   7   50.90   17.54
  -3   8  -7   55.22   12.54
   3  -8   7   65.47   18.05
  -1   2 -12   -1.42    9.09
   1  -2  12   -0.97    3.84
   5  10   7   -5.59    3.96
   5  10   7   -3.59    5.17
  -5 -10  -7   -8.74    9.27
  -5 -10  -7    6.49    9.30
   2  10  -4   29.91   12.11
  -2 -10   4   22.81   10.51
  -2 -10   4   27.39   13.62
  -4   4 -11   88.42   19.65
  -4   4 -11  136.00   24.82
   4  -4  11  114.06   24.52
  -4   4 -11  100.06   20.00
   4  -4  11  109.54   25.95
  -4   4 -11   87.24   21.98
  -4 -11  -4   17.10   11.41
   4  11   4   33.73   12.57
  -4 -11  -4   39.05   12.38
  -4 -11  -4   25.24    6.09
  -4   8  -6   39.94    7.91
  -4   8  -6   57.27   13.68
   4  -8   6   54.97   14.00
   4  -8   6   57.52   16.43
  -9   1  -7   18.08   12.52
  -9   1  -7   32.68   13.21
   9  -1   7   14.01   12.06
  -6 -10  -1   32.02   10.06
   6  10   1   17.43    9.54
   6  10   1   56.25   29.27
   6  10   1   38.30   12.68
  -6 -10  -1   34.48   12.34
  -9   2  -4  184.14   38.04
  -9   2  -4  183.23   25.82
   9  -2   4  173.48   54.51
   0  11   1   -5.58    6.56
   0 -11  -1   -1.13    9.45
   0 -11  -1    0.75    6.57
   0  11   1   18.83    9.83
   2  -7  -8   -0.94    4.73
   2  -7  -8   -3.30    9.83
   2  -7  -8   20.36   11.54
   3  -1 -10   61.61   10.80
  -3   1  10   62.02   16.14
  -5   0   8   63.45   12.61
  -5   0   8   30.05   14.48
  -4  -2   9   50.79   13.59
  -4  -2   9   31.49   12.53
   4   2  -9   22.07    9.79
  -4 -11  -1   23.37   10.89
   4  11   1    2.94   10.11
   4  11   1   31.52   12.40
  -4   9  -1   69.52   17.42
   4  -9   1  112.19   25.03
   4  -9   1  110.92   18.65
   1   5 -10    2.64    7.56
  -1  -5  10   20.10    9.03
  -1  -5  10    6.49    6.58
  -9   0   0   88.92   20.44
   9   0   0   70.04   17.19
  -9   0   0   46.00   11.55
  -5  -7 -11    7.34    9.41
  -5  -7 -11   40.28   11.50
  -5  -7 -11   -7.03    9.97
  -6   6  -7    1.21    9.16
   6  -6   7   19.07    9.43
  -6   6  -7   10.43    5.39
   6  -6   7    1.26   11.11
   9   3   9   20.93    9.20
  -9  -3  -9    6.38   12.44
  -9  -3  -9   12.73   13.50
   9   3   9   -0.11    9.92
  -8   0   3   46.80   17.37
  -8   0   3   32.32   13.57
   8   0  -3   56.12   12.81
  -7  -3   5  -12.97    6.69
   7   3  -5    1.80   10.52
  -7  -3   5  -12.90   10.21
  -7  -3   5    8.48   10.72
  -7  -3   5    3.21   11.28
   1  -7  -9   16.94    8.94
   1  -7  -9   13.22   10.09
   1  -7  -9   14.96    9.99
   0  11   0  225.16   39.71
   0 -11   0  241.43   36.93
   0  11   0  194.98   28.99
   0 -11   0  255.25   53.56
  -6   7  -4   52.88   10.56
  -6   7  -4   40.51    7.15
   6  -7   4   37.26   11.74
   6  -7   4   45.98   13.53
  -1  10  -4  168.71   22.12
   1 -10   4  101.89   22.07
   1 -10   4  148.36   21.98
   4  -4  -8   27.60    7.27
   4  -4  -8   42.90   11.54
   4  -4  -8   29.95   10.13
  -4   4   8   16.65   12.25
  -4   4   8   30.81    7.70
   2   4 -10   -6.70    7.46
  -2  -4  10    2.02    8.08
  -2  -4  10    7.36   10.04
   9   2   9   47.07   14.36
  -9  -2  -9   75.29   14.39
  -9  -2  -9   73.37   17.10
   9   2   9   61.26   13.28
   9  -2   3   22.49   10.42
  -9   2  -3    4.52   10.88
  -9   2  -3   23.30    8.41
  -4   9  -2   25.22   11.70
   4  -9   2   25.36   16.26
  -4   9  -2   28.92   14.22
   4   5  -8   35.63   15.01
  -4  -5   8   -3.11   14.37
  -4  -5   8   32.18   13.78
  -4  -5   8   24.46   10.00
  -1  -4 -12   25.56   14.15
  -1  -4 -12   31.96    9.88
  -7  -9  -7  154.43   31.06
  -7  -9  -7  124.05   25.52
  -7  -9  -7   73.88   18.09
   7   9   7  134.15   25.12
   1  -8  -8   13.58   10.19
   1  -8  -8   14.65   12.09
   0  -2 -12    9.75    8.66
   0  -2 -12   12.57    5.96
  -5  -5   7  102.21   19.14
   5   5  -7  118.84   21.07
  -5  -5   7  106.14   22.29
  -5  -5   7   72.51   13.98
   9  -2   5  166.10   51.77
  -9   2  -5  210.47   45.59
  -9   2  -5  199.97   29.74
   6  10   6    8.92    9.48
  -6 -10  -6    7.23    8.55
  -6 -10  -6    1.88   11.46
  -6 -10  -6   11.43   10.02
   6  10   6    2.82    8.36
  -2  -5 -12   21.53   11.63
  -2  -5 -12   22.60    8.41
  -2  -5 -12   11.36   10.84
  -5  -9  -9   13.11   10.02
   5   9   9   -1.75    2.82
  -5  -9  -9   -2.08    7.34
   5   2  -8    8.34    7.19
  -5  -2   8    6.78    5.99
  -5  -2   8   -1.08    7.10
  -2  -8 -10  -16.15   10.15
  -2  -8 -10   -0.40    8.05
  -2  -8 -10    1.81   13.41
  -8  -8  -7   50.76   15.57
   8   8   7   50.74    9.73
  -8  -8  -7   61.78   21.00
   1  -7   9   21.55    9.11
  -1   7  -9   35.60   12.71
  -1   7  -9   10.83   11.92
   8  -4   1   12.83    8.60
   8  -4   1   24.79    9.61
  -8   4  -1    7.82   11.49
   8  -4   1    8.71    5.08
  -8   4  -1    5.82    8.38
   8  -4   1    8.88    9.13
   2 -10   3  149.50   27.12
   2 -10   3  183.66   30.20
  -2  10  -3  226.05   28.84
  -8   2   2    8.22    8.05
  -8   2   2   -2.05    9.00
   8  -2  -2    1.91    7.36
  -8   2   2   -2.92    9.52
   0 -11  -2   43.41   14.09
   0  11   2   22.34    9.34
   0 -11  -2   29.15   13.77
   4  -9   0   17.27    9.00
  -4   9   0   14.57    9.17
   4  -9   0    4.41   10.28
  -4   9   0   10.29    8.34
  -4   7  -8   15.97    7.11
   4  -7   8   17.57    9.19
   4  -7   8   34.71   13.95
  -4   7  -8   10.94    8.58
   6  -5  -4   21.83   10.89
   6  -5  -4    8.79    6.87
  -6   5   4   28.18   11.92
  -6   5   4    9.48    9.69
   6  -5  -4    7.74    6.07
   6  -5  -4    3.63    6.17
  -6   5   4   -3.64    5.80
   3  -9   5  157.63   30.55
   3  -9   5  164.46   37.65
  -3   9  -5  136.21   23.91
  -7   1 -11   82.86   25.41
  -7   1 -11   69.21   13.56
   7  -1  11   75.84   20.65
   7  -1  11   65.88   16.95
   0  -4  11   27.46    7.95
   0   4 -11   20.20    8.49
   7   7  10  224.62   31.58
  -7  -7 -10  170.37   32.99
  -7  -7 -10  273.02   31.83
   1   3 -11   20.75    8.27
  -1  -3  11    5.42    7.18
  -6   4   5   58.11   16.68
   6  -4  -5   25.63   12.45
   6  -4  -5   74.49   14.57
   6  -4  -5   57.95   12.00
  -6   4   5   56.45   13.15
  -6   4   5   39.60   14.33
   5  -8   4   13.99   10.42
   5  -8   4   32.63   14.19
  -5   8  -4   15.26    8.89
  -3 -11  -5   -2.86    9.80
   3  11   5    6.06    5.68
   8  -3  -1    8.92    8.43
   8  -3  -1   -4.17    8.14
   8  -3  -1  -10.02    7.97
  -8   3   1  -15.54    8.62
  -8   3   1   12.37   14.59
   6  -7   0  137.65   30.63
  -6   7   0   83.67   19.71
  -6   7   0  113.01   21.83
  -6   7   0   88.11   17.67
   6  -7   0   75.41   24.62
   0  -1  12   38.68    8.89
   0   1 -12   37.12   10.79
   2  -8  -7    2.54    6.65
   2  -8  -7    4.71   10.40
   2  -8  -7   -5.98    8.66
  -2   8   7    1.12    2.67
   2  -6  -9   27.49    7.34
   2  -6  -9   17.63    8.49
   2  -6  -9   30.89   13.64
  -9  -4  -9   24.69    9.81
   9   4   9   48.01    9.74
   9   4   9   32.77   10.73
  -9  -4  -9   43.17   14.60
  -1 -11  -4  145.79   27.52
   1  11   4   97.71   18.92
  -2   9  -6   -1.99    2.68
   2  -9   6   13.59   10.07
   2  -9   6    0.45    6.91
  -2   9  -6   -6.09    8.02
  -8   2  -9   20.69   10.68
  -8   2  -9   35.89   12.86
   8  -2   9   42.44   12.58
   7  -6   3   56.21   14.12
   7  -6   3  120.37   21.57
  -7   6  -3   83.16   16.96
  -3  -2  10   -1.28    6.04
  -3  -2  10   -7.26    7.62
   7  -5   7   45.04   15.48
  -7   5  -7   52.98   10.62
  -7   5  -7   62.78   17.50
   2  -7   9  165.99   18.19
  -2   7  -9  122.66   16.23
  -2   7  -9  153.46   33.04
  -2   7  -9  178.08   23.80
  -7  -8  -9  159.93   21.33
   7   8   9  166.52   32.55
  -7  -8  -9  123.25   26.92
  -2   6 -10   48.89   13.09
  -2   6 -10   42.01    9.06
   2  -6  10    3.83   14.20
   2  -6  10   41.83    9.05
   5  -7   7   38.77   14.67
  -5   7  -7   22.83    6.33
  -5   7  -7   33.69   11.71
  -5   1   8    9.63    9.13
  -5   1   8    3.67    3.90
   0  11  -1   35.43    9.36
   0  11  -1   15.20   10.34
   0 -11   1   30.80    9.60
   0 -11   1   20.69    9.02
  -1   6 -10   99.08   14.07
   1  -6  10  143.68   25.74
  -1   6 -10  139.16   23.60
   1  -6  10  126.88   21.72
   7  -6   2   46.99   12.45
   7  -6   2   17.68   15.43
  -7   6  -2   36.27   13.76
  -8  -8  -1  144.59   20.91
  -8  -8  -1  117.74   26.18
   8   8   1  193.49   27.96
  -8  -4   3   36.01   13.34
   8   4  -3   77.13   18.67
  -3 -11   1  121.35   26.18
  -3 -11   1  159.51   28.99
   3  11  -1  118.14   27.34
   5  -5  -6  127.78   13.19
  -5   5   6  198.48   28.49
  -5   5   6  202.89   35.53
  -5   5   6  184.85   27.82
   5  -5  -6  150.62   27.77
   5  -5  -6  195.71   45.09
   4   2  13   21.25    6.74
  -4  -2 -13   27.29   12.37
   9   7   5  142.36   23.12
  -9  -7  -5  115.72   17.18
  -9  -7  -5  101.25   24.84
   9   7   5   91.88   19.55
   0 -10  -6   41.35   15.41
   0  10   6   55.89   11.69
   0 -10  -6   46.03    7.50
  -9  -7  -4  123.58   27.83
   9   7   4   62.46   12.51
  -9  -7  -4   73.59   16.93
  -3  -1 -13   91.06   21.43
  -3  -1 -13   67.05   15.33
   3   1  13  117.03   14.41
   8  -4   6    8.79   10.77
  -8   4  -6   28.16    9.95
   8  -4   6   23.15    8.34
  -8   4  -6   15.49    7.04
  -2  -9  -9    1.63    9.13
  -2  -9  -9    4.41    4.93
  -3   7   7    6.06    4.19
  -3   7   7   -7.02    7.08
   3  -7  -7  -22.29   11.44
   3  -7  -7    4.22   10.25
   3  -7  -7   -0.74    6.02
   2   0 -11   -3.08    6.71
  -2   0  11   -6.93    3.11
  -2   0  11    6.53    9.91
   0  -8  -9   64.73   16.63
   0  -8  -9   44.84   20.05
   0  -8  -9   59.82   17.02
   9   1   9   97.44   23.20
  -9  -1  -9   89.23   24.58
  -9  -1  -9   42.65   15.55
   9   1   9   70.28   23.86
  -3  -2 -13   -8.94   10.12
   4  -9   3  135.33   32.30
  -4   9  -3  112.03   17.96
  -2  -6   9   50.59   10.21
  -2  -6   9   65.77   19.89
   2   6  -9   53.62   17.77
  -2  -6   9   49.57   14.80
   6   9  -2   26.72   13.27
  -6  -9   2   28.42    8.04
  -6  -9   2   28.76   16.64
   4   1  13   10.33    6.61
  -4  -1 -13   14.50   12.07
  -4  -1 -13   -8.57    6.52
  -4  -1 -13  -17.16    9.32
   1  -4 -11  182.46   31.27
   1  -4 -11  154.10   25.84
   1  -4 -11  202.07   25.92
   9  -2   2  117.52   20.20
  -9   2  -2  113.90   16.99
  -5   6   5   34.05   10.82
   5  -6  -5   33.00   12.22
  -5   6   5   40.81    8.34
   2   9  -6    4.63    9.98
  -2  -9   6   21.44    5.98
   2   9  -6   16.11   10.17
  -2  -9   6   21.50    8.20
   2  11   5  130.81   19.98
  -2 -11  -5   78.13   17.56
  -4 -11  -5  368.89   72.22
  -4 -11  -5  332.96   45.23
   4  11   5  321.54   81.83
   0  -7   9    1.41   13.12
   0   7  -9   14.74   13.66
  -5   8   1   53.75   12.33
  -5   8   1   77.53   13.00
   5  -8  -1   79.58   20.00
  -3   6   8   28.46    6.21
   3  -6  -8   38.76   13.24
  -3   6   8   65.60   15.18
   3  -6  -8   32.65   10.48
  -7   1   5    4.42    9.40
  -7   1   5   -6.15    5.87
   7  -1  -5   -9.28    7.56
  -3   2  10   34.62   12.50
  -3   2  10   41.17    8.09
  -6  -5 -12  339.46   42.36
   6   5  12  274.90   55.80
  -6  -5 -12  211.29   50.54
  -1   8  -8   47.70   15.90
   1  -8   8   21.20   13.22
   1  -8   8   48.98   11.06
  -1   8  -8   74.63   18.20
   5  -2  12   49.05   13.12
   5  -2  12   56.68   15.63
  -5   2 -12   41.05   13.61
  -5   2 -12   28.33    9.25
  -5   2 -12   80.86   18.72
  -3   3 -12    7.16    8.16
   3  -3  12   24.32   10.54
  -3   3 -12    4.08    7.53
  -3   3 -12    4.09    7.82
   8  -3   8   -0.91    9.30
  -8   3  -8    3.96    7.26
  -8   3  -8   -2.91    8.74
   2 -10  -3   15.64   11.26
  -2  10   3   -0.88    7.65
  -7   6  -4   85.19   14.42
   7  -6   4   69.65   21.24
   7  -6   4   71.99   23.19
  -9  -2   1   -8.96    8.76
   9   2  -1   -3.60    8.84
   6  -4  10    4.92    7.88
  -6   4 -10    7.88   10.13
   6  -4  10  -11.21    6.63
  -6   4 -10    0.96    6.42
   2  -3  12   46.45   12.59
  -2   3 -12   53.87   17.37
  -2   3 -12   46.05   17.64
  -2   3 -12   54.68   15.03
  -4 -11   0  142.84   26.33
   4  11   0  168.12   31.92
   4  11   0  155.83   34.44
  -4 -11   0  158.70   30.24
  -2   1  11   10.62    5.03
  -2   1  11   21.46   13.12
  -2  -7 -11   56.63   14.75
  -2  -7 -11   57.56   17.71
  -4   2   9   24.26   12.30
  -7   4   3   93.80   18.61
   7  -4  -3   63.78   13.91
   7  -4  -3   73.28   13.13
  -7   4   3  125.20   23.13
  -7   4   3   63.42   12.26
   7  -4  -3   61.81   17.52
   7  -4  -3   79.31   14.11
   9  -2   6   -3.03    7.93
  -9   2  -6    6.92    6.38
  -9   2  -6    0.28    8.33
  -3  -5   9   65.20   18.14
   3   5  -9   92.83   19.70
  -3  -5   9   92.16   20.07
  -3  -5   9   71.61   19.63
  -7  -9   0    2.35   10.66
   7   9   0   -3.35    7.95
  -7  -9   0   -2.74    6.25
   8   3  11   40.95   11.01
  -8  -3 -11   41.85   12.47
  -8  -3 -11   27.39    8.94
   1  -6 -10   19.16   15.40
   1  -6 -10    6.44    8.65
   1  -6 -10   25.45    9.81
  -6  -8 -10   62.35   12.50
  -6  -8 -10   59.65   14.01
  -6  -8 -10   51.19   11.22
   6   8  10   35.50    9.90
  -8  -2 -11   -4.39    8.23
   8   2  11    2.78    8.88
  -8  -2 -11    1.71    8.90
   1  10   7    1.12    3.08
  -1 -10  -7    1.59    8.11
  -1 -10  -7   10.08   10.12
   0  -7 -10    3.28    7.67
   0  -7 -10   -1.93   10.01
   0  -7 -10   -5.96    7.80
   8   7   9  180.70   26.80
  -8  -7  -9  134.53   24.86
  -8  -7  -9  163.85   35.29
   9   5   0   42.71   13.09
  -9  -5   0   34.63   14.47
   7   7  -3  157.39   33.19
  -7  -7   3  158.78   33.07
  -4  -6 -12    4.33    7.15
  -4  -6 -12   -4.27    7.74
  -4  -6 -12  -10.14    7.29
   1  11  -2   -9.98    8.42
  -1 -11   2    1.10    9.82
  -1 -11   2  -11.54   10.77
  -4   8   4    4.28    8.99
  -4   8   4   -6.73    6.92
   4  -8  -4    0.23    8.93
   4  -9  -1    2.91    7.63
   4  -9  -1    5.24    9.82
  -4   9   1   -1.91    6.83
   0  -8   8   28.95   15.76
   0   8  -8   62.52   14.24
   0   8  -8   87.72   20.76
   0  -8   8   63.49   11.76
  -9  -6  -1   55.69   11.76
  -9  -6  -1   56.48   15.51
   9   6   1   81.47   14.54
  -2  -1  11  124.25   21.40
  -2  -1  11   95.31   16.96
   0 -11  -3   22.99   12.08
   0  11   3   16.73   12.16
   4   3  -9  127.28   23.27
  -4  -3   9  115.97   20.24
  -4  -3   9  143.93   25.38
   5  11   3    1.42    8.61
   5  11   3    0.00    6.53
   5  11   3   18.61   11.39
  -5 -11  -3    0.45    7.20
  -5 -11  -3    3.68    7.46
   4   3  13   76.38   14.38
  -4  -3 -13  133.21   21.22
  -9  -7  -6   18.43   11.89
   9   7   6    6.31   10.76
  -9  -7  -6   -2.62    8.22
   9   7   6    0.55    7.22
  -4 -10   3   -0.73    7.82
   4  10  -3    8.50    9.42
   4  10  -3   28.92   12.53
  -4 -10   3   24.85   11.41
  -8   1 -10   -2.20    6.13
   8  -1  10   11.39   10.73
   8  -1  10    4.71    7.48
  -8   1 -10    6.44   12.47
  -6   7  -5   22.14    5.84
   6  -7   5   -0.23    9.25
  -6   7  -5    6.85    9.24
   6  -7   5   21.49   10.02
  -6  -5   6   45.28   16.07
  -6  -5   6   39.83   13.91
  -6  -5   6   25.62   14.25
   6   5  -6   15.99   12.05
  -7   3   4   -5.26    6.92
  -7   3   4    6.12    5.84
   7  -3  -4    5.74    6.85
   7  -3  -4    0.96    7.69
  -7   3   4    8.80    8.03
  -9  -7  -3  290.79   38.80
   9   7   3  222.08   33.82
  -9  -7  -3  274.78   55.49
  -9  -3   1  215.14   49.30
   9   3  -1  180.79   44.95
   6   1  -7   -0.06    9.30
  -6  -1   7   19.35    7.59
  -6  -1   7   34.52   11.62
  -7  -2 -12  125.75   24.86
   7   2  12  114.83   31.59
  -7  -6 -11   72.84   12.78
  -7  -6 -11   85.55   14.38
   7   6  11   53.69    7.37
   0  -3 -12   54.24   16.28
   0  -3 -12   32.53   10.67
  -6   5  -9   25.98   12.18
  -6   5  -9   10.74    9.54
   6  -5   9   11.75   12.09
  -6   1 -12    3.84    7.64
   6  -1  12   21.85    9.20
   6  -1  12   14.96    6.76
  -6   1 -12   21.71    9.93
   1 -10  -5  141.90   17.97
  -1  10   5  130.86   18.41
  -7   6  -1    0.33    4.64
  -7   6  -1    0.11    8.25
   7  -6   1   -7.28    6.32
   7  -6   1   -2.73    7.24
  -7   6  -1   -3.54    6.80
  -7  -4   5  111.19   32.64
  -7  -4   5   90.84   26.33
   7   4  -5  194.07   33.45
  -7  -4   5   36.63   15.95
  -7  -4   5   76.92   23.19
   9   1  -1   22.99   12.12
  -9  -1   1   29.09   10.04
  -9  -1   1   29.07   10.09
   3   0  13   63.25   15.53
  -3   0 -13   62.16   18.82
  -5  -3   8   37.96   14.47
  -5  -3   8   68.01   18.35
   5   3  -8   44.62   16.42
   9   6   8   10.34   10.00
  -9  -6  -8    3.12    8.15
  -9  -6  -8   21.85    9.06
  -7  -3 -12  137.66   25.65
   7   3  12  125.02   21.57
  -4 -10  -8   79.93   12.43
   4  10   8   52.38   15.94
  -4 -10  -8   51.00   13.85
  -8   1   3  121.65   26.33
  -8   1   3   79.94   21.00
   8  -1  -3  166.14   25.22
  -6 -10   0  182.83   32.39
  -6 -10   0  150.13   31.30
   6  10   0   96.32   13.61
  -2 -11   2   20.27   14.56
  -2 -11   2   13.27   10.93
   2  11  -2   42.76   10.00
   3  -9  -4  243.83   36.42
  -3   9   4  233.50   55.73
  -8  -6   2   17.92   13.34
   8   6  -2   18.46   11.22
   8   6  10   15.86    7.05
  -8  -6 -10    7.73    5.80
  -8  -6 -10    1.59    8.73
  -3  -3 -13   32.41   15.39
  -3  -3 -13   58.81   14.28
  -8  -7   1   20.60    6.83
   8   7  -1   17.39   12.77
  -8  -7   1    3.39    9.03
  -3 -10  -8   44.62   12.13
  -3 -10  -8   24.34   12.27
   3  10   8   27.34    6.26
  -6   6   3   10.32    7.04
   6  -6  -3   18.24    8.54
  -6   6   3    7.58    6.46
   6  -6  -3    4.19    7.38
   6  -6  -3    5.22    7.04
  -6  -7 -11    8.62    8.72
  -6  -7 -11   -0.35    6.52
   6   7  11   -1.36    3.18
 -10  -3  -5   59.91   16.71
 -10  -3  -5   64.94   20.77
  10   3   5   75.65   19.02
  -5 -11  -2  110.25   19.77
  -5 -11  -2  127.42   21.38
   5  11   2  122.25   20.57
   5  11   4   11.73    8.98
  -5 -11  -4   15.45   14.87
  -5 -11  -4    0.60    7.74
  -5 -11  -4    8.55    8.55
   1  -9  -7    7.93    8.72
  -1   9   7    6.73    2.92
   3  -6  10  264.29   49.84
  -3   6 -10  187.22   37.04
  -3   6 -10  235.52   35.80
  -3   6 -10  228.93   54.68
  -5   5 -10   19.67   14.62
  -5   5 -10   21.80   12.75
  -6  -2   7   82.38   19.27
  -6  -2   7   59.29   15.05
   6   2  -7   66.31   15.08
   4   0  13  122.23   24.32
  -4   0 -13  149.87   33.41
  -4   0 -13  105.79   19.01
  -3  -6 -12   37.90   11.24
  -3  -6 -12   64.20   18.21
  -3  -6 -12   36.67   15.70
 -10  -2  -5    0.40   15.24
 -10  -2  -5    0.29   10.04
  10   2   5   17.89   12.80
  -5  -2 -13   15.31   11.04
   5   2  13    7.04    6.14
 -10  -3  -4   41.26   12.53
 -10  -3  -4   67.32   15.09
  10   3   4   73.02   19.55
  -6   0   7   42.41   11.59
   9  -1   0    9.23    8.48
  -9   1   0  -11.77    8.09
  -9   1   0   25.62   13.36
  -2  -1 -13    9.04   17.69
  -6   3   6   -5.32    6.37
  -6   3   6  -13.56   11.97
   6  -3  -6    0.00    5.14
  -3 -10   4  108.79   21.93
  -3 -10   4  116.47   20.16
   3  10  -4   98.09   34.39
   3  10  -4   83.85   25.34
 -10  -2  -4  196.91   25.65
  10   2   4  283.22   49.13
 -10  -2  -4  176.63   33.80
  -5  -6 -12   -9.56    7.12
  -5  -6 -12    8.83   11.45
   4   8  -6   -8.10   11.87
  -4  -8   6   10.85    9.19
  -4  -8   6  -10.75   13.18
   2  -8   8   17.16    8.38
   2  -8   8    3.50   10.58
  -2   8  -8   -1.05    6.56
  -2   8  -8    2.56   13.02
   0  -9  -8   20.91    6.17
   0  -9  -8   28.26   13.38
   7   8  -2   72.59   16.74
  -7  -8   2   68.33   14.02
  -7  -8   2   58.45    9.59
   0   6 -10   37.42   11.02
   0   6 -10   59.18   13.52
   0  -6  10   26.98   15.01
   0  -6  10   43.04   13.25
  -7  -6   4  175.49   25.85
   7   6  -4  213.10   40.64
   9   5   9    3.28    6.91
  -9  -5  -9   16.09   11.39
  -9  -5  -9   22.67   11.75
   8   4  11   -2.22    4.82
  -8  -4 -11    4.74    9.94
  -7   3 -10   42.74   15.62
  -7   3 -10   71.45   16.93
   7  -3  10   85.37   16.40
   9  -1   8  127.41   25.44
  -9   1  -8   65.66   17.26
  -9   1  -8   92.61   19.32
  -2   5 -11    8.71   11.29
   2  -5  11    6.11   10.60
  -2   5 -11    2.78   12.22
   2  -5  11   25.34   13.36
   8   1  11   11.35    8.19
  -8  -1 -11    0.66    9.22
  -8  -1 -11   -4.92    7.38
   6  -3  11   12.56    8.42
   6  -3  11    0.62   10.32
  -6   3 -11    6.19   13.20
  -6   3 -11    1.36    9.26
   6  -3  11    3.12    7.72
  -6   3 -11   -5.68    6.87
   5   8  -5   82.13   14.29
  -5  -8   5   89.68   21.90
  -8   4   0  141.13   30.66
   8  -4   0  179.22   38.66
  -8   4   0  154.37   31.29
   8  -4   0  178.58   35.43
   8  -4   0  189.57   25.82
   0  10  -5  132.53   31.34
   0  10  -5   98.46   21.11
   0 -10   5  121.61   18.34
   0 -10   5  130.44   25.96
  -5   4   7    6.36    9.27
  -5   4   7    2.42    4.60
   5  -4  -7   -9.27    7.45
   5  -4  -7   -1.84    5.91
   7   1  12   22.06   10.64
  -7  -1 -12   32.41   12.00
  -2  -2 -13   14.65    9.87
  -2  -2 -13   12.05    6.84
   5  10  -2    5.90    9.18
   5  10  -2    9.90    8.48
  -5 -10   2   19.20    6.09
  -5 -10   2    4.22    9.63
  -2   2  11   -9.40    8.62
  -2   2  11    2.75    2.69
  -5  -1 -13  109.29   19.18
   5   1  13  158.72   38.97
  -7   4  -9   12.60   12.57
   7  -4   9   30.70   15.03
  -7   4  -9   19.94    8.36
  -3   8   6  170.60   36.05
   3  -8  -6  198.75   39.44
   3  -8  -6  250.39   42.07
  -6 -10  -7  122.05   23.53
  -6 -10  -7  192.26   27.17
   6  10   7  172.37   23.42
   6  10   7  125.50   32.33
  -4   3 -12  107.06   23.48
  -4   3 -12   84.75   18.98
  -4   3 -12   85.77   19.34
   0 -11   2  233.74   33.43
   0 -11   2  272.25   43.44
   0  11  -2  251.88   38.58
  -5   8  -5  125.93   26.02
   5  -8   5   99.56   25.16
   5  -8   5  136.37   16.61
   3  -7   9   -1.06    6.93
  -3   7  -9    8.00    9.30
  -3   7  -9    4.24    5.83
   0  -2  12  166.75   20.33
   0   2 -12  130.72   28.00
  -7   6  -5   -0.60   12.46
   7  -6   5   10.93   13.58
   7  -6   5   -5.17   12.52
  -7   6  -5   -6.63    5.41
 -10  -3  -6    1.61    7.82
 -10  -3  -6   18.45    9.57
  10   3   6   20.50    7.63
   5   7  -6   10.58    9.34
  -5  -7   6   10.89    8.55
  -5  -7   6   -4.07    7.91
  -6   7   1   15.54    9.52
   6  -7  -1    2.13    8.63
   6  -7  -1  -15.34   11.15
  -6   7   1   17.62    7.45
  -4  -7   7  217.46   43.29
  -4  -7   7  251.65   39.96
   4   7  -7  243.53   38.79
  -1 -10   5    0.68    5.51
   1  10  -5  -13.91   10.61
  -1 -10   5   -5.30   13.79
   5   3  13    3.92    3.56
  -5  -3 -13    6.44   10.17
  -6  -9  -9   11.68    9.44
   6   9   9    5.83    7.15
  -6  -9  -9   -4.53    9.50
   1  -3  12    0.59    5.80
  -1   3 -12   -4.38   10.85
   7  -5  -2  567.17   85.05
   7  -5  -2  515.20  103.99
  -7   5   2  631.92   77.14
   7  -5  -2  519.45  116.29
  -7   5   2  532.19   86.12
   3 -10   1  175.48   30.55
   3 -10   1  144.94   32.56
  -3  10  -1  118.84   19.09
  -3  10  -1  111.85   19.53
   2 -10   4   88.06   22.65
  -2  10  -4  144.14   29.85
   2 -10   4  116.53   25.30
   4  -9   4   14.07   10.12
   4  -9   4   -7.00    7.45
  -4   9  -4    0.05   11.92
 -10  -4  -5  111.08   24.56
 -10  -4  -5  166.67   26.98
  10   4   5  134.95   24.45
 -10  -2  -6    2.86   12.77
  10   2   6   17.95   10.30
 -10  -2  -6    2.02   14.00
  -8  -8  -8   47.83   13.97
   8   8   8   35.83   10.35
  -5   6  -9  107.90   20.14
  -5   6  -9  111.84   22.45
  -3  -3  10    9.46    7.83
  -3  -3  10    1.78    8.72
  -5   4 -11    6.78    9.18
  -5   4 -11  -12.61    8.17
   5  -4  11   -8.64   10.58
   5  -4  11   -6.75    7.81
  -2   0 -13  125.49   29.66
   2   0  13  109.86   34.16
  -5   2   8    3.12    4.87
  -5   2   8    5.34   12.67
   3 -10   0   -4.40    9.22
  -3  10   0    3.98    6.47
  -9   2  -1   -1.52    7.25
   9  -2   1    1.17    8.38
   7   9   8  116.80   24.35
  -7  -9  -8   69.98   17.83
  -7  -9  -8   95.96   20.67
   7   4  12   25.12    8.37
  -7  -4 -12    9.72   11.23
  -1  11   0   10.88    8.90
  -1  11   0   31.86   13.64
   1 -11   0   11.13   15.77
   1 -11   0   38.14   10.76
   9   0   9    5.47    9.31
  -9   0  -9    1.15    9.59
  -9   0  -9   19.84   15.84
  -8  -9  -4   44.66   11.77
   8   9   4   -1.41    9.43
  -8  -9  -4    8.28    8.98
   8   9   4   12.16   10.83
  -8  -9  -4   -2.94    9.51
 -10  -4  -4    6.90   11.69
  10   4   4   -9.86    8.55
 -10  -4  -4    0.00   10.02
   9   4  -1    5.36    8.60
  -9  -4   1   16.67    9.69
  -1   5 -11   37.01   13.63
  -1   5 -11   53.30   14.99
   1  -5  11   35.11   13.20
  -7 -10  -4   33.13   17.99
  -7 -10  -4   48.62   11.36
  -7 -10  -4   64.08   19.13
   7  10   4   47.30   10.28
   7  10   4   60.43   15.79
  -3 -11  -6   11.34    9.81
   3  11   6   -2.41    4.54
   5  -7  -4   -1.82    9.99
  -5   7   4   10.16    7.74
   5  -7  -4    9.23    8.29
  -5   7   4    8.15    6.07
  10   3   3   98.30   19.90
 -10  -3  -3   98.34   17.49
 -10  -3  -3   90.69   25.91
  -2  -2  11    4.65    6.16
  -2  -2  11   -4.90    8.27
  -3   5 -11   -0.29    9.55
   3  -5  11   13.51   12.98
   3  -5  11    4.83   11.06
  -3   5 -11   -4.20    6.27
  10   2   3   29.04   11.75
 -10  -2  -3   21.14   10.74
 -10  -2  -3   14.30   13.42
   1 -11  -1   41.92   14.44
   1 -11  -1   41.18   13.92
  -1  11   1   60.89   10.75
   5  10   8   82.23   15.96
  -5 -10  -8  107.60   19.74
  -5 -10  -8  100.11   35.82
   5  10   8  105.27   27.62
   5  11   1   26.93   10.14
  -5 -11  -1   -0.24    9.78
  -5 -11  -1   15.92    6.47
  -1 -11  -5   56.36   15.30
   1  11   5   72.26   18.72
  -9  -7  -7    3.27    9.83
  -9  -7  -7   23.47   10.97
   9   7   7    4.59   10.88
  -3   5   9    1.74   10.10
   3  -5  -9   14.56   10.81
   3  -5  -9   14.88    9.36
  -3   5   9    4.83    1.35
  -5 -11  -5   -8.27    6.07
  -5 -11  -5   13.64    8.93
   5  11   5   -1.97    9.78
  -8  -9  -5   27.55   11.32
  -8  -9  -5   13.25   10.27
   8   9   5   55.62   15.72
   8   9   5   30.54   11.15
  -8  -9  -5   41.10   14.96
 -10  -1  -5  232.60   28.52
 -10  -1  -5  174.71   30.92
  10   1   5  275.05   47.77
  -4   6   7    9.68    5.97
  -4   6   7   -0.88   22.95
   4  -6  -7   10.12    9.52
  -4   6   7   17.61   14.22
   4  -6  -7   -0.22    7.82
  -9  -7  -2    3.65   13.06
  -9  -7  -2  -10.56    8.24
  -9  -7  -2   16.18    7.69
   9   7   2    0.98    8.56
  10   1   4   37.86   14.78
 -10  -1  -4   51.56   14.25
 -10  -1  -4   23.69   16.54
  -9   0   1  140.91   15.15
   9   0  -1  134.07   22.79
  -9   0   1  174.37   31.47
   2  -9  -6  114.59   15.66
  -2   9   6   82.11   15.96
  -1  -8   8    5.19    7.82
   1   8  -8    1.25   11.37
   7  10   3  199.81   29.17
   7  10   3  131.34   30.59
  -7 -10  -3  162.14   22.30
  -7 -10  -3  144.76   20.99
  -7 -10  -3  183.32   31.16
   2  -5 -10  543.90   54.60
   2  -5 -10  602.86   72.16
   2  -5 -10  507.06   51.89
  -4  -4 -13   34.61   11.92
  -1  -5 -12   -5.20   13.00
  -1  -5 -12   -9.22    6.68
  -1  -5 -12  -10.73    8.54
  -1  -8 -10   18.13    7.23
  -1  -8 -10   19.66    9.98
  -1  -8 -10    8.36   10.17
  -9   2  -7    7.74   10.22
   9  -2   7   -1.80   10.14
  -9   2  -7    8.66   10.24
 -10  -4  -6   11.51   13.34
 -10  -4  -6    7.54    8.92
  10   4   6   -4.54    7.76
   4  11   6    1.59    7.09
  -4 -11  -6    7.12    8.77
  -4 -11  -6    4.69    5.45
   1   7  -9  111.10   21.80
  -1  -7   9   76.77   22.41
  -8   4  -7  168.14   29.21
  -8   4  -7  131.18   25.41
   8  -4   7  128.07   32.11
   3 -10   2    0.98    9.10
   3 -10   2   -5.95   13.12
  -3  10  -2    4.89   11.12
  -8  -5   3   44.37   15.66
   8   5  -3   69.58   18.82
   4   9  -5   68.53   13.54
  -4  -9   5   37.86   11.71
  -4  -9   5   49.04   11.05
  -2 -10  -8    1.34    7.49
   2  10   8    0.99    1.63
  -2 -10  -8    5.82   10.45
  -6  -3   7    8.75    9.66
  -6  -3   7    2.13    5.47
   6   3  -7    5.79    8.98
   7  -6   0   -2.66    8.45
  -7   6   0    6.94    8.41
  -7   6   0   -6.33    6.22
  -7   6   0    9.85    9.11
   7  -6   0   -0.79    5.09
   7  -6   0   27.01   10.62
   8   9   3  -11.64    7.72
  -8  -9  -3   -9.52    9.74
  -8  -9  -3   13.04   12.30
  -8  -9  -3   -2.68    9.52
  -7 -10  -5    5.26    8.28
  -7 -10  -5    9.13    8.78
   7  10   5   -1.24    6.46
  -7 -10  -5    7.46    6.26
   1 -10   5   97.02   16.26
  -1  10  -5   79.99   16.24
   1 -10   5   86.43   19.92
   1 -11   1   55.13   14.89
   1 -11   1   63.01   17.59
  -1  11  -1   58.08   14.25
  -6   1   7  115.95   30.68
  -6   1   7  139.33   23.80
   0   9  -7   -0.80    4.62
   0   9  -7    3.58    9.59
   0  -9   7   -0.77    7.57
   0  -9   7    7.83    8.75
   3   8  -7   75.00   17.42
  -3  -8   7   70.93   13.52
  -3  -8   7  101.35   23.27
  -3   1 -13    9.44   11.41
  -4   9   2    4.77    9.48
   4  -9  -2  -10.29   13.50
   4  11  -1   19.78   11.80
  -4 -11   1   43.03   12.41
  -4 -11   1   22.28   10.62
  -3   3  10   29.81   13.75
  -3   3  10   34.29    5.74
   3  11  -2  111.38   28.90
  -3 -11   2  156.10   25.27
  -3 -11   2  174.41   26.64
   5  -8  -2   79.65   18.94
   5  -8  -2   50.36   17.25
  -5   8   2   96.29   14.94
  -5   8   2   82.60   16.34
  -8  -8   0   23.47   14.54
  -8  -8   0    6.36    7.35
   8   8   0    0.00   14.61
  -2  -3 -13  416.47   85.43
  -2  -3 -13  415.97   92.21
  -4   8  -7    4.66    9.52
  -4   8  -7    6.07    3.33
   4  -8   7   11.66    9.36
   4  -8   7    2.09    7.90
   4  -7  -6  163.01   36.28
   4  -7  -6  206.51   41.24
  -4   7   6  193.33   31.25
  -4   7   6  201.59   27.27
   0 -11  -4   30.02   12.00
   0  11   4   18.07    6.76
   5   9  -4   -7.70    8.48
  -5  -9   4   -4.12    8.54
  -5  -9   4  -10.09    6.86
   0  -6 -11   26.29   11.15
   0  -6 -11   54.57   11.99
   0  -6 -11    9.13   16.70
  -7   2 -11  149.45   32.53
   7  -2  11   53.60   36.70
   7  -2  11  131.09   39.29
  -7   2 -11  204.94   35.62
   3 -10  -1  249.48   57.70
  -3  10   1  187.64   40.19
   3 -10  -1  182.57   30.55
   1  -9   7   38.02   11.75
  -1   9  -7   50.70   11.46
  -1   9  -7   50.28   13.14
   1  -9   7   69.51   14.82
  -7   2   5    9.27   10.13
  -7   2   5   13.61   10.29
   7  -2  -5    9.91    7.40
  -6   6  -8   -6.04    4.35
  -6   6  -8   -2.31    9.07
   6  -6   8    5.30    8.49
  -5   0 -13  -15.88    7.55
   5   0  13    5.21    6.03
  -3  -4 -13   -5.00    7.12
  -3  -4 -13   -8.67    7.69
  -9  -3 -10   87.82   21.03
   9   3  10   52.83   15.64
  -9  -3 -10   97.48   13.43
  -1  -4  11   13.46    6.31
   1   4 -11    8.44    7.08
  10   1   6  196.14   36.88
 -10  -1  -6  193.84   35.62
 -10  -1  -6  169.57   36.02
   3  -9   6    1.63    8.38
   3  -9   6    4.68    7.77
  -3   9  -6    5.38    9.51
  -1  -9  -9  111.60   16.73
  -1  -9  -9  152.01   25.72
  -1  -9  -9  122.52   22.62
 -10  -4  -3   -2.30   11.63
 -10  -4  -3  -12.45   13.74
  10   4   3    8.91   13.87
   6   8  -4  110.96   23.04
  -6  -8   4   71.81   18.90
  -4   3   9   68.20   17.67
  -4   3   9   67.48   11.09
  -1  11   2   45.95   12.11
   1 -11  -2   35.35   13.18
 -10  -3  -7  185.99   37.72
 -10  -3  -7  199.16   41.93
  10   3   7  154.59   36.08
  -9  -2 -10   48.70   15.99
  -9  -2 -10   36.58   11.30
   9   2  10   53.97   16.79
 -10  -1  -3   33.49   15.99
 -10  -1  -3   38.92   10.50
   8   2  -4    1.98    7.69
  -8  -2   4    4.04   10.66
  -2 -11  -6   29.70   15.40
   2  11   6   20.83    8.62
   6   7  -5   14.87   13.37
  -6  -7   5    6.45    9.96
  -6  -7   5    5.52    7.24
  -2  10   4   52.19   10.14
   2 -10  -4   41.19   15.95
   3   7  -8   92.00   20.71
  -3  -7   8   65.23   10.88
  -3  -7   8   38.77   13.74
  -5  -4 -13   56.33   14.39
   5   4  13   68.62   12.09
  -9   3  -4    9.26   15.81
  -9   3  -4   -1.34    6.02
   9  -3   4   18.77   14.22
  -2  -6 -12   -2.08    9.34
  -2  -6 -12   -1.60    8.62
  -2  -6 -12    6.68    9.71
  -4   1 -13   64.26   16.52
   4  -1  13   96.89   25.24
  -7   0 -12    5.16    9.03
  -7   0 -12   -9.90    8.09
   7   0  12   -1.84    6.76
  -2  -5  10   40.33   15.14
  -2  -5  10   28.41   13.88
   2   5 -10   16.81   11.54
   8   5  11   -4.42    5.93
  -8  -5 -11   -0.91    9.48
   6  -7   6    4.46    9.09
  -6   7  -6   -2.58    4.80
  -6   7  -6   12.83   11.70
   6  -7   6    6.81    7.00
  -8  -9  -6   45.61   12.77
   8   9   6   38.69   12.50
  -8  -9  -6   22.50   10.94
  -8  -9  -6   27.33   12.35
  -8   3   2   70.94   18.76
  -8   3   2   70.42   17.87
   8  -3  -2   53.19   12.83
   8  -3  -2   81.81   18.25
  -8  -1   4   10.46   11.54
   8   1  -4    2.15    8.89
   8   0  11    4.63    6.99
  -8   0 -11   13.73    9.22
  -8   0 -11    1.76    7.66
 -10  -2  -7  -10.86   14.85
 -10  -2  -7    5.43    8.59
  10   2   7   -2.86   11.87
   2  10  -5   31.86   14.83
  -2 -10   5   56.57   14.32
  -2 -10   5   58.57   20.32
  -8   5  -3  146.99   30.93
   8  -5   3  143.54   35.00
   8  -5   3  178.75   30.49
   7  10   2   70.94   18.42
  -7 -10  -2   39.22   15.25
  -7 -10  -2   62.58   18.03
   7  -5   8   38.28   12.95
  -7   5  -8   58.49   16.78
  -7   5  -8   64.50   11.29
  -1   0  12  205.52   41.84
   0  -4 -12   -8.25    9.82
   0  -4 -12   -3.62    5.28
  -1   1  12    3.86    3.89
   6   6  12    3.86    4.35
  -6  -6 -12   17.88   11.16
  -6  -6 -12    7.15   11.82
  -4  -8 -11    4.49    6.98
  -4  -8 -11   10.55    9.22
  -4  -8 -11   17.36    9.37
  -1 -11   3  202.35   28.63
  -1 -11   3  222.73   46.86
   1  11  -3  208.57   30.99
  -5  -4   8   -2.03    7.74
  -5  -4   8   -4.95    8.25
   5   4  -8   -8.31    7.48
   9  -3   3    8.00   10.21
  -9   3  -3   -8.59    7.09
  -9   3  -3    3.55   11.65
   4   4  -9    8.36    9.27
  -4  -4   9    9.12   11.77
  -4  -4   9    8.35    8.99
   2  -1  13   25.88    7.71
  -2   1 -13   20.86   14.45
   5   6  -7  101.75   25.77
  -5  -6   7  120.57   25.02
  -5  -6   7   91.06   16.91
  -8   5  -4   41.55   15.38
   8  -5   4   52.53   18.95
   8  -5   4   64.59   16.49
  -8   5  -4   37.43    8.65
  10   5   5   23.69    8.37
 -10  -5  -5   -2.89   12.31
 -10  -5  -5    7.19   10.97
  -4   5   8   44.59   10.58
  -4   5   8   67.63   16.07
   4  -5  -8   83.08   15.30
   4  -5  -8   73.81   17.42
  -4  -9 -10   -5.02   11.34
  -4  -9 -10    4.99   10.86
  -4  -9 -10   -5.53   10.41
  -1  -7 -11   45.78   13.22
  -1  -7 -11   29.98   12.78
  -1  -7 -11   20.30   13.17
   9   6   0    0.93    9.09
  -9  -6   0    3.86   11.67
   9   4  10   26.63    9.12
  -9  -4 -10   36.26   13.26
  -9  -4 -10   26.28   12.94
   3   9  -6   44.08   14.22
  -3  -9   6   42.77   15.28
   4   6  -8   73.25   17.58
  -4  -6   8   50.84   15.67
  -4  -6   8   84.85   17.20
  -9   3  -5    3.12    8.49
   9  -3   5   12.05    9.95
  -9   3  -5    8.30    7.25
  -7  -9   1   75.53   14.11
  -7  -9   1   60.19    9.45
   7   9  -1   53.32   17.76
   7   5  -5   12.93   10.87
  -7  -5   5   17.90    8.68
  -7  -5   5   17.04   12.53
  -3   8  -8   48.18   12.84
   3  -8   8   37.16   15.04
   3  -8   8   17.37   13.41
  -3   8  -8   48.93   14.01
  -2   3  11   54.89   16.27
  -4   6 -10  151.74   32.72
  -4   6 -10  147.53   26.77
   4  -6  10  216.65   41.46
 -10  -4  -7   85.13   25.29
 -10  -4  -7   83.98   25.70
  10   4   7  117.83   26.87
  -1  -9   7   42.23   14.45
  -1  -9   7   48.16   13.48
   1   9  -7   26.75   15.11
 -10  -2  -2    4.43   10.59
 -10  -2  -2    8.09   11.47
  10   2   2   -4.80   10.10
  -7   6  -6   14.86    7.83
   7  -6   6   27.93   10.47
   7  -6   6    5.78    8.13
  -7   6  -6   30.59   14.19
 -10  -3  -2  301.85   50.89
  10   3   2  333.68   45.83
 -10  -3  -2  339.51   53.29
  10   5   4  153.09   39.89
 -10  -5  -4  159.59   53.25
 -10  -5  -4  165.79   25.84
  -6  -2 -13  132.42   26.90
   6   2  13  120.00   33.67
  -8  -9  -2   42.56   10.53
  -8  -9  -2   14.35   13.84
   8   9   2   26.59    9.97
  -8  -3   4   69.71   21.35
   8   3  -4  109.16   21.31
  -3  10  -3   28.79   13.85
   3 -10   3   43.17   22.02
   3 -10   3   26.27   12.89
   8  -2  -3    6.66    8.04
  -8   2   3   -4.29    6.24
  -8   2   3   -6.55    8.34
  -7 -10  -6   19.44   11.64
  -7 -10  -6   16.11   10.32
   7  10   6   35.86   12.34
   1  -5 -11   20.88   13.10
   1  -5 -11   23.21   12.75
   1  -5 -11   11.08    6.80
   6  10  -1   53.41   14.75
  -6 -10   1   43.63   11.20
  -6 -10   1   47.34   16.02
   8  -5   2  159.97   24.71
  -8   5  -2  230.10   39.61
   8  -5   2  166.60   40.60
  -1  -1 -13   28.48   11.65
   1   1  13   21.17    4.25
   7   5  12   35.31   11.51
  -7  -5 -12   44.37   14.70
  -1  11  -2    1.71   11.57
   1 -11   2   -8.43   10.01
   1 -11   2   -3.57    8.35
   9   6   9   31.11   12.44
  -9  -6  -9   43.83   18.37
  -5  -8 -11   -5.68   11.66
  -5  -8 -11    0.17    8.43
  -5  -8 -11    9.83   15.42
 -10  -5  -6    8.97   10.43
  10   5   6   -1.91    7.69
 -10  -5  -6    7.35   10.69
   0   5 -11   16.94   14.72
   0  -5  11   15.71   13.63
   0 -11   3    1.98    7.69
   0 -11   3    0.89   10.35
   0  11  -3   15.69    9.87
  -5 -11   0  131.90   28.49
   5  11   0  172.76   20.65
  -5 -11   0  160.48   26.62
   6  -2  12   19.61    8.95
  -6   2 -12   46.11   11.64
  -6   2 -12   43.62   13.15
   2  11  -3   50.52   14.84
  -2 -11   3   32.46   13.25
  -2 -11   3   87.18   26.81
  -3  -8 -11  300.28   45.36
  -3  -8 -11  261.40   49.08
  -3  -8 -11  279.46   40.68
  -6  -3 -13   43.14   13.92
  -5 -11  -6   14.78    7.48
   5  11   6   12.73    8.60
  -5 -11  -6    3.37   11.18
  -1  -6  10  -11.87    7.59
   1   6 -10   -3.46    7.91
  -3  -9 -10   -5.07   11.01
  -3  -9 -10    2.60    6.75
  -3  -9 -10   18.47   15.89
  -9  -1 -10   10.71   10.74
  -9  -1 -10   14.05    8.81
   9   1  10    1.68    8.63
 -10   0  -4   90.21   19.04
  10   0   4   98.13   19.97
 -10   0  -4   73.55   16.49
  -8   3  -9   41.76   11.38
   8  -3   9   48.71   22.12
  -8   3  -9   45.59   17.23
  -1  -1  12   46.81   12.32
 -10   0  -5  -16.26   13.78
  10   0   5   -4.95    8.57
 -10   0  -5   -9.59    9.76
  -7  -8 -10   -1.32    6.91
   7   8  10   19.90    7.98
  -7  -8 -10   -0.23    7.57
   4  -5  11   12.82    9.95
  -4   5 -11   20.74    7.30
  -4   5 -11   -1.20    8.42
  -5   7  -8   30.52    8.83
  -5   7  -8   19.80    9.25
   5  -7   8   22.46   11.90
  -9  -5   1   12.36   11.32
   9   5  -1   32.70   15.59
   5  -3  12   -2.72    6.87
  -5   3 -12    5.06    6.99
  -5   3 -12   -2.87    7.24
  -8   0   4  114.65   28.13
   8   0  -4  132.30   25.58
  -8   0   4   73.20   19.81
  -1   0 -13  234.04   54.03
   1   0  13  167.00   48.93
  -8   2 -10   42.32   13.70
  -8   2 -10   36.68   15.68
   8  -2  10   89.42   25.66
   5   9  10   -1.61    1.96
  -5  -9 -10    7.94    8.42
  -5  -9 -10  -11.16   10.46
  -5  -9 -10    0.28   14.13
   1  -2 -12   -3.44    8.12
   4  -9   5  172.16   24.37
   4  -9   5  138.19   22.82
  -4   9  -5  117.23   28.20
  -1  -2 -13   38.44   12.97
  -1  -2 -13   43.90   14.35
  -8   4   1   21.94   10.99
  -8   4   1   -4.12    8.00
   8  -4  -1   10.20    8.36
   8  -4  -1   -1.89   12.48
   8  -4  -1    2.90    4.86
  -7  -1   6    6.83    8.00
   7   1  -6    8.85    9.25
  -7  -1   6    7.62   10.74
   0 -10  -7  -12.22    8.92
   0  10   7   -2.28    3.41
   6   1  13    6.61    8.30
  -6  -1 -13    7.10    9.95
   2  -9   7   50.12   17.50
  -2   9  -7   31.55   13.44
  -2   9  -7   28.11    8.97
   2  -9   7   26.85   10.26
  10   1   7   81.19   18.48
 -10  -1  -7   35.20   18.20
 -10  -1  -7   78.02   21.12
   9  -3   2   -5.87   12.65
  -9   3  -2  -11.99   14.28
  -8   5  -5   -2.25    6.90
  -8   5  -5   13.80   12.02
   8  -5   5  -21.49   10.14
   8  -5   5    0.11    8.17
  -3  10   2    5.54    7.97
   3 -10  -2    0.46   10.18
   9   7   8   90.05   19.51
  -9  -7  -8   75.23   25.44
  -9  -7  -8   52.24   17.83
   5  -8   6    2.68    9.32
  -5   8  -6    4.80    9.55
   6   9  -3   40.27   15.73
  -6  -9   3   25.86   16.59
   6  -7  -2   11.60   12.27
  -6   7   2   -4.55    7.13
  -6   7   2   13.75    7.77
   0   3 -12   -4.10   10.15
   0  -3  12    0.05    5.28
  -9   2   0   28.71   13.04
   9  -2   0   23.62   10.55
  -7  -2   6   56.06   16.30
   7   2  -6   46.53   16.83
  -7  -2   6   56.59   20.89
  -2  -3  11   91.43   20.10
  -2  -3  11  118.66   20.19
  -9  -7  -1  -10.22    9.36
   9   7   1    2.22    7.22
   6  -5  -5   14.10    7.67
  -6   5   5   15.29    9.84
  -6   5   5   10.21   10.32
   6  -5  -5   16.84    9.06
   2  -4  12   17.39   11.56
  -2   4 -12   17.86    9.33
  -2   4 -12    6.39    8.93
  -9  -8  -5   18.57    9.98
  -9  -8  -5   45.42   15.15
   9   8   5   30.51    9.83
  -9   1   1   28.34   15.37
   9  -1  -1   23.70   15.71
  -7  -7 -11   92.88   18.92
   7   7  11  105.50   22.11
  -7  -7 -11  105.99   22.23
 -10  -1  -2    6.67    9.94
 -10  -1  -2  -14.75    8.63
  10   1   2    9.22    9.80
   9   8   4   33.80   13.07
  -9  -8  -4   43.28   15.54
  -9  -8  -4   19.00   10.10
  -9  -2   2   31.56   15.90
   9   2  -2   28.75   10.42
  -8  -7 -10   11.40   12.54
   8   7  10   -3.19    5.94
  -8  -7 -10   -5.06    7.46
 -10  -4  -2   16.56   12.41
  10   4   2   10.63   10.94
 -10  -4  -2   18.79   11.56
  -1  11   3  152.52   26.05
   1 -11  -3  124.18   24.72
  -6 -10  -8   80.13   26.51
   6  10   8   49.23   12.83
  -6 -10  -8   68.93   22.10
  -3   4 -12   27.42    8.61
  -3   4 -12   40.46   11.23
   3  -4  12   42.58   13.69
  -6  -6   6   28.92   14.14
   6   6  -6   12.45   13.19
  -6  -6   6   29.99    9.46
  -6 -11  -3   41.33   15.95
   6  11   3   44.40   14.70
  -6 -11  -3   57.88   14.74
  -2  -4 -13   20.67   10.80
  -2  -4 -13   13.73    9.44
 -10  -5  -3   11.83   12.41
 -10  -5  -3   48.07   18.06
  10   5   3   17.60    9.60
  -6  -4   7   33.93   14.38
   6   4  -7   35.78   12.38
  -6  -4   7   41.65   11.63
   4  -7   9   66.06   17.44
  -4   7  -9   70.38   15.32
  -4   7  -9   35.07   14.35
   6  11   4    4.16   11.39
  -6 -11  -4   -4.78    7.38
  -6 -11  -4   -2.97    6.78
  -6 -11  -4    5.51    9.90
   1 -10  -6   44.45   15.70
  -5   3   8   16.90    7.57
  -5   3   8  -18.32    9.35
  -9   1  -9   57.02   16.83
  -9   1  -9   58.01   19.37
   9  -1   9   69.52   16.74
  -6   2   7   19.88   10.99
  -6   2   7   15.19    9.88
  -4  -5 -13    2.77    9.26
  -4  -5 -13    6.27    7.97
  -4  -5 -13   -5.80   15.89
 -10   0  -3   89.58   23.79
  10   0   3  113.63   18.78
 -10   0  -3  116.46   14.37
   3  -9  -5   65.65   12.50
  -3   9   5   43.05   11.95
  -9   3  -6  324.58   48.79
  -9   3  -6  303.57   72.10
   9  -3   6  361.78   90.49
  -3  -4  10   95.37   23.99
  -3  -4  10   84.12   25.55
 -10   0  -6    3.41    9.59
 -10   0  -6   -1.25    9.13
  10   0   6    5.18    9.39
   8   9   7   39.10   11.84
  -8  -9  -7   20.57   11.02
  -8  -9  -7   26.37   13.15
   4  -8  -5   62.89   15.82
   4  -8  -5   23.65   12.76
  -4   8   5   47.20   13.14
  -4   8   5   61.30   11.72
   7  -6  -1   17.72   11.27
  -7   6   1   27.05    9.75
  -7   6   1   35.63   12.20
   7  -6  -1   38.72   13.01
   7  -6  -1   29.28    8.01
  -4  -7 -12   24.93   11.52
  -4  -7 -12  -12.31   12.53
  -4  -7 -12   -0.12    6.25
  -7 -10  -1   59.36   17.94
   7  10   1   87.64   18.72
  -7 -10  -1   92.92   16.06
   2 -10   5   43.45   13.39
   2 -10   5   12.80   10.99
  -2  10  -5   10.44   12.91
  -5   1 -13   10.80    9.48
   5  -1  13    2.79    4.24
  -9  -3   2   39.29   16.64
   9   3  -2   44.60   13.75
  -7   0   6   19.39   10.72
  -7   0   6   30.40    8.74
  -9  -1   2  101.94   17.51
   9   1  -2   89.44   19.00
  -9   2  -8   -1.33    9.63
  -9   2  -8   10.85    9.29
   9  -2   8   -4.31   10.30
   8   8   9   10.56   10.06
  -8  -8  -9    0.40    9.44
  -8  -8  -9   17.22    7.14
 -10  -3  -8    0.86   10.18
  10   3   8   -6.02    8.46
 -10  -3  -8   -2.08   17.84
   8  -5   1  108.48   24.74
   8  -5   1   79.20   19.56
  -8   5  -1   77.70   19.20
   7  -4  -4   32.87   11.00
   7  -4  -4   46.92   12.95
  -7   4   4   24.10   11.80
  -7   4   4   32.54    9.31
  -4 -10   4    1.22   11.48
   4  10  -4    4.47   10.06
  -4 -10   4   -5.50    5.95
  -3  -6   9   -6.05    8.05
  -3  -6   9   -4.63    6.18
   3   6  -9   16.21   11.28
   8   7  -2  112.23   21.48
  -8  -7   2   86.24   21.56
  -9  -5 -10   21.83    9.67
   9   5  10   15.57    9.21
  -9  -8  -6   76.56   19.20
  -9  -8  -6   69.62   16.69
   9   8   6  106.89   23.57
  10   5   7    2.66    8.13
 -10  -5  -7   14.35   10.98
 -10  -5  -7    7.20   14.09
  -3   2 -13   -7.67    9.16
  -6  -4 -13   31.70   14.05
   6   4  13   22.00    7.40
   2   8  -8   81.18   24.57
  -2  -8   8   93.22   20.40
  -1 -10  -8   -2.26    9.35
  -3 -11  -7   20.36    9.62
   3  11   7   23.92    8.69
   4  11   7  129.17   27.11
  -4 -11  -7  160.62   34.17
  -6   6   4   91.97   22.28
   6  -6  -4   76.47   21.44
   6  -6  -4  120.68   22.38
  -6   6   4   67.59   13.74
   6  -4  -6    3.34    8.46
   6  -4  -6    1.78    6.35
  -6   4   6    3.51    5.55
  -6   4   6    2.22    7.06
   4  -9  -3   -5.67    9.40
  -4   9   3    5.94    6.94
  -9  -8  -3   14.78    9.83
  -9  -8  -3   14.31   10.34
  -9  -8  -3   30.22   11.79
   9   8   3   23.08   14.32
 -10  -2  -8    9.65   12.28
 -10  -2  -8   29.93   10.61
  10   2   8   30.23   10.69
  -1 -11  -6   13.92   11.46
   1  11   6    7.03    4.56
  -6 -11  -2    7.15    7.67
  -6 -11  -2   -0.75   12.40
   6  11   2   -3.88   12.96
   4  10   9   56.89   14.92
  -4 -10  -9   81.39   14.53
  -4 -10  -9   70.63   21.41
   1  -8  -9   24.44   17.64
   1  -8  -9    9.97    9.34
   1  -8  -9    3.69    6.64
  -8  -4   4   17.98   10.99
   8   4  -4   16.41   11.16
  -5  -5 -13   51.82   12.53
  -5  -7 -12   70.76   15.72
  -5  -7 -12   45.70   13.94
  -5  -7 -12   67.22   17.48
   2  -7  -9    8.85    7.28
   2  -7  -9   13.82   12.23
   2  -7  -9    8.31    9.52
   7   9   9   60.96   15.01
  -7  -9  -9   34.19   12.67
  -7  -9  -9   53.66   19.79
   0 -11  -5   14.24   12.34
   0  11   5   21.38    7.56
   2  -8  -8    3.02    9.62
   2  -8  -8   22.49   11.03
  -8   4  -8    5.87   13.63
  -8   4  -8   -5.68   11.88
   8  -4   8   -4.21   10.39
   6  11   5   93.80   19.14
  -6 -11  -5  101.45   19.42
  -7  -3   6   16.93   10.75
   7   3  -6   21.13   10.88
  -7  -3   6   16.50   11.13
   1  -1  13   18.22    8.30
  -1   1 -13   14.92   10.01
  -3  -5 -13   84.51   20.43
  -3  -5 -13   62.55   19.79
  -3  -5 -13   85.33   26.49
  -5 -10   3   69.35   18.41
  -5 -10   3   61.00   14.42
   5  10  -3   53.39   17.87
  -5   6   6   -2.58    4.95
  -5   6   6   14.86   10.29
   5  -6  -6   -0.45   12.51
   5  -6  -6    4.97   11.95
  -4 -11   2  158.78   45.32
  -4 -11   2  218.29   31.60
   4  11  -2  169.62   44.43
  -1  -3 -13   -0.90    5.67
  -1  -3 -13   -0.93   13.36
  -7   1 -12   41.70   14.94
   7  -1  12   44.49   20.78
  -7   1 -12   85.14   24.20
  -1   4 -12   36.79   13.49
   1  -4  12   42.53   11.08
 -10  -4  -8   65.62   16.33
  10   4   8   37.00   13.82
 -10  -4  -8   37.25   12.83
  -7   5   3   15.12   12.86
   7  -5  -3    5.57    9.14
   7  -5  -3    8.86   11.86
  -7   5   3   24.49   10.34
  -3  -7 -12  109.40   27.37
  -3  -7 -12   68.48   16.61
  -3  -7 -12   84.11   23.82
  -5   8   3   50.27   18.66
  -5   8   3   60.66   14.36
   5  -8  -3   68.89   19.88
  -8  -9  -1   64.46   12.95
  -8  -9  -1   55.68   13.36
   8   9   1   68.94   21.47
  -2 -12  -2   22.39   11.05
  -2 -12  -2   29.06   12.03
   2  12   2   22.09    9.27
   7  10   7  110.77   19.18
  -7 -10  -7  107.89   21.94
  -8  -6   3   24.24   14.45
   8   6  -3   52.16   10.81
  -6   0 -13   46.80   13.36
   6   0  13   54.27   18.11
   8   6  11   50.41   11.98
  -8  -6 -11   47.35   11.32
  -8  -6 -11   28.46    6.58
   2  -2  13   47.54   11.81
  -2   2 -13   75.30   16.55
  -3 -10  -9   66.91   16.51
  -3 -10  -9  138.26   25.13
  -7  -7   4    3.07   10.19
   7   7  -4  -10.30   10.87
  -1  -2  12   32.98    8.45
  -3   4  10  189.65   42.60
  -3  10  -4   -7.80    8.12
   3 -10   4   12.55   11.11
   3 -10   4  -11.85    7.94
   6  -8   2   80.04   20.03
   6  -8   2  101.26   20.87
  -6   8  -2   96.10   22.82
   8  -1  11   -9.19    7.10
  -8   1 -11   -2.09    8.20
  -8   1 -11   10.68    7.81
  -3 -12  -2    7.58    7.73
   3  12   2    1.13    9.99
  -3 -12  -2   -5.02    9.51
   6   8  11    0.90    3.74
  -6  -8 -11   -6.24   10.76
  -6  -8 -11   -6.54    9.03
  -6  -8 -11   -2.25   15.91
  -7  -8   3   12.51   12.13
   7   8  -3   18.93   13.32
   2   7  -9   57.60   15.16
  -2  -7   9   94.06   22.60
  -2  -7   9   98.57   22.19
   2  12   1   35.41   11.24
  -2 -12  -1   38.24   11.63
  -2 -12  -1   33.72   13.86
   4  -2  13   28.26   12.12
  -4   2 -13   31.48   14.54
   1 -11   3   72.36   20.23
   1 -11   3   35.62   13.00
  -1  11  -3   56.55   15.70
  -2  -9 -10   78.68   18.59
  -2  -9 -10  115.32   26.42
  -2  -9 -10   96.60   21.17
 -10  -2  -1   32.44   16.45
  10   2   1   26.49   13.44
   1  -7 -10   91.33   22.37
   1  -7 -10   88.83   24.31
   1  -7 -10   86.22   24.81
 -10  -6  -5   10.74   11.18
 -10  -6  -5   -5.24   10.35
  10   6   5   22.60   13.49
  -8   5  -6   82.63   20.95
  -8   5  -6   68.10   17.83
   8  -5   6   40.07   19.01
  -9   0 -10   43.89   14.88
  -9   0 -10   21.49   13.01
   9   0  10   54.66   15.74
  -3 -11   3   10.81    7.61
  -3 -11   3  -14.60    9.02
   3  11  -3   -5.37    8.36
   0 -10   6    7.36    8.79
   0  10  -6   -9.49    9.34
   0 -10   6    7.92   12.34
  -2  -8 -11   -9.40   10.43
  -2  -8 -11   -3.46   10.28
  -2  -8 -11   12.41    9.68
  -8  -8   1    0.50   10.87
   8   8  -1    4.42   11.75
  -8  -8   1   13.60    6.27
  10   3   1   32.00   12.94
 -10  -3  -1   14.79   11.55
   9  -3   1   12.33   10.83
  -9   3  -1   35.98   15.71
   1  -3 -12   14.07   12.29
  -2  -9   7   45.41   15.53
   2   9  -7   61.54   16.87
  -3 -10   5   10.38   11.12
  -3 -10   5   10.10    5.38
   3  10  -5   -0.85    9.35
  -6   5 -10   92.97   20.94
  -6   5 -10  101.84   24.99
   6  -5  10   39.61   17.58
  -8   1   4   16.90   12.03
   8  -1  -4    4.69    9.60
  -8   1   4    8.45    9.66
  -4   4 -12   24.34   30.16
  -4   4 -12   28.04   10.59
  -3 -12  -3   10.52   12.04
   3  12   3   12.07    8.61
   6  -8   3   11.19   10.28
   6  -8   3    0.70    8.22
  -6   8  -3   10.57    8.47
  -5   5   7   -0.98    4.10
   5  -5  -7   -2.92    8.76
   5  -5  -7   -6.47    9.36
  -5   5   7   -5.07   11.54
  -4   0  10    8.58   13.74
  -4   0  10   26.59    6.87
   8   3  12   13.49    7.48
  -8  -3 -12   24.78   10.34
   7  -3  -5    6.97    9.20
  -7   3   5    2.41   11.41
  -7   3   5   -4.19   12.57
  -5 -10  -9    3.66   12.30
   5  10   9    5.06    4.81
  -5 -10  -9    4.92   10.47
  -3   7   8  225.20   26.34
   3  -7  -8  178.16   30.05
   3  -7  -8  155.60   32.62
  -3   7   8  152.80   26.68
   3  -7  -8  165.42   20.03
   2 -11   0   80.60   17.35
  -2  11   0   75.62   13.35
   2 -11   0   62.10   16.73
   5  -9   2   26.78   16.53
   5  -9   2   76.24   18.55
  -5   9  -2   20.98   15.19
   8   2  12    5.25    6.08
  -8  -2 -12    2.96    9.75
 -10  -6  -4    2.86   13.92
 -10  -6  -4   16.20   12.55
  10   6   4   25.14   14.34
  10   0   2   78.65   19.56
 -10   0  -2   52.93   18.89
  -6  -9 -10   36.79   12.77
   6   9  10   11.59    4.20
  -6  -9 -10   19.04   16.41
  -6  -9 -10   -9.33   12.94
  -9  -4   2    8.08   14.92
   9   4  -2    8.35   12.63
  -4  -1  10   51.69   11.78
  -4  -1  10   45.70   15.00
   6  -7   7  140.14   28.91
   6  -7   7  118.17   25.54
  -6   7  -7  203.00   38.36
   2  12   3   55.05   14.25
  -2 -12  -3  109.35   22.49
   6  -4  11    8.24    9.27
  -6   4 -11   -4.08    7.10
  -6   4 -11    0.95    7.64
 -10   0  -7  238.08   61.33
 -10   0  -7  225.96   43.22
  10   0   7  164.44   41.12
   9   0  -2   11.73   11.90
  -9   0   2  -12.26   11.52
   6  -8   1    7.99   12.24
   6  -8   1    2.14    8.36
  -6   8  -1   -1.06    9.63
  -5   9  -1   48.71   12.24
   5  -9   1   45.56   12.81
   5  -9   1   36.10   19.95
   3  12   1   -0.96    9.51
  -3 -12  -1   -3.49    7.77
  -3 -12  -1   -5.34   12.78
  -1  -6 -12   -3.56   13.09
  -1  -6 -12   17.74   13.93
  -1  -6 -12   12.57   10.41
  -1   7 -10  138.62   30.02
  -1   7 -10  142.82   25.66
   1  -7  10  172.60   27.80
  10   5   2   43.44   15.97
 -10  -5  -2   80.97   26.49
  10   6   6  123.03   27.63
 -10  -6  -6  135.78   24.15
  -4   4   9   66.51   14.69
   4  -4  -9   98.50   24.78
  -4   4   9   62.67   21.14
   7  -4  10  194.59   48.96
  -7   4 -10  227.19   30.93
  -7   4 -10  290.23   43.95
  -7   6  -7   21.85    9.46
  -7   6  -7   10.83    7.00
   7  -6   7   27.44    9.62
   7  -6   7   14.16    9.12
   2 -11   1    2.07    9.64
   2 -11   1    8.73   14.38
  -2  11  -1  -12.90    9.79
   1  -9  -8   15.85   12.93
   1  -9  -8   -5.80   10.94
  10   1   8  121.03   31.76
 -10  -1  -8   60.95   21.13
 -10  -1  -8   79.33   20.43
  -2   7 -10  118.70   21.14
   2  -7  10  102.50   17.93
  -2   7 -10  114.33   24.38
  -2  10   5    2.59    4.02
   2 -10  -5   -0.34   10.85
   1  10  -6   18.84   12.29
  -1 -10   6  -10.55   10.34
  -1 -10   6   13.40    9.12
  -9  -8  -7   28.81   18.23
  -9  -8  -7    2.08    8.70
   9   8   7   18.55    9.71
  -5 -11   1   -5.82   15.18
  -5 -11   1    4.93    7.12
   5  11  -1    3.96   13.93
  -7   1   6  104.41   18.55
  -7   1   6   57.99   17.92
  -2   4  11   62.99   16.10
   2  -4 -11   82.74   12.84
  -5  -1   9  225.78   39.43
  -5  -1   9  279.34   72.63
   2  11   7  227.28   24.65
  -2 -11  -7  249.93   40.07
  -5 -11  -7    7.20    9.59
  -5 -11  -7   -5.05   15.70
   5  11   7   25.12   11.41
  -1   8  -9   75.41   17.38
  -1   8  -9   52.40   17.18
   1  -8   9   58.34   15.81
  -7  -6 -12   51.56   10.22
   7   6  12   57.65   10.18
  -7  -6 -12   51.20   17.62
   0  -5 -12    8.02    6.90
   0  -5 -12    0.93   12.36
   0  -5 -12   -3.57   11.57
   0  -8 -10    1.22   13.25
   0  -8 -10  -16.69   13.51
   0  -8 -10   14.16    8.04
  -5  -5   8   15.39    9.94
   5   5  -8   -0.82    8.26
  -5  -5   8    8.08    9.95
   5  -7  -5   -9.68    9.77
  -5   7   5   10.25   10.53
   5  -7  -5    2.04    7.78
  -5   7   5    4.15    6.46
   3 -10  -3   47.21   19.09
  -3  10   3   30.20   10.35
   2 -11  -1   55.98   19.27
  -2  11   1   75.10   19.03
  -1 -12  -1    1.68   10.27
   1  12   1   14.74   11.94
  -1 -12  -1    8.98   11.34
  -5   0   9   -2.13    5.26
  -5   0   9   -1.54    8.19
  -1  10  -6  -17.35    9.39
   1 -10   6    3.72   10.25
   1 -10   6   -6.95   10.83
  -6 -11  -1   82.57   15.76
   6  11   1   60.86   17.17
  -6 -11  -1   44.16   15.72
 -10  -1  -1   68.55   19.50
  10   1   1   74.65   18.27
   9  -3   7  164.73   41.55
  -9   3  -7  106.21   23.52
  -9   3  -7  175.05   34.05
  -2 -12   0    4.14   10.32
  -2 -12   0   -6.22    9.07
   2  12   0  -17.52    7.59
  -1 -11   4   -0.57    6.54
   1  11  -4   15.12   11.01
  -1 -11   4   -0.45    9.53
 -10   1  -4  151.55   28.47
 -10   1  -4  156.19   32.83
  10  -1   4  171.89   48.89
  -9  -8  -2   41.50   18.92
   9   8   2   26.42   15.01
 -10   1  -5   32.13   18.27
  10  -1   5   38.39   16.96
  -5   9  -3  497.47   75.67
   5  -9   3  558.73  108.38
   5  -9   3  487.55   73.75
  -1 -12  -2   24.78   13.73
   1  12   2   24.71   10.50
  -4   1  10   16.35   11.93
  -4   1  10   38.24   10.67
  -3   8   7    8.24    2.97
   3  -8  -7   18.99   10.88
   3  -8  -7    1.25   11.34
   1 -11  -4  332.25   42.78
  -1  11   4  292.94   53.84
   7  -3  11   29.19    9.92
  -7   3 -11   31.34   13.27
  -7   3 -11   29.89   12.33
  -4  -5   9   15.30   11.96
   4   5  -9   13.36    9.31
  -4  -5   9   20.87    9.11
  -3   0  11   -1.43    9.08
  -3   0  11    8.63    7.29
  -6 -11  -6   -0.57   11.36
  -6 -11  -6    9.46    8.56
   6  11   6    8.67    7.75
  10   4   1   48.87   15.93
 -10  -4  -1   12.44   13.34
   8   4  12    4.85    6.39
  -8  -4 -12    1.11    9.94
   2  -6 -10   73.62   18.28
   2  -6 -10   55.94   12.72
   2  -6 -10   60.87   22.38
  -8   5   0   66.41   21.28
  -8   5   0   50.96   17.60
   8  -5   0   47.77   15.28
   8  -5   0   93.87   19.50
   3  12   4  -10.40    6.57
  -3 -12  -4   -5.24    9.50
   0  11  -4   11.12   11.32
   0 -11   4   18.81    7.46
   0 -11   4   18.17   12.18
  -6   8  -4   33.46   15.39
   6  -8   4   59.97   18.10
   6  -8   4   51.02   15.11
   7  -7   3  115.16   39.41
   7  -7   3  148.62   34.18
  -7   7  -3  131.97   31.78
  -7   7  -3  177.83   30.86
   0  -9  -9   -6.22    9.38
   0  -9  -9   11.16   13.21
  10   5   8   89.18   18.36
 -10  -5  -8   93.54   20.50
 -10  -5  -8   53.99   18.18
   3  -9   7   28.41   13.24
   3  -9   7   27.84   12.91
  -3   9  -7   -2.24    9.81
   9   6  -1   27.51   16.37
  -9  -6   1   15.95   16.25
   5  -9   0    3.99   12.25
  -5   9   0   -3.74   10.04
   5  -9   0    1.94    9.78
  -6  -7 -12   68.52   24.16
  -6  -7 -12   51.69   19.66
  -6  -7 -12   93.13   35.59
   8   1  12    9.46    8.39
  -8  -1 -12    2.35   10.87
   1   5 -11  124.93   33.97
  -1  -5  11  125.07   25.27
  -3   6   9  117.21   22.99
   3  -6  -9   43.18   22.27
   3  -6  -9  109.36   23.05
   2  -6  11  100.06   20.98
  -2   6 -11  102.05   19.77
  -2   6 -11   69.07   19.99
   4  12   3    4.51    9.41
  -4 -12  -3    7.29   11.87
  -7   7  -2   23.47   10.37
   7  -7   2    1.54   14.02
   7  -7   2    6.25    8.76
  -7   7  -2   14.99    5.98
   2  -9  -7   -0.06    8.33
  -2   9   7    9.82    3.84
   2  -9  -7    2.26    8.20
  -4   8  -8   13.36   11.27
   4  -8   8   12.63    8.31
   4  -8   8    5.50   10.07
   7   6  -5    4.56    8.94
  -7  -6   5   -3.50    7.93
  -7  -6   5   -2.20   10.26
   8   9   8  304.06   40.00
  -8  -9  -8  313.09   65.18
  -8  -9  -8  259.24   51.83
  -4  -2  10   15.78    8.93
  -4  -2  10   13.65   11.16
   6   5  13   26.62    5.95
  -6  -5 -13   47.85   15.87
 -10  -6  -3   -6.42   14.61
 -10  -6  -3   17.86   11.57
  10   6   3    8.88   15.96
   0   8  -9   94.86   22.53
   0  -8   9  110.49   18.84
   0   8  -9  129.75   26.76
   9   7   9    0.92    8.15
  -9  -7  -9    3.67   17.19
   4  12   2    7.69   13.96
  -4 -12  -2   19.38    9.88
  -4 -12  -2  -14.05    8.63
  -2   8  -9  130.53   21.80
   2  -8   9   89.30   16.03
   2  -8   9   60.64   11.74
  -2   8  -9   68.41   17.49
   1  12   0    8.28   12.23
  -1 -12   0   28.83   11.63
  -1 -12   0   28.57   11.15
  -5  -2   9    6.00    9.46
  -5  -2   9   11.85   11.96
  -3  -1  11  109.05   16.59
  -3  -1  11  142.35   29.40
  -6 -10   2   54.09   17.13
  -6 -10   2   48.24    9.41
   6  10  -2   42.79   11.35
   6  -6   9  -10.37    7.83
  -6   6  -9   15.55    8.53
  -6   6  -9   -7.29   10.15
  -7 -10   0   -7.88    9.36
   7  10   0    2.86   12.07
  -7 -10   0    4.44    5.79
  -9  -7   0   90.64   13.89
   9   7   0  107.77   24.97
  -9  -7   0   94.62   28.81
  -7  -4   6   -2.18    9.21
   7   4  -6    7.76    9.99
  -7  -4   6   10.78   11.44
   4  -9   6   19.56   12.09
  -4   9  -6   -2.56   15.18
   4  -9   6    0.89   14.49
   9   3  11    3.65    7.94
  -9  -3 -11   29.31   16.36
  -5   5 -11    1.77    6.28
  -5   5 -11   -6.11    9.28
   7  -5   9   16.43   10.33
  -7   5  -9    7.98   11.78
  -7   5  -9   10.05    6.72
   7   9  -2  186.61   33.14
  -7  -9   2  163.37   26.41
   2 -11   2  151.75   28.23
   2 -11   2  134.65   23.24
  -2  11  -2   90.92   21.02
  10  -1   3   90.62   20.61
 -10   1  -3   69.03   16.27
 -10   1  -3   53.48   26.50
   8  -3  -3   -1.24    8.88
   8  -3  -3   -0.11    7.00
  -8   3   3    6.10    9.34
  -8   3   3    4.88   10.00
  -3   1  11  224.33   27.88
  -3   1  11  214.46   32.10
  -5   6 -10   -4.39    9.71
  -5   6 -10    0.00    5.60
   5   8  -6   -8.10   10.84
  -5  -8   6   27.00   11.21
  -5  -8   6   10.95   11.97
  -6   8   0   35.81   15.64
   6  -8   0   -5.15   12.03
   6  -8   0   40.98   13.95
  -6   8   0   22.86   10.84
   7   2  13    4.07    7.17
  -7  -2 -13   17.45    9.95
   0  -7  10   12.01   11.64
   0   7 -10   11.25   12.31
   0   7 -10    2.35   11.30
  -2 -10  -9   70.34   13.74
  -2  -5 -13   30.50   17.40
  -2  -5 -13   35.16   11.93
  -2  -5 -13   11.58   11.19
  -3 -12   0  100.80   24.95
  -3 -12   0   65.52   18.98
   3  12   0  104.44   29.66
  10   6   7   64.04   14.45
 -10  -6  -7   43.80   23.86
 -10  -6  -7   60.58   21.29
   9   6  10   30.15   11.67
  -9  -6 -10   74.44   23.38
   0  -1 -13   10.60   11.75
  -2 -12  -4   65.78   19.65
   2  12   4   68.44   13.56
   1  -6  11   93.95   21.61
  -1   6 -11  133.68   22.45
  -1   6 -11  121.56   26.48
   7   3  13    5.55    5.25
  -7  -3 -13   -5.71    9.71
   9  -2  -1   25.65   14.63
  -9   2   1   41.63   13.94
   9   2  11  -16.97    7.73
  -9  -2 -11    9.74   11.53
 -10   1  -6  144.63   33.13
  10  -1   6  229.40   42.26
 -10   1  -6  182.45   38.56
  -2  -4  11   89.35   18.13
  -2  -4  11   59.78   18.65
  -1   2 -13   -7.16   10.38
   1  -2  13    7.57    7.07
  -7   7  -4  214.28   33.63
   7  -7   4  148.37   29.87
   7  -7   4  113.94   24.08
   6   5  -7   28.24   15.85
  -6  -5   7    7.16    9.12
  -6  -5   7   29.18   12.84
  -5   1   9   22.07    7.96
  -5   1   9   20.28   16.13
  -2 -11   4   11.42    9.44
   2  11  -4    1.04    9.74
  -2 -11   4    1.25    8.82
  -8   4   2  250.23   36.55
   8  -4  -2  294.67   40.88
   8  -4  -2  210.75   44.43
  -8   4   2  360.51   46.38
  -4  -8   7   -1.78   11.18
  -4  -8   7  -10.94    9.02
   4   8  -7   -4.32   11.53
  -1  -4 -13   20.67   10.26
  -1  -4 -13   30.37   14.74
  -2  -7 -12   -0.86    9.01
  -2  -7 -12    2.90   12.23
  -2  -7 -12    9.58    8.57
  -1 -12  -3   11.98   11.47
   1  12   3   -1.11   10.81
   0   0  13   78.10   23.69
   0   0 -13   92.59   18.55
 -10  -3  -9  160.39   42.59
  10   3   9  152.94   48.92
 -10  -3  -9  195.34   46.06
   6  -7  -3    0.06    8.46
  -6   7   3   -2.27    6.75
  -6   7   3   -2.68    6.90
   6  -7  -3   -4.53    7.39
   4  12   4   85.96   19.83
  -4 -12  -4   76.52   20.71
   8   5  -4   42.87   15.50
  -8  -5   4   53.82   13.87
  -6   3   7   -3.50    6.56
  -6   3   7   -8.02    7.52
   2 -11  -2   26.62   19.30
  -2  11   2   33.16   14.01
  -5   8  -7    1.73   10.81
   5  -8   7   -9.88    9.32
   0  -7 -11   56.62   15.96
   0  -7 -11   29.52   13.41
   0  -7 -11   39.06   19.26
   3  -7  10   33.16   15.45
  -3   7 -10   47.71   16.35
  -3   7 -10   18.39   14.02
   5  -2  13   12.36    9.12
  -5   2 -13    0.82   11.39
  -7   6   2   12.37    8.57
   7  -6  -2    5.15    5.51
   7  -6  -2   21.66   12.08
  -7   6   2    8.30   10.01
  -6   3 -12   48.65   19.12
  -6   3 -12   45.01   11.38
   6  -3  12   52.36   15.13
   2   6 -10  260.74   44.70
  -2  -6  10  225.44   43.16
  -2  -6  10  304.21   55.65
  -7   7  -1  106.15   20.01
  -7   7  -1  131.21   21.30
   7  -7   1  104.29   28.12
   7  -7   1   62.85   17.85
   6  -1  13   83.66   35.05
  -6   1 -13  165.29   35.26
   0  -4  12   22.70    9.38
   0   4 -12   11.04   10.53
   9   4  11   66.09   22.75
  -9  -4 -11  131.74   20.90
  -4 -12  -1   37.92   12.93
   4  12   1   36.37   11.47
  -4 -12  -1   41.58   14.43
   3  -6  11  149.17   41.29
  -3   6 -11  218.94   34.40
  -3   6 -11  186.16   35.31
  -5  -9   5    3.32   11.31
   5   9  -5   18.78   10.43
  -4  10  -1   90.96   21.20
   4 -10   1   86.43   17.13
   4 -10   1  133.61   19.50
  -4  -6 -13    4.41   11.42
  -4  -6 -13   11.41   13.10
  -4  -6 -13   26.47   13.79
 -10  -2  -9   32.02   19.70
 -10  -2  -9   15.00   11.84
  10   2   9   16.66   11.23
   9  -4   4   16.77   10.55
  -9   4  -4    4.58   10.09
  -9   4  -4   25.84   11.99
   5  -9   4    8.63   10.42
  -5   9  -4   30.56   11.82
   5  -9   4   -0.58    9.92
   4   9  -6   78.85   23.89
  -4  -9   6   69.07   19.12
   1  -6 -11   45.28   19.29
   1  -6 -11   51.69   16.83
   0  -2 -13   -2.93   10.80
  -6  -1   8   38.64   13.41
  -6  -1   8   29.02   11.84
  -7  -1 -13  155.51   32.70
   7   1  13  146.03   37.42
   8  -5   7   26.15   18.32
  -8   5  -7    0.33   13.19
  -8   5  -7   18.41    9.56
  -9   2  -9   57.48   19.79
  -9   2  -9   71.07   26.41
   9  -2   9   77.52   25.99
   6  10   9  202.55   38.44
  -6 -10  -9  217.26   44.98
  -6 -10  -9  164.58   42.56
  -1  -3  12   11.15    8.60
 -10  -4  -9   26.69   15.58
  10   4   9   11.35   13.93
 -10  -4  -9   27.47   13.24
  -2 -12   1    9.36   10.06
   2  12  -1    3.04    8.97
  -2 -12   1    9.46   11.31
  -1   9  -8   -6.91   10.44
   1  -9   8   -1.86    5.89
   1  -9   8  -15.57    7.43
  -1   9  -8   13.98   10.05
  -4   7   7   27.30    8.88
  -4   7   7   39.66   12.12
   4  -7  -7   55.69   15.33
   4  -7  -7   76.41   18.60
  -2 -10   6   30.38   11.46
  -2 -10   6   53.60   19.77
   2  10  -6   36.72   17.81
   4 -10   2   17.56   11.99
  -4  10  -2   -2.34    9.25
  -7 -10  -8  122.19   28.21
   7  10   8   99.55   27.63
  -7 -10  -8   71.31   21.14
   5   7  -7   11.10   11.89
  -5  -7   7   36.50   14.56
  -5  -7   7   31.45   11.13
  -8  -9   0   67.91   20.68
  -8  -9   0   72.29   19.64
   8   9   0   90.96   23.46
  -9   4  -3   68.80   19.73
  -5   4   8   79.49   14.46
  -5   4   8   66.10   17.72
  10   0   1   10.92    9.37
 -10   0  -1   27.84   13.53
   9   5  -2   85.98   22.86
  -9  -5   2  101.93   22.93
  -8 -10  -4    2.25    8.85
   8  10   4   16.63   12.41
  -8 -10  -4    5.87   10.60
  -8 -10  -4   29.86   15.54
   4   2  14  108.52   17.64
  -4  -2 -14  164.77   35.28
   9  -3   0   91.14   20.06
  -9   3   0  142.21   23.75
   0  -9   8   53.16   15.71
   0  -9   8   29.30   10.53
   0   9  -8   30.16   15.28
   0   9  -8   38.21    9.49
  -5  -6 -13   -4.22   14.47
  -5  -6 -13  -10.47   14.18
  -5  -6 -13   15.14   12.24
  -9   1   2    8.20   12.31
   9  -1  -2   13.75    8.66
 -10   0  -8  -21.26   13.15
  10   0   8   -4.13   15.71
 -10   0  -8    9.53    8.59
  -8   3 -10   -6.16   10.66
  -8   3 -10    8.94    7.75
   8  -3  10    9.20   12.76
   4 -10   0   22.41   16.32
  -4  10   0    5.30   11.08
   4 -10   0   13.50    8.83
  -4   2  10   32.92   14.71
  -4   2  10   31.45    8.57
  -3  -2  11  107.33   24.57
  -3  -2  11   96.75   15.42
  -1 -12   1   37.22   11.70
   1  12  -1   -0.27   10.84
  -1 -12   1    1.31    9.07
   7   4  13   40.75   10.63
  -7  -4 -13   74.14   14.96
   6   8  -5   -4.98   12.03
  -6  -8   5    7.42    9.81
  -6  -8   5   45.18   11.88
   8  10   5   35.47   13.98
  -8 -10  -5   17.48   13.28
  -8 -10  -5   23.67   15.26
  -8 -10  -5   31.95    9.63
   3 -10   5   -2.05    9.33
   3 -10   5   -5.55    8.86
  -3  10  -5   -4.11    8.43
  -3  -5  10   28.08   13.76
  -3  -5  10   36.59   13.39
   3  -3  13  172.82   39.82
  -3   3 -13  134.66   42.58
   9   8   8   23.65    9.14
  -9  -8  -8   11.00   15.70
  -4  -1 -14   10.09   12.23
   4   1  14    4.25    6.44
  -8  -5 -12   34.82   16.59
   8   5  12   59.54   16.48
  -6   0   8   -0.38    9.65
  -6   0   8    2.23    9.72
   1 -11   4   16.32   11.79
   1 -11   4   43.61   15.56
  -1  11  -4   46.82   14.85
   1  -4 -12   13.53    8.03
   5  -9  -1   36.76   12.59
  -5   9   1   -1.41    8.01
   4  -6  -8  308.20   60.11
   4  -6  -8  245.82   45.34
  -4   6   8  205.85   39.16
  -4   6   8  234.78   35.93
   4  -9  -4    3.56   12.52
  -4   9   4    6.00    6.40
  -9  -1 -11  229.58   31.99
  -9  -1 -11  265.82   38.40
   9   1  11  345.50   70.61
  -6  -2   8    7.60    7.65
  -6  -2   8   17.33   16.70
  -9   4  -5   -1.85   13.56
  -9   4  -5   14.12   12.78
   9  -4   5   15.28   10.06
  -9   1 -10   69.37   19.33
   9  -1  10   78.84   23.40
  -9   1 -10  135.96   25.43
  -3 -12  -5   19.72   10.73
   3  12   5   11.24    7.69
 -10  -5  -1   82.88   29.69
  10   5   1   86.89   23.07
   2 -10   6   35.78   16.54
   2 -10   6   26.43   14.30
  -2  10  -6   36.04   17.59
   6  -8   5   33.02   12.32
   6  -8   5   14.08    8.66
  -6   8  -5   26.60   17.20
   4   7  -8   20.10   17.61
  -4  -7   8   57.31   15.84
  -4  -7   8   26.22   13.45
  -8   2   4    1.37   11.34
  -8   2   4    1.49   12.41
  10  -1   2   58.09   15.05
 -10   1  -2   63.01   15.62
   5  -4  12   32.38   20.86
  -5   4 -12    6.54   12.29
  -5   4 -12   -0.27   13.46
  -3   2  11    7.13   11.09
  -3   2  11    1.46    4.34
   0  12   1    0.84    7.76
   0 -12  -1    1.59   12.79
   0   1 -13   19.05   10.88
   0  -1  13    5.58    5.58
  -3  -2 -14   -1.28   11.58
  -3  -2 -14   -4.75    6.28
   6  11   0    7.93    9.84
  -6 -11   0   15.39    8.70
  -6 -11   0   22.18   15.53
   3   1  14   13.85    8.41
  -3  -1 -14   17.48   15.96
  -4 -11  -8    2.90   12.41
   4  11   8    7.84    3.26
  -5  -3   9    6.77   10.89
  -5  -3   9    0.17    7.76
   0 -11  -6   66.99   17.92
   0  11   6   67.48   14.96
  10   2   0   14.26   16.31
 -10  -2   0   48.14   16.87
   8   8  10   25.75    9.03
  -8  -8 -10   15.43   13.37
  -8  -8 -10    9.43    9.63
  -7   2 -12   50.08   15.04
   7  -2  12   32.08   19.25
  -7   2 -12   56.99   19.78
   8   0  12  112.25   39.46
  -8   0 -12  107.47   23.27
  10   6   2  211.43   39.61
 -10  -6  -2  214.97   49.48
   8  10   3   -7.35    7.94
  -8 -10  -3    0.78    9.18
  -8 -10  -3    4.70    7.55
  -2   3 -13    0.81   11.69
   2  -3  13   23.89   10.83
  -7   2   6   15.58   11.05
  -7   2   6   16.43   12.35
  -8  -2   5   30.97   10.19
  -8  -2   5   36.83   13.86
   8   2  -5   52.41   15.71
   7  -7   5   22.16   10.30
   7  -7   5    3.34    8.88
  -7   7  -5   13.42   13.84
  -5   7  -9   26.30   15.75
  -5   7  -9   18.27    7.05
  -3  -6 -13    7.52   12.28
  -3  -6 -13   27.94   11.65
  -3  -6 -13   35.32   13.58
 -10  -3   0  109.95   41.16
  10   3   0  184.48   45.79
   7   8  11   22.78   12.65
  -7  -8 -11   25.87   11.60
  -7  -8 -11   25.22   15.59
  -7  -8 -11   25.97   13.42
  -9  -8  -1    8.92    8.61
  -9  -8  -1   -2.90   10.86
   9   8   1   16.91   12.09
  -1  -9 -10   22.03   14.86
  -1  -9 -10   20.75    8.16
  -1  -9 -10   28.11   12.88
  -4  -3  10   16.44   11.16
  -4  -3  10   31.69   12.71
   0  12   0   79.20   21.15
   0 -12   0  123.45   25.54
   0 -12   0   56.22   15.56
  -8  -1   5   19.61   14.88
  -8  -1   5   11.50   15.34
   8   1  -5    1.17   12.00
  -4  -3 -14   21.69   17.34
  -2   0  12   19.79   11.89
  -2   0  12   27.95    7.53
  10  -1   7   97.68   32.89
 -10   1  -7   71.62   23.48
 -10   1  -7   39.60   18.64
   2 -11   3   -2.08    8.79
  -2  11  -3    6.17    8.53
   2 -11   3    7.38    9.75
  -1 -11  -7   28.63   12.64
   1  11   7   19.90    5.96
   6  11   7   88.59   15.73
  -6 -11  -7   56.34   22.24
  -6 -11  -7   89.60   19.44
  -1  -8   9   11.14    8.51
   1   8  -9    2.96    9.88
   4  12   5   12.75    9.31
  -4 -12  -5    9.24    9.03
   3  11   8   51.68    6.72
  -3 -11  -8   57.96   18.40
  -8   4  -9   29.51   12.90
  -8   4  -9   49.32   13.40
   8  -4   9   33.17   16.26
  -3   8  -9  266.24   69.11
   3  -8   9  312.81   69.81
   3  -8   9  242.23   35.56
  -3   8  -9  245.24   33.53
  -8  -7 -11   19.02   10.47
   8   7  11   14.74    8.94
   0 -10  -8   14.98   12.17
  -4 -11   3  -11.80    7.85
   4  11  -3  -11.28   10.71
  -4 -11   3   -2.77   10.26
   1 -10  -7    9.46   12.12
  -1  10   7    3.16    3.46
  -1  -8 -11  320.93   53.58
  -1  -8 -11  264.81   27.51
  -1  -8 -11  248.37   53.75
   0   6 -11    6.22   10.60
   0  -6  11    0.85    9.17
   0   6 -11   -8.44    8.59
 -10  -7  -5  149.16   29.29
 -10  -7  -5  116.65   32.64
  10   7   5  115.77   22.58
   5   2  14   -8.33    6.43
  -5  -2 -14   -4.40   12.08
  -9   4  -2  -10.91    8.65
   9  -4   2    2.88   10.73
   3  -9  -6   15.49   12.65
  -3   9   6   12.71    4.81
   3  -9  -6    9.72    8.91
  10   1   9    6.87   11.07
 -10  -1  -9   17.37   14.37
 -10  -1  -9    6.45    8.55
  -8   2 -11  236.83   42.82
  -8   2 -11  180.89   34.76
   8  -2  11  280.74   76.36
  -6  -9   4  -11.97    7.59
  -6  -9   4   16.46   11.63
   6   9  -4    4.11    9.98
   6   7  -6  307.69   54.57
  -6  -7   6  193.14   48.03
  -6  -7   6  229.89   29.42
   0  12   2   42.43   12.04
   0 -12  -2   42.74   12.50
  -4  -9 -11   60.15   19.91
  -4  -9 -11   16.34    8.52
  -4  -9 -11   18.35   13.32
  -2   1  12    3.68   10.30
  -2   1  12    2.85    2.76
  -9  -2   3  -15.39    9.16
   9   2  -3   12.78   11.89
   4 -10   3  156.84   36.54
  -4  10  -3  239.75   43.49
  -2   5 -12    2.94   13.67
   2  -5  12   16.65   12.96
  -1 -12  -4   19.53   14.89
   1  12   4   -0.78   10.02
  -3  -8   8   10.02   12.24
   3   8  -8    5.69   15.09
   9  -3   8  139.02   31.80
  -9   3  -8  164.67   46.33
  -9   3  -8  200.89   31.43
  -6   8   1    7.35   10.08
  -6   8   1    7.26    7.84
   6  -8  -1   38.77   20.04
 -10  -6  -8   18.13   10.34
 -10  -6  -8   16.78   11.98
  10   6   8   26.90   10.72
   5  -8  -4   27.71   11.20
   5  -8  -4    4.16   12.33
  -5   8   4   16.60   10.68
  -5   8   4   10.48    7.31
   3  12  -1    9.50    9.23
  -3 -12   1    6.29   14.10
  -3 -12   1   -2.75    9.27
  -8 -10  -6   14.75   12.07
  -8 -10  -6   29.85   14.86
   8  10   6   36.26   13.61
  -4   3 -13   53.99   19.71
  -2   9  -8  233.78   44.94
   2  -9   8  231.51   32.58
   2  -9   8  218.42   34.78
   7  11   4    1.11    9.60
  -7 -11  -4    4.07   10.32
  -7 -11  -4   14.06   10.19
  -7 -11  -4   12.00   14.04
  -9  -5 -11   13.84   15.77
   7   9  10   19.77    6.05
  -7  -9 -10   52.74   15.66
  -7  -9 -10   23.62   11.49
  -7  -9 -10   17.17   12.27
   5  12   3    8.78   10.19
  -5 -12  -3    1.21    8.52
  -2 -12  -5   60.71   16.82
   2  12   5   28.51   10.28
  -4 -12   0   69.39   14.81
   4  12   0   52.87   22.85
  -4 -12   0   86.93   17.93
  -7   7   0    4.94   10.69
   7  -7   0    5.42   12.52
   7  -7   0   -5.83    9.61
  -7   7   0   -2.01   10.02
  -5   2   9  262.01   39.30
  -5   2   9  283.76   32.34
  10   7   4   24.53   10.31
 -10  -7  -4   12.02   14.35
 -10  -7  -4    3.02   10.60
 -10  -1   0    8.07   10.90
  10   1   0    8.57   12.58
  -3  10   4    4.12    5.92
   3 -10  -4   21.51   11.46
 -10  -7  -6   26.78   13.09
 -10  -7  -6   20.86   13.07
  10   7   6   74.45   16.41
  -3  -9   7    8.55   11.30
   3   9  -7    5.90   11.35
  -4  10   1   -3.82    9.35
   4 -10  -1    6.21   12.56
  -5  -1 -14   45.70   16.51
   5   1  14   85.92   30.31
   4   0  14   32.15   10.61
  -4   0 -14    9.18   16.01
  -3  -3 -14    3.82   13.05
  -3  -3 -14   -2.92    8.89
  -2  -1  12   24.71   10.85
  -2  -1  12   23.02   12.52
   4  -8  -6    1.93   12.51
  -4   8   6   -6.16    6.47
  -4   8   6   -2.88    4.72
   4  -8  -6   -8.97   13.41
  -3   0 -14   -0.47   10.06
   3   0  14   -2.08    3.41
   3  -5  12   57.91   17.28
  -3   5 -12   37.30   13.36
  -3   5 -12   59.64   14.41
   5   3  14   11.89    4.41
  -5  -3 -14   -4.92   10.53
  -5  -9 -11   17.37    9.29
  -5  -9 -11    4.07   11.06
  -5  -9 -11    3.74   14.27
  -8   5   1   33.80   12.25
  -8   5   1   33.91   13.24
   8  -5  -1   47.23   17.25
   8  -5  -1    8.01   11.00
   9   9   5  180.57   34.24
  -9  -9  -5  185.17   54.14
  -9  -9  -5  222.22   32.89
  -9  -9  -5  193.66   34.16
 -10  -5  -9    3.18   15.51
  10   5   9    5.91   12.01
 -10  -5  -9   26.30   14.17
  -9  -1   3   70.67   24.05
   9   1  -3   43.90   17.47
   0  -3 -13  115.02   29.86
  -8  -3   5   27.18   15.12
  -8  -3   5   62.13   20.17
   8   3  -5   12.32   13.72
   2 -11  -3   57.37   18.62
  -2  11   3   52.31   12.44
  -5 -11   2   24.35    7.87
   5  11  -2    0.73   10.80
  -5 -11   2    0.73   10.38
  -8   6  -3   19.45   16.16
   8  -6   3   56.03   19.76
   8  -6   3   54.60   20.00
   3  -5 -10   12.98   13.05
  -3   5  10    4.16    7.74
  -7 -11  -3    5.61   11.10
  -7 -11  -3    1.02    8.32
   7  11   3   -1.88    8.98
  -5 -11  -8   26.71   12.90
  -5 -11  -8   21.90   10.53
   5  11   8   47.19   10.02
   9   3  -3  255.03   34.76
  -9  -3   3  264.43   59.87
  -1  -9   8  124.77   34.40
   1   9  -8  158.92   29.34
   7  -6   8   28.62   12.60
  -7   6  -8   16.52   12.22
  -7   6  -8   26.97   12.08
  -9  -9  -4  112.67   19.61
  -9  -9  -4   63.48   17.25
  -9  -9  -4   87.26   19.37
   9   9   4  134.14   28.67
  -8  -7   3  114.14   25.02
   8   7  -3  129.34   33.81
  -5 -12  -4  233.79   41.44
   5  12   4  136.76   37.83
  -6   1   8   -1.60    9.21
  -6   1   8    8.22    7.84
   7   0  13    0.00    5.72
  -7   0 -13   -2.34    9.29
  -1  11   5   -2.37    5.79
   1 -11  -5    1.47   12.58
  -4  -8 -12   78.93   21.00
  -4  -8 -12   83.70   20.29
  -4  -8 -12   95.59   21.66
  -5 -12  -2   64.97   16.82
   5  12   2   49.01   17.24
  -5 -12  -2   36.05   16.71
  -1  -7  10   21.78   15.16
   1   7 -10   56.71   16.42
  -7 -11  -5   16.25   11.14
  -7 -11  -5    6.12   10.91
   7  11   5   26.33   11.43
   9  -4   6   43.04   14.52
  -9   4  -6   33.17   16.62
  -9   4  -6   40.92   13.32
  -3 -11   4   13.26    8.05
  -3 -11   4  -22.58   14.69
   3  11  -4   10.85   16.52
   0  12  -1    1.86   14.54
   0 -12   1   15.40   13.09
   0 -12   1   18.51   15.57
 -10  -4   0   14.25   12.09
  10   4   0    9.81   13.09
  -8   6  -4   32.69   14.30
   8  -6   4  -23.57    9.27
   8  -6   4   -5.64    8.81
  -8   0   5    5.35    9.43
  -8   0   5    5.85    9.89
  -6  -3   8   11.08    9.59
  -6  -3   8   -4.01    8.83
  -8  -8   2   31.36   15.86
   8   8  -2   10.28   13.14
   6  -7   8   -2.09    9.02
  -6   7  -8   20.30   14.84
   6  -7   8   -8.01   10.22
  -7  -5   6   20.44   17.40
   7   5  -6   22.59   16.53
  -7  -5   6    2.46    9.14
  -6   5   6    5.36    8.35
   6  -5  -6    2.99    6.97
  -6   5   6    7.45   10.08
   6  -5  -6    9.07    9.63
  -6  -6 -13   14.60   13.78
  -6  -6 -13   10.00   13.57
  -4 -10   5   13.60   12.93
   4  10  -5   23.09   13.58
  -5 -10   4  147.35   28.48
   5  10  -4  139.92   24.26
   6  -6  -5   -5.13    6.51
  -6   6   5    5.03   10.69
   6  -6  -5  -15.03    7.71
  -6   6   5   -0.84    5.78
   7  -5  -4  111.98   20.21
   7  -5  -4  124.37   18.11
  -7   5   4  110.24   36.07
  -7   5   4   99.32   29.98
   7   7  12   88.96   21.05
  -7  -7 -12  105.68   28.83
  -7  -7 -12   85.10   21.43
  -3  -9 -11   61.14   14.88
  -3  -9 -11   20.82   15.68
  -3  -9 -11   19.64   13.41
  -4   6 -11   32.92   13.00
   4  -6  11   26.86   18.02
  -4   6 -11   43.70   12.81
  -5  -8 -12   58.49   17.75
  -5  -8 -12   48.08   14.31
   8  10   2   20.60   11.27
  -8 -10  -2    5.11    8.47
  -8 -10  -2   16.63   11.98
  -5   9  -5   55.49   16.99
   5  -9   5   42.32   14.27
   5  -9   5   14.29   13.71
   8  -6   2   -3.40   12.52
   8  -6   2  -14.96   16.50
  -8   6  -2    4.76    6.69
  -8   6  -2  -10.30   11.77
   1  -5  12   15.70   10.46
  -1   5 -12   15.65   10.80
 -10   2  -4   27.00   14.30
  10  -2   4   16.58   14.27
 -10   2  -4   17.77   10.73
   2  -5 -11    2.36   16.34
   2  -5 -11    8.36    8.97
   8   9   9   19.18    8.08
  -8  -9  -9    1.91   11.22
  -8  -9  -9   12.39   10.31
  -8  -9  -9   11.01    7.88
  -9  -9  -6    1.61   10.97
  -9  -9  -6    4.53   13.55
   9   9   6   14.29    8.56
  -9  -9  -6   23.76   14.27
  -2  -1 -14   41.65   18.74
   2   1  14   48.65   15.23
   7   5  13    1.38    4.29
  -7  -5 -13  -14.20    9.46
  -7   4   5   72.14   17.79
  -7   4   5   29.53   10.55
   7  -4  -5   58.66   13.62
  -4 -10 -10   -1.64   10.29
  -4 -10 -10   13.60   14.21
  -4 -10 -10    9.34   11.91
 -10   2  -5    3.24    9.37
 -10   2  -5    5.47   12.84
  10  -2   5    8.69   11.14
  -7 -10   1   -1.36   16.92
  -7 -10   1   18.28    9.78
   7  10  -1    1.87   14.57
   1  12  -2   37.66   17.98
  -1 -12   2    2.07   11.86
  -1 -12   2    4.68   12.65
  -1 -10  -9   30.93   13.24
   0 -12  -3   17.21   14.51
   0  12   3   25.36    9.92
   3   7  -9    5.17   11.15
  -3  -7   9  -14.84    8.34
  -2  -2 -14   40.57   17.60
   4  -7  10    5.51   10.08
  -4   7 -10   -8.90   10.06
  -4   7 -10   -5.60    9.14
  -4  -4 -14    6.13   11.13
  -4  -4 -14   76.92   15.06
  -3  -3  11   -5.49   11.48
  -3  -3  11   -5.43   10.43
  -9   0 -11   21.95   15.33
  -9   0 -11   18.66   14.80
   9   0  11   19.61   12.19
   2 -10  -6   29.88   14.41
  -2  10   6   23.50    5.93
   1  -3  13   39.93   12.93
  -1   3 -13   44.01   14.26
   2  12  -2   10.45   14.88
  -2 -12   2  -16.07   12.17
  -2 -12   2   -1.23   14.37
  10   7   3   58.65   14.90
 -10  -7  -3   52.70   18.08
 -10  -7  -3   47.59   16.80
  -4   5   9   25.54   16.22
   4  -5  -9   43.00   14.09
  -4   5   9   21.38    5.83
  -9  -9  -3  109.09   27.94
   9   9   3   97.68   21.76
  -9  -9  -3  124.00   17.10
  -9  -9  -3   98.36   22.21
  -5  -6   8  286.02   40.71
   5   6  -8  320.24   41.05
  -5  -6   8  243.30   45.59
 -10  -7  -7   13.84   12.91
  10   7   7   22.28   11.91
 -10  -7  -7   48.92   16.85
   0   2 -13   18.99   13.65
   0  -2  13   17.80    9.11
   0  -6 -12   35.69   18.28
   0  -6 -12    2.91    9.54
   0  -6 -12    4.46    8.11
  -2 -11  -8   19.55    9.65
  -1  -5 -13   41.19   14.61
  -1  -5 -13   24.83   13.96
  -7 -11  -2  183.31   29.66
   7  11   2  230.29   30.82
  -7 -11  -2  188.52   37.48
   0 -11   5   32.08   19.29
   0  11  -5   88.71   20.31
   0 -11   5   67.68   15.24
   9   7  10   45.06   15.08
  -9  -7 -10   73.74   19.85
  -1 -11   5  156.64   20.36
   1  11  -5  132.77   29.29
  -1 -11   5  152.02   25.16
   5  12   5  -10.33   11.68
  -5 -12  -5   -8.90   10.25
  10  -2   3   93.82   21.07
 -10   2  -3   60.85   11.89
 -10   2  -3   73.10   15.64
  10  -1   1    0.38   10.35
 -10   1  -1   13.78   10.48
   5  -9  -2   57.15   17.90
  -5   9   2   94.25   18.53
  -5 -10 -10   69.33   17.07
  -5 -10 -10   71.13   19.15
  -9   4  -1  256.89   26.88
   9  -4   1  194.98   46.84
   9  -4   1  238.22   30.50
  -3  -8 -12   -6.80   14.80
  -3  -8 -12    2.96   14.43
  -3  -8 -12   24.06   14.64
   9   7  -1  -18.06   13.32
  -9  -7   1    8.13   13.57
  -8   6  -5   37.77   23.06
   8  -6   5   78.39   22.08
   8  -6   5   82.99   31.33
  -5   0 -14   22.28   14.80
   5   0  14   16.40    9.93
  -9   0   3  155.41   66.55
   9   0  -3  202.72   49.08
  -4   3  10    9.49    5.92
  -4   3  10   -6.33    8.74
   2   0  14   23.71    6.91
  -2   0 -14   17.43   11.97
  -7  -8   4   11.78    9.95
   7   8  -4   13.48   10.02
   7  -7   6   77.25   17.28
  -7   7  -6   69.57   14.95
   7  -7   6   34.66   17.28
  -3   3  11    4.79   11.73
  -5  -4 -14   25.08   12.44
  -8 -10  -7  450.44   60.12
  -8 -10  -7  440.66   69.70
   8  10   7  476.55   77.92
   4 -10   4   67.50   21.87
  -4  10  -4   50.29   16.58
  -5 -12  -1   11.56   14.23
  -5 -12  -1   -2.38    8.79
   5  12   1   -3.45   14.90
   8   6  -4    6.41    9.29
  -8  -6   4   20.69   12.65
  -7 -11  -6   89.25   21.41
   7  11   6  113.16   19.48
   3  12   6   16.88    7.53
  -3 -12  -6  -10.09    9.90
  -1  -7 -12   19.65   12.21
  -1  -7 -12    4.06   13.25
  -1  -7 -12   15.20   13.09
   0 -10   7   23.09   14.32
   0 -10   7   26.85    8.82
   0  10  -7   29.92   15.74
  -9  -4   3   76.64   26.57
   9   4  -3   80.06   14.64
   8   6  12   67.09   12.30
  -8  -6 -12   92.42   23.62
  -3 -10 -10   33.18   16.25
  -3 -10 -10   64.34   18.23
  -6   8  -6  -10.85   12.12
   6  -8   6    8.08   11.13
   6  -8   6   -3.02   11.76
   6  -2  13    6.76    6.98
  -6   2 -13    6.42   10.84
  -2  -2  12  118.87   22.28
  -2  -2  12   85.59   15.57
  -4   9  -7   75.45   20.23
   4  -9   7   93.11   26.11
   4  -9   7  114.53   22.49
  -2  -6 -13  387.60   71.06
  -2  -6 -13  421.83   78.75
  -2  -6 -13  325.49   48.87
  10  -2   6  148.78   51.06
 -10   2  -6  100.84   29.27
 -10   2  -6  143.52   20.86
  -4 -12  -6   -4.41    9.66
   4  12   6    7.68    6.10
  10   3  10   19.13   10.10
 -10  -3 -10    0.18   17.32
 -10  -3 -10    4.16   15.01
 -10   0   0  142.49   33.97
  10   0   0  196.01   36.92
  -7  -1   7  -11.75   13.10
  -7  -1   7    4.75    6.08
  -5  -4   9  136.78   21.79
  -5  -4   9   86.18   16.70
   4   6  -9   13.34   12.91
  -4  -6   9   18.09    8.93
 -10   1  -8    1.93   14.01
  10  -1   8  -14.37    9.71
  10   0   9  123.09   43.27
 -10   0  -9  179.43   30.56
  -4   5 -12   25.87   14.09
  -4   5 -12   37.97   11.90
   8  -5   8   61.54   21.41
  -8   5  -8   50.10   19.14
  -8  -4   5    8.20   11.71
  -8  -4   5   10.36   11.68
   8   4  -5    2.58    8.90
  10   6   1    1.96   12.10
 -10  -6  -1   -2.31   12.68
   9   6  -2   82.84   23.15
  -9  -6   2   62.32   19.74
  -6  -9 -11   -9.96   13.79
  -6  -9 -11  -24.08    9.41
  -6  -9 -11   13.33   12.55
   6   2  14   28.93   10.34
  -6  -2 -14   51.75   19.71
  -3  -4 -14   35.98   13.84
  -3  -4 -14   23.32   16.79
   3  -1  14  192.68   31.65
  -3   1 -14  202.38   48.14
   9   8   9   25.32   10.93
  -3 -10   6    8.59   14.43
   3  10  -6    7.12   12.01
  -7  -2   7   33.97   16.92
  -7  -2   7   29.80   12.46
   8  -6   1   10.15   11.13
  -8   6  -1    3.49    8.38
  -8   6  -1   10.60    6.72
   8  -6   1   20.60   12.81
  -9   2   2  217.34   36.93
   9  -2  -2  117.62   31.60
   2 -11   4   -7.13    9.83
   2 -11   4   19.45   13.03
  -2  11  -4    7.54   12.97
  -6 -10   3   16.09   12.26
   6  10  -3   -0.91    9.76
  -9   3   1  105.65   23.09
   9  -3  -1   95.76   12.77
  -5   6   7    2.85    5.83
   5  -6  -7   -3.07    7.73
   5  -6  -7    7.78   14.61
   6   6  -7   41.23   14.26
  -6  -6   7   14.85   14.54
  -6  -6   7   29.43   14.25
   4 -10  -2   -7.79   11.92
  -4  10   2   11.66    9.46
  -1  10  -7    4.11   12.37
   1 -10   7   -6.24    6.74
   1 -10   7   -9.08   11.90
   3 -11   1   22.19   11.67
  -3  11  -1   49.38   16.36
  -8   1 -12   -3.20   10.86
  -2  -5  11    8.98   10.60
  10   2  10    1.65    8.75
 -10  -2 -10   23.15   13.29
   4  -1  14    7.28   11.06
  -7  -7   5   69.52   21.24
   7   7  -5   43.66   17.32
  -7  -7   5   77.59   20.09
  -3  11   0   54.47   16.41
   3 -11   0   51.50   17.50
  -6  -3 -14    1.24   10.77
   6   3  14    8.23    4.35
   0 -12   2   72.45   19.02
   0  12  -2   73.23   13.74
   7  -6  -3  -11.91    8.79
   7  -6  -3   -8.11   11.13
  -7   6   3    0.38    8.92
  -7   6   3    1.46    6.83
  -6 -11   1  -17.83   14.74
  -6 -11   1    1.00    7.09
   6  11  -1    0.45   15.09
   1  12   5   30.06    8.52
  -1 -12  -5   32.92   17.32
  -5   3 -13   15.38    9.50
  -6   4   7  188.38   40.77
  -1  -4  12   22.52   10.47
  -7 -10  -9    0.57   12.20
   7  10   9    6.91    5.82
  -4  -4  10   25.21   13.33
  -4  -4  10    8.77   11.80
  -6  -8 -12  241.85   36.98
  -6  -8 -12  243.31   38.60
  -6  -8 -12  225.94   34.76
  -4 -12   1   31.30   11.38
  -4 -12   1   14.71   10.58
   2  -8  -9   52.96   15.74
   2  -8  -9   80.50   18.04
  -8   1   5   16.96   13.16
  -7   7   1    4.97    6.26
  -7   7   1   15.14   14.99
   7  -7  -1    9.75    9.30
  10   5   0   19.75   12.70
   5  -7  -6   -5.50    9.08
   5  -7  -6   -0.96    9.48
  -7   4 -11    3.12   14.01
  -7   4 -11  -11.70    9.60
  -9  -6 -11    7.03   10.17
   9   6  11  -10.82    6.38
   6  -7  -4   -2.53   11.71
  -6   7   4   10.11   10.01
  -6   7   4   17.88    9.08
  -9   4  -7    4.73   11.69
   3  -9   8   11.57   10.08
  -6   8   2  141.38   29.76
  -3 -12   2  124.64   21.20
   1  -8 -10   70.82   14.10
  -2 -11   5    7.01    5.25
  -2 -12  -6    5.17   19.17
   0   0   0    0.00    0.00

_computing_structure_solution     'SHELXT 2018/2 (Sheldrick, 2018)'
;
_shelx_hkl_checksum              72492
_olex2_diffrn_ambient_temperature_device 'Oxford Cryosystems'
_olex2_submission_special_instructions 'No special instructions were received'
loop_
_space_group_symop_operation_xyz
'x, y, z'
'-x, -y, -z'
loop_
_atom_site_label
_atom_site_type_symbol
_atom_site_fract_x
_atom_site_fract_y
_atom_site_fract_z
_atom_site_U_iso_or_equiv
_atom_site_adp_type
_atom_site_occupancy
_atom_site_site_symmetry_order
_atom_site_calc_flag
_atom_site_refinement_flags_posn
S1 S 0.47105(7) 0.45851(6) 0.21234(5) 0.02440(15) Uani 1 1 d .
S2 S 1.04703(6) 0.82677(5) 0.34031(5) 0.02134(15) Uani 1 1 d .
C1 C 0.4423(3) 0.3772(2) 0.3657(2) 0.0274(5) Uani 1 1 d .
H1 H 0.333759 0.360466 0.424311 0.033 Uiso 1 1 calc R
C2 C 0.5923(3) 0.3398(2) 0.3933(2) 0.0247(5) Uani 1 1 d .
H2 H 0.600709 0.294549 0.473063 0.030 Uiso 1 1 calc R
C3 C 0.7342(3) 0.3768(2) 0.28804(19) 0.0200(4) Uani 1 1 d .
C4 C 0.9257(3) 0.3670(2) 0.26078(19) 0.0192(4) Uani 1 1 d .
C5 C 0.9807(3) 0.43354(19) 0.12233(19) 0.0176(4) Uani 1 1 d .
C6 C 0.8374(2) 0.47945(19) 0.07862(19) 0.0171(4) Uani 1 1 d .
C7 C 0.6884(2) 0.4414(2) 0.18378(19) 0.0193(4) Uani 1 1 d .
C8 C 0.8553(2) 0.5468(2) -0.04356(18) 0.0177(4) Uani 1 1 d .
H8 H 0.758481 0.578265 -0.072072 0.021 Uiso 1 1 calc R
C9 C 0.9558(3) 0.4561(2) 0.3526(2) 0.0259(5) Uani 1 1 d .
H9A H 1.079854 0.454501 0.328319 0.039 Uiso 1 1 calc GR
H9B H 0.912264 0.416404 0.441744 0.039 Uiso 1 1 calc GR
H9C H 0.894386 0.553949 0.346168 0.039 Uiso 1 1 calc GR
C10 C 1.0218(3) 0.2131(2) 0.2687(2) 0.0280(5) Uani 1 1 d .
H10A H 1.000797 0.157558 0.210405 0.042 Uiso 1 1 calc GR
H10B H 0.979880 0.172528 0.357640 0.042 Uiso 1 1 calc GR
H10C H 1.146174 0.211137 0.243096 0.042 Uiso 1 1 calc GR
C11 C 1.1126(3) 0.7889(2) 0.1798(2) 0.0243(5) Uani 1 1 d .
H11 H 1.228445 0.750051 0.130888 0.029 Uiso 1 1 calc R
C12 C 0.9799(3) 0.8207(2) 0.1309(2) 0.0231(5) Uani 1 1 d .
H12 H 0.992093 0.806292 0.044709 0.028 Uiso 1 1 calc R
C13 C 0.8217(3) 0.8778(2) 0.22520(19) 0.0193(4) Uani 1 1 d .
C14 C 0.6359(3) 0.9322(2) 0.23023(19) 0.0197(4) Uani 1 1 d .
C15 C 0.5498(2) 0.9710(2) 0.37078(18) 0.0176(4) Uani 1 1 d .
C16 C 0.6715(2) 0.94548(19) 0.43602(18) 0.0174(4) Uani 1 1 d .
C17 C 0.8376(2) 0.8867(2) 0.34224(19) 0.0183(4) Uani 1 1 d .
C18 C 0.6230(2) 0.9751(2) 0.56552(18) 0.0183(4) Uani 1 1 d .
H18 H 0.705758 0.958713 0.608479 0.022 Uiso 1 1 calc R
C19 C 0.5580(3) 0.8169(2) 0.2026(2) 0.0295(5) Uani 1 1 d .
H19A H 0.567607 0.734470 0.263268 0.044 Uiso 1 1 calc GR
H19B H 0.620774 0.788712 0.113770 0.044 Uiso 1 1 calc GR
H19C H 0.435882 0.853728 0.212948 0.044 Uiso 1 1 calc GR
C20 C 0.6213(3) 1.0623(2) 0.1359(2) 0.0288(5) Uani 1 1 d .
H20A H 0.499296 1.099049 0.145749 0.043 Uiso 1 1 calc GR
H20B H 0.685010 1.035129 0.046952 0.043 Uiso 1 1 calc GR
H20C H 0.670222 1.135742 0.154925 0.043 Uiso 1 1 calc GR
loop_
_atom_site_aniso_label
_atom_site_aniso_U_11
_atom_site_aniso_U_22
_atom_site_aniso_U_33
_atom_site_aniso_U_23
_atom_site_aniso_U_13
_atom_site_aniso_U_12
S1 0.0170(3) 0.0257(3) 0.0301(3) -0.0012(2) -0.0070(2) -0.0053(2)
S2 0.0162(3) 0.0228(3) 0.0233(3) -0.0019(2) -0.0054(2) -0.0020(2)
C1 0.0235(11) 0.0266(12) 0.0270(12) -0.0018(9) 0.0001(9) -0.0085(9)
C2 0.0266(11) 0.0212(11) 0.0240(11) 0.0002(8) -0.0055(9) -0.0061(9)
C3 0.0212(10) 0.0176(10) 0.0202(10) -0.0022(8) -0.0051(8) -0.0045(8)
C4 0.0213(10) 0.0185(10) 0.0182(10) 0.0006(8) -0.0082(8) -0.0029(8)
C5 0.0196(10) 0.0140(9) 0.0203(10) -0.0028(7) -0.0086(8) -0.0016(7)
C6 0.0160(10) 0.0161(9) 0.0202(10) -0.0049(7) -0.0066(8) -0.0021(7)
C7 0.0164(10) 0.0184(10) 0.0225(10) -0.0031(8) -0.0053(8) -0.0032(8)
C8 0.0155(10) 0.0188(10) 0.0202(10) -0.0018(8) -0.0087(8) -0.0015(7)
C9 0.0289(12) 0.0305(12) 0.0211(11) -0.0010(9) -0.0095(9) -0.0094(9)
C10 0.0304(12) 0.0241(11) 0.0280(12) 0.0001(9) -0.0109(10) -0.0017(9)
C11 0.0201(11) 0.0240(11) 0.0247(11) -0.0050(8) -0.0027(9) -0.0021(8)
C12 0.0226(11) 0.0245(11) 0.0194(10) -0.0041(8) -0.0028(8) -0.0046(9)
C13 0.0184(10) 0.0179(10) 0.0208(10) 0.0000(8) -0.0054(8) -0.0044(8)
C14 0.0172(10) 0.0225(10) 0.0182(10) -0.0021(8) -0.0044(8) -0.0038(8)
C15 0.0191(10) 0.0173(10) 0.0167(10) -0.0001(7) -0.0052(8) -0.0058(8)
C16 0.0171(10) 0.0158(10) 0.0182(10) -0.0004(7) -0.0043(8) -0.0040(7)
C17 0.0160(10) 0.0172(10) 0.0218(10) 0.0002(8) -0.0058(8) -0.0049(7)
C18 0.0182(10) 0.0177(10) 0.0196(10) 0.0015(8) -0.0072(8) -0.0048(8)
C19 0.0235(12) 0.0333(13) 0.0327(12) -0.0129(10) -0.0059(10) -0.0066(9)
C20 0.0268(12) 0.0331(12) 0.0220(11) 0.0025(9) -0.0063(9) -0.0025(9)
loop_
_atom_type_symbol
_atom_type_description
_atom_type_scat_dispersion_real
_atom_type_scat_dispersion_imag
_atom_type_scat_source
C C 0.0033 0.0016 'International Tables Vol C Tables 4.2.6.8 and 6.1.1.4'
H H 0.0000 0.0000 'International Tables Vol C Tables 4.2.6.8 and 6.1.1.4'
S S 0.1246 0.1234 'International Tables Vol C Tables 4.2.6.8 and 6.1.1.4'
loop_
_geom_angle_atom_site_label_1
_geom_angle_atom_site_label_2
_geom_angle_atom_site_label_3
_geom_angle
_geom_angle_site_symmetry_1
C7 S1 C1 90.82(10) .
C17 S2 C11 90.59(10) .
S1 C1 H1 123.6 .
C2 C1 S1 112.71(16) .
C2 C1 H1 123.6 .
C1 C2 H2 124.2 .
C1 C2 C3 111.54(19) .
C3 C2 H2 124.2 .
C2 C3 C4 136.51(19) .
C7 C3 C2 113.02(19) .
C7 C3 C4 110.45(17) .
C3 C4 C5 100.98(15) .
C3 C4 C9 111.05(16) .
C3 C4 C10 112.24(17) .
C5 C4 C9 110.26(16) .
C5 C4 C10 111.65(16) .
C10 C4 C9 110.35(17) .
C6 C5 C4 111.15(17) .
C8 C5 C4 128.12(17) 2_765
C8 C5 C6 120.72(18) 2_765
C5 C6 C7 106.18(17) .
C8 C6 C5 121.46(17) .
C8 C6 C7 132.37(18) .
C3 C7 S1 111.90(15) .
C3 C7 C6 111.21(17) .
C6 C7 S1 136.87(16) .
C5 C8 C6 117.82(18) 2_765
C5 C8 H8 121.1 2_765
C6 C8 H8 121.1 .
C4 C9 H9A 109.5 .
C4 C9 H9B 109.5 .
C4 C9 H9C 109.5 .
H9A C9 H9B 109.5 .
H9A C9 H9C 109.5 .
H9B C9 H9C 109.5 .
C4 C10 H10A 109.5 .
C4 C10 H10B 109.5 .
C4 C10 H10C 109.5 .
H10A C10 H10B 109.5 .
H10A C10 H10C 109.5 .
H10B C10 H10C 109.5 .
S2 C11 H11 123.6 .
C12 C11 S2 112.80(16) .
C12 C11 H11 123.6 .
C11 C12 H12 124.3 .
C11 C12 C13 111.40(19) .
C13 C12 H12 124.3 .
C12 C13 C14 136.23(18) .
C17 C13 C12 113.15(18) .
C17 C13 C14 110.62(17) .
C13 C14 C15 100.87(16) .
C13 C14 C19 111.88(16) .
C13 C14 C20 111.32(17) .
C15 C14 C19 110.88(17) .
C15 C14 C20 111.57(16) .
C19 C14 C20 110.06(18) .
C16 C15 C14 111.23(17) .
C18 C15 C14 128.10(18) 2_676
C18 C15 C16 120.67(18) 2_676
C15 C16 C17 106.15(17) .
C18 C16 C15 121.55(18) .
C18 C16 C17 132.30(18) .
C13 C17 S2 112.05(15) .
C13 C17 C16 111.11(17) .
C16 C17 S2 136.84(16) .
C15 C18 C16 117.78(18) 2_676
C15 C18 H18 121.1 2_676
C16 C18 H18 121.1 .
C14 C19 H19A 109.5 .
C14 C19 H19B 109.5 .
C14 C19 H19C 109.5 .
H19A C19 H19B 109.5 .
H19A C19 H19C 109.5 .
H19B C19 H19C 109.5 .
C14 C20 H20A 109.5 .
C14 C20 H20B 109.5 .
C14 C20 H20C 109.5 .
H20A C20 H20B 109.5 .
H20A C20 H20C 109.5 .
H20B C20 H20C 109.5 .
loop_
_geom_bond_atom_site_label_1
_geom_bond_atom_site_label_2
_geom_bond_distance
_geom_bond_site_symmetry_2
S1 C1 1.730(2) .
S1 C7 1.717(2) .
S2 C11 1.729(2) .
S2 C17 1.722(2) .
C1 H1 0.9500 .
C1 C2 1.363(3) .
C2 H2 0.9500 .
C2 C3 1.417(3) .
C3 C4 1.516(3) .
C3 C7 1.372(3) .
C4 C5 1.531(3) .
C4 C9 1.540(3) .
C4 C10 1.536(3) .
C5 C6 1.414(3) .
C5 C8 1.388(3) 2_765
C6 C7 1.458(3) .
C6 C8 1.392(3) .
C8 H8 0.9500 .
C9 H9A 0.9800 .
C9 H9B 0.9800 .
C9 H9C 0.9800 .
C10 H10A 0.9800 .
C10 H10B 0.9800 .
C10 H10C 0.9800 .
C11 H11 0.9500 .
C11 C12 1.366(3) .
C12 H12 0.9500 .
C12 C13 1.418(3) .
C13 C14 1.518(3) .
C13 C17 1.366(3) .
C14 C15 1.525(3) .
C14 C19 1.533(3) .
C14 C20 1.537(3) .
C15 C16 1.414(3) .
C15 C18 1.385(3) 2_676
C16 C17 1.460(3) .
C16 C18 1.397(3) .
C18 H18 0.9500 .
C19 H19A 0.9800 .
C19 H19B 0.9800 .
C19 H19C 0.9800 .
C20 H20A 0.9800 .
C20 H20B 0.9800 .
C20 H20C 0.9800 .
loop_
_geom_torsion_atom_site_label_1
_geom_torsion_atom_site_label_2
_geom_torsion_atom_site_label_3
_geom_torsion_atom_site_label_4
_geom_torsion
_geom_torsion_site_symmetry_1
_geom_torsion_site_symmetry_4
S1 C1 C2 C3 -0.3(2) . .
S2 C11 C12 C13 0.4(2) . .
C1 S1 C7 C3 -0.27(16) . .
C1 S1 C7 C6 -178.9(2) . .
C1 C2 C3 C4 178.3(2) . .
C1 C2 C3 C7 0.1(3) . .
C2 C3 C4 C5 -179.5(2) . .
C2 C3 C4 C9 -62.6(3) . .
C2 C3 C4 C10 61.4(3) . .
C2 C3 C7 S1 0.1(2) . .
C2 C3 C7 C6 179.17(17) . .
C3 C4 C5 C6 1.8(2) . .
C3 C4 C5 C8 -179.35(19) . 2_765
C4 C3 C7 S1 -178.50(13) . .
C4 C3 C7 C6 0.5(2) . .
C4 C5 C6 C7 -1.5(2) . .
C4 C5 C6 C8 178.31(17) . .
C5 C6 C7 S1 179.31(17) . .
C5 C6 C7 C3 0.6(2) . .
C5 C6 C8 C5 0.6(3) . 2_765
C7 S1 C1 C2 0.34(17) . .
C7 C3 C4 C5 -1.3(2) . .
C7 C3 C4 C9 115.56(19) . .
C7 C3 C4 C10 -120.38(19) . .
C7 C6 C8 C5 -179.55(19) . 2_765
C8 C5 C6 C7 179.49(17) 2_765 .
C8 C5 C6 C8 -0.7(3) 2_765 .
C8 C6 C7 S1 -0.5(4) . .
C8 C6 C7 C3 -179.2(2) . .
C9 C4 C5 C6 -115.73(18) . .
C9 C4 C5 C8 63.1(3) . 2_765
C10 C4 C5 C6 121.22(18) . .
C10 C4 C5 C8 -59.9(3) . 2_765
C11 S2 C17 C13 -0.29(16) . .
C11 S2 C17 C16 -179.8(2) . .
C11 C12 C13 C14 179.7(2) . .
C11 C12 C13 C17 -0.6(3) . .
C12 C13 C14 C15 178.9(2) . .
C12 C13 C14 C19 61.0(3) . .
C12 C13 C14 C20 -62.6(3) . .
C12 C13 C17 S2 0.6(2) . .
C12 C13 C17 C16 -179.77(17) . .
C13 C14 C15 C16 1.3(2) . .
C13 C14 C15 C18 -178.83(19) . 2_676
C14 C13 C17 S2 -179.69(13) . .
C14 C13 C17 C16 0.0(2) . .
C14 C15 C16 C17 -1.4(2) . .
C14 C15 C16 C18 179.06(17) . .
C15 C16 C17 S2 -179.56(17) . .
C15 C16 C17 C13 0.9(2) . .
C15 C16 C18 C15 0.8(3) . 2_676
C17 S2 C11 C12 -0.05(17) . .
C17 C13 C14 C15 -0.8(2) . .
C17 C13 C14 C19 -118.70(19) . .
C17 C13 C14 C20 117.70(19) . .
C17 C16 C18 C15 -178.64(19) . 2_676
C18 C15 C16 C17 178.75(17) 2_676 .
C18 C15 C16 C18 -0.8(3) 2_676 .
C18 C16 C17 S2 -0.1(4) . .
C18 C16 C17 C13 -179.7(2) . .
C19 C14 C15 C16 119.99(18) . .
C19 C14 C15 C18 -60.2(3) . 2_676
C20 C14 C15 C16 -116.95(19) . .
C20 C14 C15 C18 62.9(3) . 2_676
