#------------------------------------------------------------------------------
#$Date: 2019-08-04 04:09:29 +0300 (Sun, 04 Aug 2019) $
#$Revision: 217382 $
#$URL: file:///home/coder/svn-repositories/cod/cif/1/55/21/1552143.cif $
#------------------------------------------------------------------------------
#
# This file is available in the Crystallography Open Database (COD),
# http://www.crystallography.net/. The original data for this entry
# were provided by IUCr Journals, http://journals.iucr.org/.
#
# The file may be used within the scientific community so long as
# proper attribution is given to the journal article from which the
# data were obtained.
#
data_1552143
loop_
_publ_author_name
'Jia, Jason'
'LaDuca, Robert L.'
_publ_contact_author             'LaDuca, Robert L.'
_publ_section_title
;
 Poly[[\m~4~-4-(carboxylatomethyl)benzoato]zinc(II)]
;
_journal_coeditor_code           LH4047
_journal_issue                   7
_journal_name_full               IUCrData
_journal_page_first              x191014
_journal_paper_doi               10.1107/S2414314619010149
_journal_volume                  4
_journal_year                    2019
_chemical_formula_iupac
;
[Zn (C9 H6 O4)]
;
_chemical_formula_moiety         'C9 H6 O4 Zn'
_chemical_formula_sum            'C9 H6 O4 Zn'
_chemical_formula_weight         243.51
_chemical_name_systematic
;
<i>poly</i>-[\m~4~(4-(Carboxymethyl)benzoato)zinc(II)]
;
_space_group_crystal_system      orthorhombic
_space_group_IT_number           29
_space_group_name_Hall           'P 2c -2ac'
_space_group_name_H-M_alt        'P c a 21'
_symmetry_space_group_name_Hall  'P 2c -2ac'
_symmetry_space_group_name_H-M   'P c a 21'
_atom_sites_solution_hydrogens   geom
_atom_sites_solution_primary     dual
_audit_creation_method
;
Olex2 1.2
(compiled 2018.05.29 svn.r3508 for OlexSys, GUI svn.r5506)
;
_cell_angle_alpha                90
_cell_angle_beta                 90
_cell_angle_gamma                90
_cell_formula_units_Z            4
_cell_length_a                   9.6314(11)
_cell_length_b                   4.8612(6)
_cell_length_c                   17.269(2)
_cell_measurement_reflns_used    4707
_cell_measurement_temperature    173(2)
_cell_measurement_theta_max      25.36
_cell_measurement_theta_min      2.36
_cell_volume                     808.54(17)
_computing_cell_refinement
;
SAINT (Bruker, 2013)
;
_computing_data_collection
;
<i>COSMO</i> (Bruker, 2013)
;
_computing_data_reduction
;
SAINT (Bruker, 2013)
;
_computing_molecular_graphics
;
<i>OLEX2</i> (Dolomanov <i>et al.</i>,  2009)
;
_computing_publication_material
;
<i>OLEX2</i> (Dolomanov <i>et al.</i>,  2009)
;
_computing_structure_refinement
;
SHELXL (Sheldrick, 2015)
;
_computing_structure_solution
;
SHELXT (Sheldrick, 2015a)
;
_diffrn_ambient_temperature      173.15
_diffrn_detector_area_resol_mean 8.36
_diffrn_measured_fraction_theta_full 1.000
_diffrn_measured_fraction_theta_max 1.000
_diffrn_measurement_device_type  'Bruker APEXII CCD'
_diffrn_measurement_method       \w
_diffrn_radiation_monochromator  graphite
_diffrn_radiation_type           MoK\a
_diffrn_radiation_wavelength     0.71073
_diffrn_reflns_av_R_equivalents  0.0261
_diffrn_reflns_av_unetI/netI     0.0230
_diffrn_reflns_limit_h_max       11
_diffrn_reflns_limit_h_min       -11
_diffrn_reflns_limit_k_max       5
_diffrn_reflns_limit_k_min       -5
_diffrn_reflns_limit_l_max       20
_diffrn_reflns_limit_l_min       -20
_diffrn_reflns_number            5902
_diffrn_reflns_theta_full        25.242
_diffrn_reflns_theta_max         25.354
_diffrn_reflns_theta_min         2.359
_diffrn_source                   'sealed tube'
_diffrn_standards_number         0
_exptl_absorpt_coefficient_mu    3.016
_exptl_absorpt_correction_T_max  0.7452
_exptl_absorpt_correction_T_min  0.6075
_exptl_absorpt_correction_type   multi-scan
_exptl_absorpt_process_details
;
(SADABS; Bruker, 2013)
;
_exptl_crystal_colour            colorless
_exptl_crystal_density_diffrn    2.000
_exptl_crystal_description       block
_exptl_crystal_F_000             488
_exptl_crystal_size_max          0.11
_exptl_crystal_size_mid          0.07
_exptl_crystal_size_min          0.05
_refine_diff_density_max         0.405
_refine_diff_density_min         -0.260
_refine_ls_abs_structure_details
;
 Refined as an inversion twin
;
_refine_ls_abs_structure_Flack   0.440(19)
_refine_ls_extinction_method     none
_refine_ls_goodness_of_fit_ref   1.074
_refine_ls_hydrogen_treatment    constr
_refine_ls_matrix_type           full
_refine_ls_number_parameters     128
_refine_ls_number_reflns         1474
_refine_ls_number_restraints     1
_refine_ls_restrained_S_all      1.074
_refine_ls_R_factor_all          0.0200
_refine_ls_R_factor_gt           0.0193
_refine_ls_shift/su_max          0.000
_refine_ls_shift/su_mean         0.000
_refine_ls_structure_factor_coef Fsqd
_refine_ls_weighting_details
'w=1/[\s^2^(Fo^2^)+(0.0274P)^2^+0.2338P] where P=(Fo^2^+2Fc^2^)/3'
_refine_ls_weighting_scheme      calc
_refine_ls_wR_factor_gt          0.0480
_refine_ls_wR_factor_ref         0.0485
_reflns_number_gt                1441
_reflns_number_total             1474
_reflns_threshold_expression     'I > 2\s(I)'
_cod_data_source_file            lh4047sup1.cif
_cod_data_source_block           I
_cod_database_code               1552143
_shelx_space_group_comment
;
The symmetry employed for this shelxl refinement is uniquely defined
by the following loop, which should always be used as a source of
symmetry information in preference to the above space-group names.
They are only intended as comments.
;
_shelx_estimated_absorpt_t_min   0.733
_shelx_estimated_absorpt_t_max   0.864
_shelx_hkl_file
;
   0   1   0  454.36   11.01
   0   2   0  836.97   20.18
   0  -2   0  823.69   20.38
   0   2   0  840.98   20.39
   0   3   0   17.76    0.99
   0   3   0   18.62    0.83
   0  -3   0   17.15    0.98
   0  -4   0   21.12    1.28
   0   4   0   22.28    1.30
   0  -5   0   21.55    1.48
   0   5   0   21.25    1.47
   1   0   0   -0.24    0.05
  -1   0   0   -0.14    0.07
   1   1   0  385.59    9.50
  -1  -1   0  385.46    9.55
   1  -1   0  376.51    9.54
   1  -1   0  389.94    9.59
   1  -1   0  391.04    9.54
  -1   1   0  408.37    9.55
   1   2   0  177.50    4.66
  -1  -2   0  178.01    4.82
   1  -2   0  180.97    4.76
  -1   2   0  179.71    4.81
  -1   2   0  183.47    4.64
   1  -2   0  182.18    4.82
  -1  -3   0  150.78    4.37
   1   3   0  150.04    4.08
   1  -3   0  142.36    4.31
  -1   3   0  144.21    4.31
  -1   3   0  153.52    4.05
   1   3   0  149.01    4.35
   1  -3   0  152.96    4.22
   1   4   0   18.66    1.02
  -1  -4   0   19.78    1.23
  -1   4   0   18.89    1.20
   1  -4   0   18.83    1.08
  -1  -4   0   20.03    1.07
   1  -4   0   20.72    1.24
   1   4   0   19.21    1.23
  -1   5   0   12.68    1.15
   1   5   0   12.59    1.18
  -1  -5   0   12.02    1.12
   1  -5   0   12.58    1.48
  -2   0   0  194.66    4.59
  -2   0   0  181.92    4.71
   2   0   0  185.35    4.71
  -2  -1   0   12.68    0.55
   2   1   0   12.17    0.56
   2  -1   0   12.69    0.60
  -2   1   0   11.47    0.50
   2  -2   0  125.67    3.47
  -2  -2   0  122.67    3.47
   2   2   0  124.49    3.38
  -2  -2   0  122.36    3.35
  -2   2   0  121.47    3.43
  -2   2   0  125.09    3.34
   2  -2   0  120.07    3.35
   2  -2   0  121.55    3.43
   2   3   0   -0.03    0.17
  -2   3   0    0.23    0.17
   2   3   0    0.19    0.17
   2  -3   0    0.11    0.20
  -2  -3   0    0.03    0.18
  -2  -3   0    0.09    0.17
   2  -3   0    0.50    0.26
  -2   3   0    0.07    0.17
   2   4   0    3.91    0.50
   2   4   0    4.14    0.61
  -2  -4   0    3.66    0.50
  -2   4   0    4.24    0.59
   2  -4   0    4.06    0.56
  -2  -4   0    4.05    0.60
  -2   5   0   28.49    1.67
  -2  -5   0   27.93    1.73
   2   5   0   27.28    1.68
   2  -5   0   24.40    1.45
  -3   0   0   -0.12    0.07
   3   0   0   -0.21    0.11
  -3   0   0   -0.13    0.12
  -3   1   0    0.99    0.16
  -3   1   0    0.75    0.22
   3  -1   0    0.64    0.17
  -3  -1   0    1.01    0.20
   3   1   0    0.97    0.23
   3  -1   0    0.46    0.19
  -3   2   0   36.96    1.34
   3  -2   0   36.80    1.43
   3  -2   0   36.83    1.34
   3   2   0   36.71    1.35
  -3  -2   0   37.36    1.33
  -3  -2   0   36.60    1.37
   3  -3   0  130.49    3.71
  -3   3   0  128.61    3.65
  -3  -3   0  128.58    3.69
   3  -3   0  132.03    3.90
  -3  -3   0  132.29    3.93
  -3   3   0  127.45    3.84
   3   3   0  123.79    3.74
   3   4   0   96.96    3.40
   3   4   0   98.35    3.15
  -3   4   0   98.58    3.36
  -3  -4   0   97.89    3.41
   3  -4   0   96.12    3.28
  -3  -5   0   20.40    1.45
  -3   5   0   20.10    1.40
   3  -5   0   17.11    1.26
   3   5   0   17.43    1.34
  -4   0   0  101.15    2.98
  -4   0   0  110.53    2.77
   4   0   0  105.30    3.01
  -4   1   0  169.48    4.49
   4  -1   0  178.51    4.67
   4   1   0  178.02    4.73
   4  -1   0  167.68    4.76
  -4   1   0  177.31    4.76
  -4  -1   0  172.63    4.53
  -4  -1   0  179.51    4.68
  -4  -2   0   11.92    0.74
   4  -2   0   12.52    0.81
  -4   2   0   11.35    0.77
  -4  -2   0   12.12    0.71
   4   2   0   13.34    0.78
  -4   2   0   12.91    0.69
  -4   3   0    0.96    0.36
   4   3   0    0.36    0.26
   4  -3   0    0.75    0.34
  -4   3   0    0.57    0.25
  -4  -3   0    0.81    0.31
  -4  -3   0    0.22    0.22
   4  -3   0    0.82    0.28
  -4  -4   0    1.58    0.47
   4   4   0    2.59    0.57
   4  -4   0    1.11    0.39
  -4   4   0    2.03    0.49
   4   4   0    2.15    0.47
   4  -5   0    3.37    0.74
   4   5   0    3.74    0.75
  -4   5   0    4.79    0.78
  -4  -5   0    4.11    0.82
  -4   5   0    4.86    0.77
  -5   0   0    0.04    0.10
  -5   0   0    0.00    0.16
   5   0   0    0.11    0.19
   5  -1   0   79.44    2.48
  -5   1   0   69.91    2.24
   5   1   0   80.27    2.54
  -5   1   0   77.22    2.54
  -5  -1   0   84.49    2.48
  -5  -1   0   82.41    2.29
   5  -2   0  210.61    5.78
   5   2   0  205.42    5.67
  -5  -2   0  204.18    5.50
   5  -2   0  204.81    5.58
  -5   2   0  199.93    5.42
  -5   2   0  200.24    5.73
  -5  -3   0   91.02    3.08
  -5  -3   0   98.48    3.06
   5  -3   0   96.46    3.07
  -5   3   0   91.68    3.21
  -5   3   0   94.27    3.02
   5  -3   0   96.26    3.27
   5   3   0   95.52    3.14
  -5   4   0   45.44    2.11
   5   4   0   43.00    1.95
  -5   4   0   47.49    2.01
   5   4   0   42.52    2.00
   5  -4   0   48.64    2.18
  -5  -4   0   46.38    2.08
  -5   5   0   28.54    1.75
  -5   5   0   28.00    1.69
   5  -5   0   30.32    1.80
   5   5   0   27.63    1.73
  -5  -5   0   29.15    1.79
  -6   0   0   93.10    2.50
   6   0   0   91.47    2.93
  -6   0   0   92.19    2.91
  -6  -1   0  128.43    3.41
   6  -1   0  122.84    3.69
  -6  -1   0  125.77    3.67
  -6   1   0  120.20    3.75
   6   1   0  122.85    3.75
   6   2   0   20.32    1.14
   6  -2   0   18.45    1.16
  -6  -2   0   18.89    0.97
   6  -2   0   21.99    1.11
  -6   2   0   20.44    1.17
  -6   3   0    0.17    0.28
   6   3   0    0.50    0.30
   6  -3   0    0.42    0.34
  -6  -3   0    0.58    0.34
  -6  -3   0    0.47    0.30
  -6   4   0    6.51    0.86
  -6  -4   0    7.36    0.80
   6   4   0    7.98    0.83
   6  -4   0    4.68    0.78
   6   4   0    5.62    0.72
  -6  -5   0   14.38    1.27
   6   5   0   15.54    1.28
  -6   5   0   14.08    1.31
   6  -5   0   13.12    1.29
  -7   0   0    0.07    0.19
   7   0   0    0.06    0.21
   7   1   0    2.47    0.49
  -7  -1   0    2.67    0.45
   7  -1   0    2.59    0.49
  -7   1   0    3.46    0.60
   7  -2   0    0.90    0.35
  -7  -2   0    0.87    0.37
   7   2   0    0.46    0.30
  -7   2   0    0.14    0.26
  -7   3   0   70.68    2.79
   7   3   0   66.01    2.66
   7  -3   0   70.60    2.85
   7   4   0    6.50    0.86
   7  -4   0    6.21    0.93
   7   4   0    5.98    0.77
  -7   4   0    5.58    0.88
  -8   0   0   77.42    2.79
   8   0   0   80.52    2.87
  -8  -1   0   99.45    3.35
  -8   1   0  100.94    3.47
   8   1   0  107.26    3.52
   8  -1   0  101.66    3.40
   8  -2   0   51.22    2.15
  -8  -2   0   54.39    2.18
  -8   2   0   50.48    2.27
   8   2   0   52.40    2.26
  -8   3   0   12.16    1.14
   8  -3   0   12.21    1.09
   8   3   0   10.29    0.99
   8   4   0    5.27    0.83
  -8   4   0    4.37    0.85
   8  -4   0    5.75    1.01
  -9   0   0   -0.35    0.21
   9   0   0    0.15    0.29
  -9  -1   0    0.59    0.35
   9   1   0    0.67    0.37
  -9   1   0    0.04    0.30
   9  -1   0    0.00    0.26
   9  -2   0   12.78    1.04
  -9  -2   0   14.46    1.10
  -9   2   0   13.20    1.14
   9   2   0   13.50    1.13
  -9   3   0   11.21    1.18
   9   3   0    9.81    1.03
 -10   0   0   62.95    2.66
  10   0   0   67.31    2.76
  10   1   0   40.85    2.06
 -10  -1   0   38.44    1.95
 -10   1   0   39.86    2.04
  10  -1   0   38.81    1.96
  10   2   0   13.46    1.23
  10  -2   0   10.51    1.05
 -10   2   0   12.22    1.16
  11   0   0   -0.11    0.34
 -11   0   0    0.38    0.42
 -11  -1   0   30.60    1.84
  11  -1   0   31.46    1.84
 -11   1   0   32.15    1.88
  11   1   0   31.91    1.91
   0  -1   1   -0.42    0.12
   0   1  -1   -0.29    0.12
   0   1  -1   -0.26    0.07
   0  -1  -1   -0.36    0.09
   0  -1   1   -0.20    0.12
   0  -1  -1   -0.32    0.11
   0   1   1   -0.41    0.09
   0   2  -1    0.01    0.09
   0  -2   1    0.11    0.14
   0   2  -1   -0.17    0.14
   0   2   1    0.12    0.12
   0  -2  -1   -0.14    0.10
   0  -2  -1   -0.11    0.14
   0  -2   1   -0.12    0.14
   0  -3   1    0.13    0.21
   0   3  -1   -0.01    0.11
   0  -3  -1    0.19    0.16
   0  -3  -1   -0.15    0.18
   0   3  -1    0.07    0.19
   0  -3   1   -0.06    0.16
   0   3   1    0.12    0.19
   0   3   1    0.25    0.16
   0   4   1   -0.35    0.21
   0  -4  -1   -0.20    0.20
   0  -4   1    0.14    0.27
   0  -4   1   -0.08    0.20
   0   4   1   -0.19    0.16
   0   4  -1   -0.23    0.22
   0  -4  -1    0.09    0.21
   0   5   1   -0.43    0.28
   0  -5   1    0.26    0.36
   0   5  -1    0.02    0.33
   0  -5  -1    0.31    0.36
  -1   0   1   -0.89    0.10
   1   0   1   -1.04    0.08
  -1   0  -1   -0.83    0.11
   1   0  -1   -1.10    0.09
  -1   1  -1   25.77    0.89
  -1  -1   1   26.72    0.88
   1  -1  -1   25.84    0.96
   1  -1  -1   26.73    0.92
   1   1   1   25.98    0.86
  -1  -1  -1   27.63    0.79
   1  -1   1   25.79    0.78
   1  -1   1   25.16    0.89
  -1  -1  -1   27.57    0.91
   1   1  -1   27.36    0.88
   1   1  -1   26.16    0.82
  -1   2  -1   76.24    2.26
  -1  -2   1   74.43    2.32
   1   2   1   70.94    2.12
  -1   2  -1   70.55    2.00
  -1  -2   1   71.54    2.23
   1  -2  -1   70.90    2.21
  -1  -2  -1   70.23    2.05
   1  -2   1   74.50    2.25
   1   2  -1   74.99    2.25
   1   2  -1   72.92    2.07
   1  -2   1   73.33    2.21
  -1   2   1   71.06    2.13
  -1  -2  -1   73.50    2.25
  -1   2   1   75.44    2.23
  -1   3  -1  138.83    4.20
  -1   3  -1  143.32    3.84
   1  -3  -1  139.84    4.19
  -1  -3   1  153.08    4.55
  -1  -3   1  145.89    4.24
   1   3   1  153.18    4.04
   1  -3   1  145.52    4.12
  -1   3   1  137.67    4.18
  -1  -3  -1  144.19    3.96
   1  -3   1  135.94    4.19
  -1  -3  -1  138.38    4.22
   1   3  -1  140.11    4.21
   1   3  -1  149.96    3.94
  -1   3   1  148.05    3.99
   1  -4  -1   71.38    2.67
  -1  -4   1   69.32    2.67
   1   4   1   69.94    2.37
  -1   4  -1   72.24    2.68
   1   4   1   68.50    2.66
  -1   4   1   69.73    2.65
   1  -4   1   72.42    2.53
  -1  -4  -1   70.94    2.36
  -1  -4  -1   71.20    2.69
   1   4  -1   71.70    2.70
  -1   5  -1   46.92    2.28
   1  -5  -1   48.33    2.33
   1   5   1   49.27    2.35
  -1  -5   1   49.77    2.36
   1  -5   1   46.12    2.10
  -1   5   1   49.63    2.33
   1   5  -1   50.65    2.36
  -1  -5  -1   50.50    2.39
  -2   0  -1  192.49    4.65
   2   0   1  185.96    4.66
  -2   0   1  171.21    4.67
  -2   0  -1  191.66    4.66
   2   0   1  186.15    4.67
  -2   1  -1  324.85    7.83
  -2  -1   1  319.24    7.88
   2   1   1  323.66    7.88
   2  -1  -1  316.97    7.77
   2  -1  -1  309.31    7.86
   2  -1  -1  332.05    7.91
  -2  -1   1  319.53    7.81
  -2  -1  -1  294.14    7.85
  -2  -1  -1  310.93    7.75
  -2   1   1  310.52    7.88
   2  -1   1  329.42    7.77
   2  -1   1  319.98    7.92
  -2   1   1  316.31    7.77
   2   1  -1  295.65    7.83
  -2  -2   1   38.32    1.39
  -2   2  -1   36.16    1.37
   2  -2  -1   39.52    1.39
   2  -2  -1   37.89    1.36
   2   2   1   38.98    1.36
  -2   2  -1   33.63    1.21
  -2  -2  -1   39.85    1.26
   2  -2   1   41.49    1.46
   2   2  -1   39.89    1.32
  -2  -2  -1   38.76    1.41
   2  -2   1   36.52    1.25
  -2   2   1   42.86    1.40
   2   2  -1   39.33    1.39
  -2   2   1   38.23    1.34
   2  -3  -1    6.44    0.58
   2  -3  -1    6.15    0.55
   2   3   1    7.51    0.57
  -2   3  -1    6.45    0.44
  -2  -3   1    5.11    0.55
  -2   3  -1    6.26    0.58
  -2  -3  -1    5.21    0.57
  -2   3   1    6.09    0.57
   2   3  -1    5.58    0.57
   2   3  -1    6.13    0.50
  -2   3   1    7.02    0.53
  -2  -3  -1    5.52    0.46
   2  -3   1    6.17    0.58
  -2  -4   1    7.59    0.77
   2   4   1    6.34    0.72
   2   4   1    7.28    0.66
   2  -4  -1    8.01    0.72
   2  -4  -1    8.92    0.82
  -2   4  -1    7.68    0.77
  -2   4   1    7.68    0.78
   2   4  -1    8.19    0.81
  -2  -4  -1    8.63    0.85
   2  -4   1    5.94    0.66
  -2  -5   1   28.48    1.75
   2   5   1   29.15    1.73
  -2   5  -1   25.86    1.66
  -2   5   1   29.94    1.73
  -2  -5  -1   26.10    1.66
   2  -5   1   28.40    1.57
   2   5  -1   26.78    1.68
  -3   0   1   -0.32    0.12
   3   0  -1   -0.19    0.11
   3   0   1   -0.01    0.13
  -3   0   1   -0.07    0.06
  -3   0  -1   -0.23    0.10
  -3   0  -1   -0.07    0.11
  -3   1  -1    4.84    0.35
  -3   1  -1    5.36    0.43
   3  -1  -1    5.66    0.46
   3   1   1    6.02    0.44
  -3  -1   1    5.73    0.35
  -3  -1   1    5.18    0.40
   3  -1  -1    6.32    0.44
  -3  -1  -1    5.88    0.38
   3  -1   1    5.32    0.43
   3   1  -1    6.33    0.43
  -3   1   1    5.09    0.43
  -3   1   1    5.59    0.32
  -3  -1  -1    6.39    0.41
   3   2   1   86.89    2.66
  -3   2  -1   90.63    2.65
  -3  -2   1   89.63    2.65
   3  -2  -1   90.91    2.74
   3  -2   1   86.33    2.73
  -3   2   1   85.08    2.70
   3  -2   1   85.87    2.54
   3   2  -1   94.38    2.65
  -3  -2  -1   86.48    2.54
  -3   2   1   86.24    2.58
  -3  -2  -1   93.74    2.72
   3   3   1   17.72    0.94
   3  -3  -1   17.87    1.00
  -3   3  -1   17.88    1.01
  -3   3  -1   17.44    0.82
   3  -3  -1   16.72    0.92
  -3  -3   1   16.76    1.00
   3  -3   1   18.52    0.87
   3  -3   1   14.70    0.97
   3   3  -1   17.58    1.00
  -3   3   1   17.12    0.96
   3   3  -1   17.89    0.92
  -3  -3  -1   16.79    1.01
  -3  -3  -1   18.25    0.85
  -3   3   1   17.32    0.89
   3   4   1   31.50    1.62
  -3   4  -1   32.44    1.63
   3  -4  -1   34.18    1.60
  -3  -4   1   32.42    1.64
   3   4   1   33.89    1.51
  -3  -4   1   33.27    1.47
   3   4  -1   31.31    1.42
   3  -4   1   29.71    1.54
  -3   4   1   30.31    1.55
  -3  -4  -1   31.77    1.65
   3   4  -1   32.35    1.63
  -3   5  -1   12.51    1.12
   3  -5  -1   11.04    1.03
  -3  -5   1   12.79    1.17
   3   5   1   11.49    1.11
  -3  -5  -1   12.78    1.17
  -3   5   1   10.64    1.04
   3  -5   1   12.61    1.07
   3   5  -1   13.00    1.16
  -4   0  -1  541.67   13.03
   4   0  -1  512.94   13.06
   4   0   1  526.41   13.05
  -4   0  -1  515.13   12.84
  -4   0   1  535.16   12.77
  -4  -1   1  227.88    5.92
   4  -1  -1  221.42    5.90
  -4   1  -1  226.31    5.79
  -4   1  -1  230.71    5.98
   4   1   1  223.71    5.96
  -4  -1   1  227.30    5.70
  -4   1   1  224.59    5.64
   4  -1   1  216.04    5.84
  -4   1   1  229.61    5.99
   4   1  -1  225.82    5.95
   4  -1   1  222.56    5.98
  -4  -1  -1  229.11    5.80
   4  -2  -1   97.07    3.02
  -4  -2   1   95.42    2.85
  -4   2  -1   93.37    2.84
  -4   2  -1   96.00    3.02
   4  -2  -1   97.81    2.92
   4   2   1   98.00    2.98
   4  -2   1   95.14    3.03
   4  -2   1   99.69    2.84
  -4  -2  -1  100.84    2.94
   4   2  -1   94.79    2.93
  -4   2   1   97.95    3.00
  -4   2   1   93.40    2.78
  -4  -2  -1   95.60    2.83
  -4   3  -1    5.87    0.57
  -4  -3   1    7.26    0.66
   4  -3  -1    6.04    0.65
   4   3   1    6.86    0.63
  -4  -3  -1    6.75    0.64
   4  -3   1    6.68    0.55
  -4  -3  -1    6.47    0.55
  -4   3   1    5.78    0.57
  -4   3   1    7.38    0.66
   4   3  -1    5.83    0.58
   4   3  -1    6.98    0.60
   4  -3   1    7.79    0.72
  -4   3   1    6.19    0.57
   4   4   1   13.97    0.98
   4   4   1   15.56    1.11
  -4  -4   1   15.82    1.14
   4  -4  -1   16.32    1.14
  -4   4  -1   15.59    1.09
  -4   4   1   19.34    1.21
   4   4  -1   16.76    1.03
  -4   4   1   15.91    1.09
   4  -4   1   17.63    1.17
   4   4  -1   14.19    1.06
  -4  -4  -1   15.67    1.13
   4   5   1   76.74    3.13
   4  -5  -1   74.18    2.98
  -4  -5   1   71.09    3.05
  -4   5  -1   74.34    3.02
  -4  -5  -1   75.80    3.13
   4  -5   1   72.40    3.00
  -4   5   1   73.85    3.02
  -4   5   1   77.18    3.02
   4   5  -1   76.11    3.11
   5   0  -1   -0.09    0.17
  -5   0   1   -0.04    0.07
  -5   0  -1   -0.16    0.10
  -5   0  -1    0.11    0.17
   5   0   1   -0.07    0.15
  -5   0   1   -0.01    0.16
  -5  -1   1   59.27    1.74
   5  -1  -1   60.76    2.02
  -5   1  -1   57.70    1.87
  -5   1  -1   56.96    2.03
   5   1   1   57.70    2.02
  -5  -1   1   58.22    1.99
  -5   1   1   52.89    1.99
   5   1  -1   59.23    2.03
  -5   1   1   59.93    1.72
   5  -1   1   59.81    2.08
  -5  -1  -1   60.87    1.85
  -5  -1  -1   60.46    2.31
  -5   2  -1   67.58    2.17
   5  -2  -1   66.45    2.38
  -5   2  -1   68.24    2.39
  -5  -2   1   66.43    2.28
   5   2   1   65.52    2.31
   5  -2  -1   70.85    2.30
  -5  -2   1   64.21    2.13
  -5  -2  -1   66.82    2.22
  -5  -2  -1   68.80    2.21
  -5   2   1   66.80    2.07
   5   2  -1   66.75    2.30
  -5   2   1   63.08    2.32
   5  -2   1   64.86    2.38
  -5  -3   1   65.58    2.40
   5  -3  -1   68.84    2.57
  -5   3  -1   65.21    2.35
  -5   3  -1   68.62    2.58
   5   3   1   69.22    2.49
   5  -3   1   64.53    2.55
  -5  -3  -1   68.05    2.30
   5  -3   1   68.23    2.33
   5   3  -1   72.04    2.42
   5   3  -1   69.74    2.46
  -5   3   1   65.15    2.51
  -5  -3  -1   70.17    2.47
  -5   3   1   67.83    2.32
  -5   4  -1   17.20    1.23
   5   4   1   16.08    1.14
  -5  -4   1   17.84    1.22
   5  -4  -1   17.59    1.23
   5   4   1   16.48    1.13
  -5   4  -1   17.39    1.15
   5   4  -1   17.59    1.20
  -5   4   1   17.59    1.11
  -5  -4  -1   16.57    1.19
  -5   4   1   17.69    1.23
   5  -4   1   17.16    1.23
   5   4  -1   19.13    1.18
   5  -5  -1    5.27    0.84
  -5   5  -1    4.43    0.74
  -5  -5   1    5.20    0.83
  -5   5  -1    5.73    0.85
   5   5   1    5.67    0.89
  -5  -5  -1    4.14    0.81
   5   5  -1    4.68    0.85
   5  -5   1    5.85    0.90
  -5   5   1    7.03    0.91
   6   0   1  147.51    4.25
  -6   0  -1  143.40    4.19
   6   0  -1  146.68    4.27
  -6   0   1  146.09    4.25
  -6   0  -1  149.08    3.89
  -6  -1   1    9.64    0.50
  -6   1  -1    8.75    0.71
   6  -1  -1    7.58    0.63
  -6  -1   1    8.78    0.67
   6   1   1    9.75    0.73
  -6   1  -1    7.80    0.58
  -6  -1  -1    8.90    0.56
   6   1  -1    8.22    0.68
  -6   1   1    9.26    0.73
   6  -1   1    9.74    0.68
  -6  -1  -1   10.14    0.67
   6  -2  -1   33.29    1.46
  -6  -2   1   31.34    1.27
   6   2   1   30.18    1.45
  -6  -2   1   32.88    1.46
  -6   2  -1   31.57    1.52
  -6   2  -1   30.73    1.29
   6  -2   1   31.39    1.38
   6   2  -1   30.24    1.45
   6  -2   1   32.68    1.56
  -6  -2  -1   29.71    1.31
  -6  -2  -1   32.55    1.39
  -6   2   1   29.03    1.47
   6  -3  -1   10.09    0.86
  -6  -3   1   10.65    0.82
   6   3   1   10.86    0.92
   6  -3  -1   11.26    0.98
  -6   3  -1   10.56    0.94
  -6   3  -1   11.61    0.95
   6  -3   1    9.18    0.79
   6  -3   1    9.17    0.91
   6   3  -1    8.37    0.78
  -6  -3  -1   10.40    0.82
   6   3  -1   10.02    0.77
  -6   3   1   11.05    0.94
   6   4   1    9.05    0.87
  -6  -4   1    9.07    0.91
  -6   4  -1    7.96    0.94
   6   4   1    8.99    0.88
   6  -4  -1    7.42    0.91
  -6   4   1    7.53    0.90
   6   4  -1    9.33    0.89
   6   4  -1    9.71    0.90
   6  -4   1   10.16    1.04
  -6  -4  -1    8.86    0.89
   6  -5  -1   22.67    1.63
  -6  -5   1   23.73    1.62
  -6   5  -1   24.35    1.68
   6   5   1   22.37    1.59
   6  -5   1   23.60    1.68
  -6   5   1   23.26    1.63
  -6  -5  -1   23.60    1.63
   6   5  -1   23.05    1.60
   7   0   1    0.01    0.20
  -7   0   1   -0.03    0.18
   7   0  -1   -0.05    0.18
  -7   0  -1   -0.15    0.14
   7  -1  -1   59.08    2.22
  -7  -1   1   60.33    2.22
   7   1   1   59.72    2.27
  -7   1  -1   57.02    2.24
   7   1  -1   59.70    2.27
  -7  -1  -1   62.27    2.17
  -7   1   1   57.16    2.25
   7  -1   1   58.41    2.19
  -7   2  -1   63.29    2.52
   7  -2  -1   63.21    2.39
   7   2   1   64.30    2.49
  -7  -2   1   66.42    2.44
   7  -2   1   65.10    2.37
  -7   2   1   68.75    2.56
   7  -2   1   61.64    2.54
   7   2  -1   66.24    2.50
   7  -3  -1  122.27    3.96
   7   3   1  118.63    3.98
  -7   3  -1  118.89    4.09
   7   3  -1  117.19    3.96
  -7  -3  -1  121.89    3.82
   7  -3   1  115.16    4.09
  -7   3   1  124.57    4.13
   7   4   1   27.89    1.68
   7   4   1   28.65    1.61
  -7   4  -1   31.22    1.86
   7  -4  -1   30.84    1.85
  -7  -4  -1   30.90    1.69
  -7   4   1   29.93    1.79
   7  -4   1   35.40    1.96
   7   4  -1   27.62    1.65
   7   4  -1   30.91    1.64
  -8   0   1    1.24    0.38
  -8   0  -1    1.72    0.46
   8   0   1    1.16    0.38
   8   0  -1    0.66    0.33
  -8  -1   1    5.37    0.65
   8  -1  -1    4.71    0.61
  -8   1  -1    4.49    0.65
   8   1   1    4.03    0.60
   8   1  -1    4.13    0.61
   8  -1   1    5.35    0.65
  -8   1   1    5.73    0.69
  -8  -1  -1    4.76    0.58
   8  -2  -1    1.61    0.46
   8   2   1    1.17    0.43
  -8  -2   1    1.15    0.43
  -8   2  -1    0.97    0.43
  -8   2   1    1.69    0.50
   8  -2   1    1.43    0.42
   8   2  -1    0.96    0.43
   8  -3  -1    4.24    0.71
  -8   3  -1    4.23    0.83
   8   3   1    4.98    0.73
  -8   3   1    4.71    0.86
   8   3  -1    4.23    0.68
   8  -3   1    3.30    0.76
  -8   4  -1    2.83    0.76
   8   4   1    3.01    0.75
   8  -4   1    1.54    0.61
   8   4  -1    2.08    0.64
  -8   4   1    1.86    0.64
  -9   0  -1   -0.13    0.20
  -9   0   1   -0.02    0.26
   9   0   1   -0.11    0.22
   9   0  -1    0.07    0.29
  -9   1  -1   36.92    1.81
   9   1   1   30.22    1.70
  -9  -1   1   33.27    1.71
   9  -1  -1   33.86    1.73
  -9  -1  -1   36.59    1.71
   9   1  -1   34.67    1.80
   9  -1   1   32.18    1.68
  -9   1   1   34.65    1.80
  -9  -2   1   45.29    2.07
  -9   2  -1   42.32    2.13
   9  -2  -1   42.69    2.04
   9   2   1   45.12    2.15
   9   2  -1   43.70    2.12
  -9   2   1   46.21    2.22
   9  -2   1   41.90    1.99
   9   3   1   61.57    2.70
   9  -3  -1   61.29    2.63
  -9   3  -1   58.32    2.74
  -9   3   1   61.45    2.77
   9   3  -1   61.23    2.69
 -10   0  -1   59.45    2.52
  10   0  -1   61.85    2.61
 -10   0   1   57.45    2.52
  10   0   1   57.79    2.53
  10  -1  -1   24.77    1.55
 -10  -1   1   26.49    1.60
 -10   1  -1   23.06    1.54
  10   1   1   28.52    1.69
 -10   1   1   26.22    1.62
  10   1  -1   23.28    1.55
  10  -1   1   29.87    1.65
 -10  -1  -1   24.86    1.50
 -10  -2   1   17.12    1.31
 -10   2  -1   18.66    1.43
  10   2   1   18.09    1.38
  10  -2  -1   16.77    1.32
 -10   2   1   17.19    1.39
  10  -2   1   17.62    1.28
  10   2  -1   17.60    1.40
  11   0  -1    0.60    0.49
 -11   0  -1   -0.24    0.31
 -11   0   1   -0.27    0.26
  11   0   1   -0.31    0.30
 -11  -1   1    2.74    0.67
  11  -1  -1    2.56    0.68
  11   1   1    2.85    0.73
 -11   1  -1    3.12    0.74
 -11   1   1    2.40    0.65
  11   1  -1    2.64    0.69
 -11  -1  -1    2.93    0.68
  11  -1   1    2.07    0.62
   0   0  -2  523.24   13.30
   0   0  -2  539.32   13.27
   0   0   2  556.00   13.35
   0  -1  -2  890.98   21.22
   0  -1  -2  867.81   20.91
   0   1   2  838.78   20.97
   0   1  -2  852.53   20.76
   0  -1   2  816.87   20.75
   0   1  -2  887.69   21.32
   0  -2  -2  314.74    7.85
   0   2  -2  316.61    7.76
   0  -2   2  319.72    8.06
   0  -2  -2  307.90    8.07
   0   2   2  314.72    7.99
   0  -2   2  320.79    8.10
   0   2  -2  320.22    8.09
   0  -3   2   47.89    1.80
   0   3  -2   50.58    1.90
   0   3  -2   48.97    1.53
   0  -3  -2   50.55    1.66
   0  -3  -2   52.31    1.91
   0   3   2   50.19    1.74
   0  -3   2   48.09    1.88
   0  -4   2   12.92    0.92
   0  -4  -2   13.92    0.85
   0   4   2   13.92    1.02
   0  -4  -2   14.75    1.05
   0   4   2   15.02    0.89
   0   4  -2   14.54    1.04
   0  -5  -2   55.21    2.54
   0  -5   2   56.03    2.32
   0   5   2   59.62    2.59
   0   5  -2   56.75    2.55
  -1   0   2   -0.08    0.09
  -1   0  -2   -0.07    0.11
   1   0   2   -0.16    0.06
   1   0  -2   -0.10    0.08
   1   0  -2   -0.12    0.07
   1  -1  -2   29.85    1.01
  -1   1  -2   31.18    1.01
   1   1   2   29.36    0.98
  -1  -1   2   28.36    1.02
  -1  -1   2   29.95    0.97
  -1   1   2   29.31    0.93
   1   1  -2   29.84    0.97
   1  -1   2   29.21    0.79
  -1  -1  -2   30.57    0.79
   1  -1   2   25.99    0.99
   1   1  -2   29.64    0.88
  -1   2  -2   44.81    1.25
  -1  -2   2   45.66    1.55
  -1  -2   2   42.48    1.50
   1   2   2   42.59    1.46
  -1   2  -2   41.48    1.52
   1  -2  -2   45.27    1.52
   1  -2   2   44.00    1.54
  -1   2   2   42.58    1.47
  -1  -2  -2   44.90    1.32
   1   2  -2   46.19    1.34
   1   2  -2   43.48    1.53
  -1  -2  -2   43.32    1.55
  -1  -3   2   55.87    2.11
  -1  -3   2   60.70    2.06
   1   3   2   58.98    1.99
  -1   3  -2   58.69    1.74
  -1   3  -2   59.81    2.16
   1  -3  -2   60.23    2.13
  -1   3   2   58.83    1.97
  -1  -3  -2   58.44    1.86
  -1  -3  -2   57.49    2.13
   1   3  -2   60.84    2.16
   1  -3   2   59.91    2.09
   1   3  -2   61.79    1.84
   1   4   2   47.22    1.84
  -1   4  -2   52.87    2.14
   1  -4  -2   53.08    2.13
  -1  -4   2   46.77    2.06
   1  -4  -2   49.30    2.02
  -1  -4   2   46.33    1.89
  -1  -4  -2   46.26    2.06
  -1   4   2   47.69    1.81
  -1   4   2   46.15    2.03
   1  -4   2   46.11    1.94
   1   4  -2   46.70    2.06
  -1   5  -2   15.09    1.23
   1   5   2   12.80    1.16
  -1  -5   2   12.62    1.18
   1  -5  -2   13.86    1.18
   1   5  -2   17.40    1.34
  -1   5   2   13.73    1.18
   1  -5   2   14.11    1.09
  -1  -5  -2   13.71    1.18
   2   0   2  946.24   23.50
  -2   0   2 1000.00   23.76
  -2   0  -2  931.69   23.79
   2   0  -2  987.64   23.45
   2   0   2  935.71   23.26
  -2   1  -2   78.82    2.25
  -2  -1   2   79.34    2.19
   2  -1  -2   79.12    2.14
  -2  -1   2   77.26    2.30
   2  -1  -2   83.75    2.30
   2   1   2   81.76    2.29
   2  -1  -2   78.92    2.29
   2  -1   2   80.48    2.31
  -2  -1  -2   80.35    2.09
   2  -1   2   78.64    2.11
  -2   1   2   79.01    2.26
  -2  -1  -2   82.36    2.29
   2   1  -2   84.32    2.24
  -2  -2   2   46.83    1.62
   2  -2  -2   46.53    1.62
   2   2   2   49.41    1.61
   2  -2  -2   45.87    1.55
  -2   2  -2   44.92    1.60
  -2   2  -2   46.77    1.38
   2  -2  -2   46.20    1.57
  -2  -2   2   45.97    1.59
   2  -2   2   46.06    1.64
  -2  -2  -2   44.33    1.62
  -2   2   2   46.52    1.55
   2   2  -2   45.70    1.48
   2  -2   2   46.59    1.40
  -2  -2  -2   45.83    1.38
  -2   2   2   45.60    1.57
   2   2  -2   48.39    1.61
  -2   2   2   47.57    1.57
  -2  -3   2   30.29    1.40
   2  -3  -2   32.19    1.33
  -2  -3   2   31.71    1.35
  -2   3  -2   33.20    1.12
   2  -3  -2   32.81    1.41
  -2   3  -2   32.00    1.43
   2   3   2   31.21    1.33
   2   3  -2   34.81    1.25
  -2   3   2   35.45    1.44
  -2  -3  -2   32.62    1.46
   2  -3   2   32.37    1.42
  -2   3   2   29.57    1.29
  -2  -3  -2   32.17    1.17
   2   3  -2   31.00    1.40
   2   4   2   28.10    1.48
   2   4   2   26.35    1.32
   2  -4  -2   27.26    1.39
  -2  -4   2   24.78    1.42
   2  -4  -2   26.58    1.44
  -2   4  -2   27.05    1.47
  -2  -4   2   25.47    1.30
  -2   4   2   26.83    1.25
   2  -4   2   26.31    1.39
  -2   4   2   27.71    1.45
  -2  -4  -2   25.41    1.45
   2   4  -2   25.44    1.43
   2  -5  -2   10.44    1.05
  -2   5  -2    8.90    1.03
   2   5   2   10.12    1.03
   2   5  -2    9.40    1.00
   2  -5   2   10.00    0.96
  -2   5   2   10.03    1.00
  -2  -5  -2    9.39    1.02
  -3   0   2   -0.33    0.11
   3   0  -2   -0.32    0.13
   3   0   2   -0.29    0.12
  -3   0  -2   -0.17    0.12
   3   0   2   -0.18    0.13
  -3   0  -2   -0.22    0.14
  -3  -1   2  151.16    3.91
   3  -1  -2  151.03    4.09
   3   1   2  154.82    4.10
  -3  -1   2  149.36    4.09
  -3   1  -2  144.37    4.02
   3   1  -2  146.78    3.90
  -3   1   2  162.13    4.14
  -3  -1  -2  152.11    4.04
   3  -1   2  145.61    4.11
   3  -1   2  150.51    3.95
   3   1  -2  158.76    4.08
  -3   1   2  156.83    3.85
  -3  -1  -2  155.05    3.91
   3   2   2  147.29    4.26
  -3   2  -2  155.42    4.27
   3  -2  -2  157.96    4.32
  -3  -2   2  155.68    4.24
   3  -2  -2  157.26    4.32
  -3  -2   2  155.29    4.33
  -3   2   2  154.12    4.29
   3   2  -2  152.03    4.22
   3  -2   2  157.26    4.38
   3  -2   2  156.51    4.09
  -3  -2  -2  155.97    4.06
   3   2  -2  154.74    4.21
  -3   2   2  149.88    4.17
  -3  -2  -2  158.54    4.33
   3  -3  -2  144.56    4.32
  -3  -3   2  158.12    4.36
  -3  -3   2  147.77    4.35
   3   3   2  152.65    4.32
  -3   3  -2  141.13    4.33
   3  -3  -2  148.98    4.30
  -3  -3  -2  148.13    4.00
   3   3  -2  147.15    4.34
  -3   3   2  151.90    4.35
   3  -3   2  150.52    4.02
   3  -3   2  144.76    4.40
  -3   3   2  149.30    4.31
  -3  -3  -2  147.12    4.41
   3   3  -2  149.46    4.17
  -3   3   2  146.44    4.24
  -3   4  -2   38.86    1.80
  -3  -4   2   38.84    1.82
   3   4   2   34.48    1.61
   3  -4  -2   37.65    1.69
   3  -4  -2   35.30    1.69
  -3  -4  -2   36.93    1.81
  -3   4   2   36.44    1.71
  -3   4   2   34.71    1.64
   3   4  -2   36.00    1.75
   3  -4   2   38.11    1.76
  -3  -5   2   23.66    1.58
   3   5   2   25.17    1.64
  -3   5  -2   25.32    1.62
  -3   5   2   22.46    1.51
  -3  -5  -2   23.76    1.61
   3   5  -2   22.33    1.52
   3  -5   2   24.42    1.52
   4   0  -2   90.19    2.62
  -4   0   2   86.11    2.59
  -4   0  -2   90.55    2.49
  -4   0  -2   81.99    2.51
   4   0   2   87.73    2.57
  -4   1  -2    8.59    0.54
  -4  -1   2    7.98    0.43
   4  -1  -2    8.20    0.57
  -4  -1   2    9.09    0.60
   4   1   2    9.04    0.59
  -4   1  -2    8.00    0.59
   4  -1   2    8.66    0.61
  -4  -1  -2    8.43    0.49
  -4   1   2    8.41    0.38
  -4   1   2   10.02    0.63
  -4  -1  -2    8.39    0.51
   4   1  -2    8.70    0.57
  -4  -2   2   51.81    1.76
  -4  -2   2   55.14    1.94
   4   2   2   53.92    1.90
   4  -2  -2   51.78    1.88
   4  -2  -2   52.63    1.93
  -4   2  -2   54.14    1.83
  -4   2   2   52.83    1.85
   4   2  -2   52.97    1.84
  -4  -2  -2   56.40    1.89
  -4   2   2   51.74    1.89
  -4  -2  -2   51.05    1.70
   4  -2   2   51.23    1.94
   4  -2   2   51.08    1.71
  -4  -3   2    4.53    0.55
   4  -3  -2    3.98    0.54
   4  -3  -2    4.20    0.53
  -4  -3   2    2.87    0.56
   4   3   2    3.86    0.52
  -4   3  -2    3.89    0.49
  -4   3   2    3.85    0.47
   4   3  -2    4.30    0.50
   4  -3   2    4.02    0.54
   4   3  -2    4.30    0.51
  -4  -3  -2    4.06    0.53
  -4  -3  -2    4.10    0.71
   4  -3   2    4.12    0.44
  -4   3   2    3.18    0.46
  -4   3   2    4.89    0.56
  -4  -4   2    5.39    0.71
   4   4   2    5.02    0.63
  -4   4  -2    7.12    0.75
   4  -4  -2    5.38    0.70
  -4  -4  -2    6.05    0.73
  -4   4   2    6.08    0.71
   4   4  -2    6.11    0.74
   4  -4   2    6.44    0.76
  -4   4   2    5.70    0.66
   4   5   2    0.24    0.38
  -4  -5   2    0.43    0.41
   4  -5  -2    0.35    0.39
  -4   5  -2    0.12    0.40
   4  -5   2    0.59    0.46
  -4   5   2    0.19    0.34
  -4  -5  -2    0.63    0.51
   4   5  -2    1.42    0.54
   5   0  -2   -0.22    0.13
   5   0   2   -0.06    0.15
  -5   0  -2   -0.07    0.13
  -5   0   2   -0.07    0.15
  -5   0  -2    0.09    0.17
  -5   1  -2   51.19    1.85
   5  -1  -2   49.44    1.80
  -5   1  -2   50.69    1.76
  -5  -1   2   50.81    1.83
  -5  -1   2   51.62    1.51
   5   1   2   48.11    1.81
  -5   1   2   52.58    1.46
   5  -1   2   50.06    1.73
  -5   1   2   49.77    1.85
   5  -1   2   50.02    1.85
  -5  -1  -2   52.99    1.69
   5   1  -2   49.38    1.81
  -5  -2   2   60.30    1.97
   5  -2  -2   61.81    2.15
  -5   2  -2   61.96    2.07
  -5  -2   2   61.75    2.19
   5   2   2   57.31    2.14
  -5   2  -2   56.59    2.19
   5   2  -2   59.27    2.13
  -5  -2  -2   62.21    2.00
   5  -2   2   63.47    2.03
  -5   2   2   59.10    1.88
  -5   2   2   61.20    2.21
   5  -2   2   60.83    2.26
   5   2  -2   59.81    1.94
  -5  -2  -2   57.72    2.06
  -5   3  -2  205.14    6.16
  -5  -3   2  217.12    6.09
  -5   3  -2  206.28    5.98
  -5  -3   2  222.41    6.00
   5   3   2  212.81    6.09
   5  -3  -2  213.34    6.14
   5  -3  -2  222.57    6.09
   5   3  -2  216.17    5.95
  -5   3   2  216.90    6.13
   5   3  -2  210.53    5.97
   5  -3   2  210.99    6.21
  -5  -3  -2  210.53    6.04
   5  -4  -2   74.21    2.81
  -5  -4   2   70.11    2.74
  -5   4  -2   75.20    2.76
   5   4   2   68.44    2.70
   5   4  -2   74.51    2.75
   5  -4   2   68.32    2.82
   5   4  -2   69.66    2.58
  -5   4   2   73.97    2.81
  -5   4   2   66.84    2.60
  -5  -4  -2   72.06    2.80
  -5   5  -2   40.03    2.12
  -5  -5   2   39.63    2.11
   5  -5  -2   34.73    1.94
   5   5   2   38.50    2.07
  -5   5  -2   37.15    1.98
   5   5  -2   36.55    2.03
   5  -5   2   38.69    2.11
  -5  -5  -2   37.58    2.10
  -5   5   2   38.44    2.03
  -6   0  -2  129.65    3.81
  -6   0  -2  135.53    3.62
  -6   0   2  132.85    3.90
   6   0   2  129.51    3.83
   6   0  -2  123.73    3.86
  -6   1  -2   78.80    2.60
  -6   1  -2   77.67    2.69
   6  -1  -2   79.54    2.69
  -6  -1   2   82.06    2.72
   6   1   2   81.15    2.72
  -6   1   2   85.18    2.77
   6  -1   2   82.67    2.77
  -6  -1  -2   84.73    2.50
   6   1  -2   83.75    2.74
   6  -1   2   81.86    2.62
   6  -2  -2   78.79    2.69
   6   2   2   79.89    2.75
  -6   2  -2   79.16    2.77
  -6   2  -2   78.56    2.56
  -6  -2   2   74.57    2.68
  -6  -2   2   78.40    2.42
   6   2  -2   76.67    2.38
  -6  -2  -2   78.60    2.56
  -6  -2  -2   79.64    2.53
  -6   2   2   79.84    2.76
   6  -2   2   75.52    2.78
   6   2  -2   72.12    2.64
   6   3   2   11.42    0.93
  -6  -3   2   10.18    0.91
   6  -3  -2    9.82    0.84
   6  -3  -2    9.47    0.89
  -6   3  -2   11.30    0.95
  -6  -3   2   10.33    0.79
  -6   3  -2   10.50    0.82
   6   3  -2   11.30    0.88
  -6   3   2   11.24    0.93
   6  -3   2   11.22    0.97
   6   3  -2    9.47    0.83
  -6  -3  -2   10.86    0.87
  -6  -4   2    4.58    0.69
  -6   4  -2    4.13    0.82
  -6   4  -2    5.42    0.81
   6  -4  -2    4.73    0.82
   6   4   2    4.20    0.70
   6  -4   2    3.44    0.76
  -6  -4  -2    2.18    0.58
   6   4  -2    5.09    0.70
   6   4  -2    4.52    0.68
  -6   4   2    5.04    0.76
  -7   0   2    0.04    0.20
   7   0   2   -0.03    0.22
  -7   0  -2    0.02    0.17
   7   0  -2   -0.11    0.19
  -7  -1   2    5.39    0.60
  -7   1  -2    6.31    0.67
   7   1   2    6.01    0.64
   7  -1  -2    4.86    0.59
   7  -1   2    5.36    0.57
  -7   1   2    6.35    0.67
   7   1  -2    6.53    0.66
  -7  -1  -2    5.76    0.59
  -7  -2   2   13.43    1.00
   7   2   2   15.01    1.06
   7  -2  -2   14.86    1.02
  -7   2  -2   15.13    1.07
  -7   2   2   13.64    1.04
  -7  -2  -2   15.86    0.96
   7   2  -2   15.11    1.05
   7  -2   2   15.78    0.97
   7  -2   2   14.90    1.09
  -7  -2  -2   15.36    0.91
   7   3   2    1.42    0.49
   7  -3  -2    1.30    0.46
  -7   3  -2    2.60    0.60
  -7  -3   2    1.58    0.53
  -7   3   2    3.17    0.70
   7  -3   2    1.69    0.53
   7   3  -2    3.03    0.59
  -7  -3  -2    2.26    0.51
  -7   4  -2    4.19    0.82
   7   4   2    1.41    0.53
   7  -4   2    3.33    0.77
  -7   4   2    4.68    0.86
  -7  -4  -2    3.13    0.66
   7   4  -2    2.84    0.63
  -8   0  -2  171.38    4.98
   8   0  -2  167.56    5.09
  -8   0   2  163.66    5.03
   8   0   2  165.89    5.00
  -8   1  -2   49.29    2.06
   8  -1  -2   45.56    1.99
  -8  -1   2   45.03    1.99
   8   1   2   50.34    2.08
  -8  -1  -2   47.35    1.91
   8   1  -2   43.43    1.99
   8  -1   2   46.65    1.95
  -8   1   2   43.98    2.00
   8   2   2   31.99    1.73
  -8  -2   2   33.61    1.72
  -8   2  -2   32.41    1.76
   8  -2  -2   35.34    1.72
   8   2  -2   34.31    1.74
  -8   2   2   36.40    1.84
   8  -2   2   37.57    1.68
   8  -3  -2    1.35    0.50
   8   3   2    2.99    0.69
  -8  -3   2    2.97    0.71
  -8   3  -2    2.38    0.61
   8  -3   2    2.39    0.63
   8   3  -2    2.25    0.59
  -8   3   2    2.09    0.58
   8   4   2    2.42    0.66
  -8   4   2    2.42    0.67
   8  -4   2    2.09    0.73
   8   4  -2    1.97    0.56
   9   0   2    0.09    0.27
  -9   0   2    0.02    0.25
   9   0  -2    0.63    0.39
  -9   0  -2    0.02    0.25
  -9   1  -2    4.36    0.69
   9   1   2    4.71    0.67
  -9  -1   2    4.47    0.65
   9  -1  -2    4.54    0.66
  -9  -1  -2    6.13    0.70
  -9   1   2    5.03    0.75
   9   1  -2    4.24    0.67
   9  -1   2    3.88    0.68
  -9   2  -2    8.35    0.92
   9   2   2    8.91    0.93
  -9  -2   2   10.33    0.98
   9  -2  -2   10.31    0.95
   9   2  -2    9.81    0.98
  -9   2   2    6.08    0.85
   9  -2   2    9.01    0.88
  -9   3  -2    2.08    0.65
   9  -3  -2    2.92    0.70
   9   3   2    1.46    0.55
  -9   3   2    4.11    0.86
   9   3  -2    2.82    0.70
 -10   0  -2   61.53    2.51
 -10   0   2   58.17    2.54
  10   0   2   54.06    2.47
  10   0  -2   58.17    2.55
 -10   1  -2   41.55    2.05
  10   1   2   42.42    2.08
  10  -1  -2   35.75    1.94
 -10  -1   2   41.14    2.06
 -10   1   2   38.33    2.03
  10   1  -2   39.23    2.05
 -10  -1  -2   37.85    1.88
  10  -1   2   40.76    1.99
 -10   2  -2   34.35    1.97
  10  -2  -2   36.16    1.92
 -10  -2   2   33.88    1.90
  10   2   2   37.72    2.04
  10  -2   2   32.28    1.81
 -10   2   2   32.95    1.94
  10   2  -2   36.70    2.02
  11   0   2   -0.01    0.35
 -11   0   2   -0.17    0.34
 -11   0  -2    0.30    0.37
  11   0  -2   -0.23    0.34
  11   1   2    7.18    0.99
 -11  -1   2    6.01    0.90
  11  -1  -2    6.22    0.89
 -11   1  -2    6.67    0.93
 -11  -1  -2    4.93    1.22
  11   1  -2    6.66    0.93
  11  -1   2    5.18    0.83
 -11   1   2    7.43    0.95
   0   0  -3   -0.06    0.14
   0   0   3   -0.14    0.09
   0   0  -3   -0.19    0.10
   0   1   3    0.01    0.06
   0  -1   3    0.00    0.14
   0   1  -3   -0.02    0.11
   0  -1  -3    0.08    0.12
   0   1   3    0.08    0.13
   0  -2  -3   -0.19    0.07
   0  -2  -3    0.16    0.18
   0   2  -3    0.01    0.14
   0   2   3   -0.07    0.13
   0  -2   3    0.07    0.18
   0   2  -3    0.01    0.07
   0   3  -3    0.03    0.17
   0   3  -3   -0.07    0.09
   0  -3  -3   -0.02    0.13
   0   3   3   -0.08    0.16
   0  -3   3   -0.09    0.18
   0  -3  -3    0.16    0.20
   0   4  -3   -0.03    0.26
   0  -4   3   -0.18    0.22
   0   4   3    0.21    0.27
   0  -4  -3   -0.17    0.20
   0   4   3   -0.06    0.20
   0   5   3    0.13    0.34
   0  -5  -3    0.04    0.33
   0  -5   3    0.06    0.33
   0   5  -3    0.16    0.38
   1   0   3    0.08    0.08
  -1   0   3    0.09    0.10
   1   0  -3   -0.01    0.11
   1   0  -3    0.02    0.10
  -1   0  -3   -0.02    0.13
   1   1   3  117.68    3.12
  -1  -1   3  112.67    3.18
   1  -1  -3  118.13    3.19
   1   1  -3  118.35    2.97
   1   1  -3  118.58    3.09
  -1  -1  -3  117.47    3.14
  -1   1   3  115.46    3.15
   1  -1   3  113.95    3.14
  -1   1   3  113.58    3.01
   1  -2  -3  216.17    5.83
  -1  -2   3  221.06    5.91
  -1   2  -3  225.88    5.45
   1   2   3  219.49    5.83
   1  -2  -3  221.88    5.70
   1  -2  -3  220.12    5.90
  -1   2  -3  231.62    5.93
   1   2  -3  221.76    5.58
  -1  -2  -3  220.01    5.52
  -1   2   3  223.76    5.70
  -1  -2  -3  227.14    5.92
   1   2  -3  227.51    5.89
  -1   2   3  224.88    5.86
   1  -2   3  222.79    5.92
   1  -3  -3  186.09    5.39
  -1  -3   3  200.92    5.42
  -1   3  -3  185.20    5.45
   1   3   3  195.72    5.33
   1  -3  -3  193.80    5.18
  -1  -3  -3  195.83    5.04
   1  -3   3  199.92    5.45
   1   3  -3  195.73    5.02
  -1  -3  -3  191.41    5.46
  -1   3   3  198.33    5.32
   1   3  -3  190.53    5.43
   1  -4  -3   80.34    2.92
  -1  -4   3   79.96    2.80
   1   4   3   81.65    2.75
   1  -4  -3   80.12    2.64
  -1   4  -3   85.89    3.02
   1   4  -3   80.38    2.95
  -1  -4  -3   82.27    2.99
  -1   4   3   79.35    2.70
   1  -4   3   80.62    2.85
  -1   4   3   82.14    2.94
   1  -5  -3   32.24    1.85
  -1   5  -3   34.95    1.93
   1   5   3   36.18    1.95
  -1  -5   3   33.77    1.72
  -1  -5  -3   36.30    1.97
   1   5  -3   38.68    2.01
  -1   5   3   29.97    1.77
   1  -5   3   31.85    1.72
   2   0  -3  446.29   11.25
   2   0  -3  501.29   11.37
  -2   0  -3  451.74   11.44
   2   0   3  470.89   11.28
   2   0   3  464.25   11.26
  -2   0   3  441.51   11.34
   2  -1  -3  111.42    3.10
   2   1   3  114.37    3.05
   2  -1  -3  111.06    2.89
  -2   1  -3  109.46    3.06
  -2  -1   3  111.74    3.12
   2  -1   3  117.19    3.10
  -2   1   3  110.30    3.01
   2   1  -3   98.19    2.93
  -2  -1  -3  111.01    3.07
   2  -1   3  112.44    2.83
  -2  -1  -3  113.58    2.77
   2  -2  -3   94.37    2.86
   2  -2  -3  104.60    2.99
   2  -2  -3  100.71    3.01
  -2  -2   3  100.02    2.94
  -2   2  -3  101.76    2.62
   2   2   3  104.30    2.96
  -2  -2   3  103.35    3.04
  -2   2  -3   96.57    2.97
   2  -2   3  101.92    2.64
   2   2  -3  103.10    2.95
  -2  -2  -3   98.34    2.99
  -2  -2  -3  100.16    2.62
   2   2  -3   99.88    2.78
  -2   2   3  101.97    2.97
   2  -2   3  102.71    3.02
  -2   2   3   99.57    2.87
   2  -3  -3    0.66    0.26
   2   3   3    0.29    0.22
  -2  -3   3    0.11    0.22
  -2  -3   3    0.26    0.21
  -2   3  -3    0.57    0.28
  -2   3   3    0.24    0.22
   2   3  -3    0.28    0.25
  -2   3   3    0.08    0.16
  -2  -3  -3    0.02    0.19
   2   3  -3    0.38    0.18
  -2  -3  -3    0.28    0.15
  -2   3   3    0.39    0.23
   2  -3   3    0.07    0.20
  -2  -4   3    8.08    0.76
   2  -4  -3    6.72    0.72
  -2   4  -3    6.67    0.74
   2   4   3    6.48    0.66
   2   4  -3    8.03    0.78
  -2  -4  -3    7.65    0.79
  -2   4   3    6.35    0.70
   2  -4   3    7.74    0.78
  -2   4   3    9.06    0.73
  -2   4   3    7.79    0.68
  -2  -5   3   21.35    1.44
   2   5   3   18.03    1.36
   2  -5  -3   20.49    1.43
  -2   5  -3   18.42    1.38
  -2  -5  -3   19.67    1.42
  -2   5   3   19.13    1.40
   2   5  -3   18.28    1.37
   2  -5   3   18.66    1.33
   3   0  -3   -0.36    0.14
  -3   0   3   -0.25    0.16
   3   0   3   -0.44    0.10
   3   0   3   -0.39    0.13
  -3   0  -3   -0.39    0.16
   3   1   3   50.60    1.68
   3  -1  -3   52.39    1.45
  -3  -1   3   53.10    1.53
   3  -1  -3   52.23    1.72
  -3  -1   3   52.35    1.74
  -3   1  -3   51.37    1.69
   3  -1   3   49.26    1.70
   3   1  -3   51.45    1.65
  -3   1   3   50.11    1.69
  -3   1   3   51.03    1.44
   3   1  -3   53.52    1.52
   3  -1   3   50.68    1.53
  -3  -1  -3   52.78    1.68
  -3  -1  -3   54.35    1.49
   3  -2  -3   13.39    0.79
   3   2   3   12.65    0.75
   3  -2  -3   12.50    0.81
  -3  -2   3   13.67    0.71
   3  -2  -3   13.70    0.76
  -3   2  -3   12.81    0.75
  -3  -2   3   14.01    0.83
  -3  -2  -3   13.55    0.56
  -3   2   3   11.80    0.65
  -3   2   3   13.28    0.74
   3  -2   3   13.35    0.59
   3  -2   3   12.89    0.80
   3   2  -3   12.93    0.69
   3   2  -3   11.99    0.69
  -3  -2  -3   13.12    0.77
   3  -3  -3   47.61    1.81
   3  -3  -3   46.58    1.81
   3   3   3   47.05    1.86
  -3  -3   3   47.58    1.86
   3  -3  -3   47.73    1.88
  -3  -3   3   48.58    1.90
  -3   3  -3   51.25    1.95
   3  -3   3   46.29    1.93
  -3  -3  -3   47.36    1.91
   3   3  -3   51.68    1.91
  -3   3   3   50.80    1.85
  -3   3   3   49.62    1.85
  -3   3   3   46.74    1.79
   3   3  -3   51.07    1.73
   3   4   3   10.01    0.85
   3  -4  -3   11.88    0.94
   3  -4  -3   10.28    0.83
  -3  -4   3   10.94    0.94
  -3  -4   3   10.69    0.86
  -3   4  -3   10.66    0.91
  -3   4   3    8.93    0.84
   3  -4   3   10.74    0.93
  -3  -4  -3   11.14    0.95
  -3   4   3   10.19    0.80
   3   4  -3   11.51    0.95
  -3   4   3   10.90    0.84
   3   5   3    5.88    0.83
   3  -5  -3    5.29    0.77
  -3   5  -3    5.11    0.78
  -3   5   3    5.44    0.77
   3   5  -3    5.85    0.88
   3  -5   3    5.24    0.81
  -3  -5  -3    5.15    0.81
   4   0  -3  562.07   13.87
   4   0   3  566.73   13.78
  -4   0   3  540.87   13.85
   4   0   3  559.37   13.78
  -4   0  -3  558.67   13.79
  -4  -1   3  140.85    3.61
  -4  -1   3  136.59    3.91
   4  -1  -3  136.52    3.92
   4   1   3  141.37    3.92
  -4   1  -3  139.55    3.89
  -4   1   3  137.24    3.92
   4   1  -3  135.41    3.87
  -4   1   3  141.94    3.51
  -4  -1  -3  138.66    3.68
   4  -1   3  140.85    3.95
   4   1  -3  135.85    3.59
  -4  -1  -3  141.05    3.84
  -4   2  -3  150.96    4.45
   4  -2  -3  158.12    4.26
  -4  -2   3  164.86    4.61
  -4  -2   3  162.07    4.36
   4   2   3  155.07    4.51
   4  -2  -3  160.57    4.56
  -4   2   3  157.70    4.25
  -4  -2  -3  156.54    4.21
   4   2  -3  158.89    4.42
  -4  -2  -3  160.59    4.50
  -4   2   3  163.99    4.54
   4  -2   3  158.59    4.60
   4  -2   3  159.88    4.25
   4   3   3    0.47    0.27
  -4  -3   3    1.08    0.32
  -4   3  -3    0.99    0.33
   4  -3  -3    0.60    0.32
   4  -3  -3    1.10    0.34
  -4  -3   3    0.68    0.31
  -4   3   3    1.27    0.36
   4  -3   3    0.43    0.29
  -4   3   3    1.16    0.31
  -4   3   3    1.52    0.36
   4   3  -3    0.64    0.31
  -4  -3  -3    1.04    0.34
   4   3  -3    0.74    0.26
  -4   4  -3   11.09    0.93
  -4  -4   3    8.34    0.80
  -4  -4   3    8.52    0.85
   4  -4  -3    8.94    0.82
   4  -4  -3    9.49    0.91
   4   4   3    7.94    0.81
  -4   4   3    7.05    0.71
   4  -4   3    9.87    0.93
  -4   4   3    7.75    0.77
  -4  -4  -3    8.05    0.84
  -4   4   3    7.88    0.77
   4   4  -3    8.61    0.84
  -4   5  -3   32.78    1.88
   4   5   3   32.37    1.77
   4   5   3   36.31    1.97
  -4  -5  -3   34.61    1.96
   4   5  -3   32.32    1.85
   4  -5   3   33.32    1.89
  -4   5   3   33.77    1.81
   5   0   3   -0.27    0.14
  -5   0  -3   -0.24    0.12
   5   0  -3   -0.22    0.15
  -5   0   3   -0.06    0.18
  -5   0  -3   -0.14    0.12
  -5  -1   3   15.57    0.62
  -5  -1   3   15.59    0.89
  -5   1  -3   16.02    0.89
   5   1   3   15.95    0.88
  -5   1  -3   15.29    0.87
   5  -1  -3   14.59    0.86
   5  -1   3   14.62    0.87
  -5  -1  -3   13.97    0.72
   5  -1   3   15.91    0.82
   5   1  -3   14.92    0.60
  -5   1   3   15.80    0.89
  -5  -1  -3   13.81    0.76
   5   1  -3   14.30    0.84
  -5  -2   3   12.51    0.88
   5   2   3   11.87    0.83
  -5  -2   3   13.10    0.71
   5  -2  -3   12.84    0.85
  -5   2  -3   13.74    0.82
  -5   2  -3   11.48    0.86
  -5   2   3   13.60    0.67
  -5   2   3   13.77    0.87
  -5  -2  -3   12.65    0.70
   5   2  -3   12.23    0.80
   5  -2   3   14.23    0.76
  -5  -2  -3   11.73    0.77
   5   2  -3   12.51    0.70
   5  -2   3   14.18    0.95
   5  -3  -3   27.52    1.43
   5   3   3   24.39    1.33
  -5   3  -3   25.70    1.33
   5  -3  -3   25.16    1.35
  -5  -3   3   25.86    1.40
  -5  -3   3   26.22    1.29
   5   3  -3   26.16    1.26
   5  -3   3   26.17    1.45
  -5   3   3   29.50    1.40
   5   3  -3   26.87    1.30
  -5   3   3   29.03    1.43
  -5  -3  -3   26.02    1.37
  -5  -4   3   18.99    1.27
   5  -4  -3   20.96    1.35
  -5   4  -3   19.95    1.31
   5  -4  -3   21.35    1.32
   5   4   3   21.12    1.31
  -5  -4   3   19.45    1.28
   5  -4   3   21.82    1.40
  -5  -4  -3   20.84    1.35
   5   4  -3   21.80    1.32
  -5   4   3   21.45    1.33
   5  -5  -3    3.78    0.78
   5   5   3    4.74    0.88
   5   5   3    3.47    0.74
  -5   5  -3    5.61    0.83
   5  -5   3    3.31    0.74
   5   5  -3    3.93    0.77
  -5  -5  -3    4.52    0.89
  -6   0  -3  157.96    4.24
   6   0   3  156.17    4.40
  -6   0   3  152.05    4.46
  -6   0  -3  144.54    4.30
   6   0  -3  154.32    4.48
   6   1   3   64.59    2.25
  -6   1  -3   61.22    2.19
  -6  -1   3   61.91    2.24
   6  -1  -3   59.68    2.21
   6   1  -3   60.15    2.22
  -6   1   3   61.20    2.25
   6  -1   3   58.22    2.21
  -6  -1  -3   64.74    2.07
   6  -1   3   65.60    2.15
   6   2   3   29.66    1.46
  -6   2  -3   31.63    1.53
   6  -2  -3   29.06    1.43
  -6  -2   3   31.17    1.50
  -6   2  -3   30.60    1.39
   6   2  -3   31.01    1.44
  -6  -2  -3   31.76    1.28
   6   2  -3   27.61    1.16
   6  -2   3   30.88    1.31
  -6   2   3   30.46    1.49
   6  -2   3   29.10    1.51
  -6  -2  -3   30.47    1.37
  -6  -3   3    2.62    0.49
  -6   3  -3    3.82    0.55
  -6   3  -3    2.30    0.55
   6  -3  -3    3.80    0.61
   6   3   3    2.35    0.52
  -6  -3   3    3.47    0.66
   6  -3   3    1.92    0.52
  -6  -3  -3    3.62    0.53
  -6   3   3    3.56    0.65
   6   3  -3    2.26    0.50
  -6  -4   3    1.64    0.51
   6   4   3    1.91    0.59
  -6   4  -3    2.20    0.54
  -6   4  -3    1.50    0.53
   6  -4  -3    3.17    0.82
  -6  -4  -3    2.45    0.60
   6  -4   3    2.41    0.63
  -6   4   3    3.13    0.71
   6   4  -3    3.03    0.61
  -7   0  -3    0.06    0.18
   7   0  -3    0.09    0.23
  -7   0  -3    0.55    0.27
  -7   0   3    0.00    0.22
   7   0   3   -0.07    0.20
   7  -1  -3   33.24    1.58
   7   1   3   34.35    1.61
  -7   1  -3   34.35    1.60
  -7  -1   3   35.63    1.63
   7  -1   3   34.69    1.51
  -7  -1  -3   36.87    1.43
  -7   1   3   37.12    1.68
   7   1  -3   37.29    1.66
  -7   2  -3   79.03    2.86
  -7  -2   3   75.50    2.79
   7  -2  -3   71.33    2.72
   7   2   3   76.42    2.79
  -7  -2  -3   76.09    2.58
  -7   2   3   72.92    2.80
   7   2  -3   77.35    2.77
   7  -2   3   74.84    2.85
  -7   3  -3   72.62    2.87
  -7  -3   3   69.92    2.80
   7  -3  -3   69.35    2.75
   7   3   3   69.67    2.79
   7  -3   3   73.92    2.93
  -7   3   3   71.36    2.83
  -7  -3  -3   71.33    2.65
   7   3  -3   68.65    2.67
   7   4   3   40.58    2.07
  -7   4  -3   39.07    2.13
  -7   4   3   37.44    2.03
   7   4  -3   38.49    1.91
   7  -4   3   37.79    2.13
  -7  -4  -3   37.48    1.94
  -8   0   3   12.11    0.96
   8   0  -3   12.19    0.98
   8   0   3   13.38    0.98
  -8   0  -3   12.72    0.91
   8  -1  -3    3.24    0.55
   8   1   3    2.70    0.54
  -8   1  -3    4.06    0.60
  -8  -1   3    3.23    0.64
   8   1  -3    3.23    0.62
  -8  -1  -3    3.87    0.53
  -8   1   3    3.74    0.68
   8  -1   3    4.32    0.56
   8   2   3    4.28    0.69
  -8  -2   3    4.46    0.65
  -8   2  -3    4.19    0.70
   8  -2  -3    4.54    0.69
   8   2  -3    2.58    0.58
  -8   2   3    5.67    0.72
   8  -2   3    4.35    0.59
   8  -2   3    4.66    0.82
  -8  -3   3   -0.10    0.37
   8  -3  -3    0.03    0.37
   8   3   3    0.19    0.33
  -8   3  -3    0.22    0.36
   8  -3   3    0.06    0.34
   8   3  -3    0.02    0.31
  -8   3   3    0.27    0.42
  -8   4  -3    0.20    0.51
   8   4   3    0.62    0.48
   8  -4   3    0.60    0.54
  -8   4   3   -0.08    0.38
   8   4  -3    0.61    0.45
   9   0   3   -0.11    0.26
  -9   0  -3    0.05    0.27
  -9   0   3   -0.34    0.23
   9   0  -3    0.13    0.30
  -9  -1   3   16.18    1.18
   9  -1  -3   16.04    1.19
  -9   1  -3   16.44    1.20
   9   1   3   16.59    1.19
  -9   1   3   16.07    1.22
   9  -1   3   17.71    1.17
  -9  -1  -3   15.19    1.08
   9   1  -3   15.18    1.17
   9   2   3   35.54    1.90
   9  -2  -3   34.69    1.84
  -9   2  -3   33.32    1.89
  -9  -2   3   38.71    1.95
   9  -2   3   34.94    1.73
  -9   2   3   34.87    1.90
   9   2  -3   40.00    1.99
   9  -3  -3   79.80    3.15
  -9  -3   3   74.40    3.41
   9   3   3   74.14    3.12
  -9   3  -3   76.07    3.21
   9   3  -3   72.44    3.03
  -9   3   3   77.78    3.22
   9  -3   3   71.48    3.21
 -10   0  -3   41.23    1.97
 -10   0   3   38.60    1.97
  10   0  -3   38.51    2.01
  10   0   3   39.70    1.99
 -10  -1   3   37.68    1.99
  10  -1  -3   34.76    1.92
 -10   1  -3   35.20    1.91
  10   1   3   39.77    2.01
  10   1  -3   37.13    2.00
  10  -1   3   39.28    1.95
 -10   1   3   39.03    2.05
 -10  -1  -3   39.47    1.87
 -10  -2   3   16.35    1.34
  10  -2  -3   16.84    1.36
  10   2   3   17.51    1.40
 -10   2  -3   17.39    1.39
  10   2  -3   19.23    1.43
 -10   2   3   18.23    1.45
  11   0   3    0.00    0.36
 -11   0   3   -0.27    0.32
  11   0  -3    0.09    0.39
 -11   0  -3    0.07    0.33
 -11   1  -3    4.43    0.84
 -11  -1   3    6.24    0.92
  11   1   3    4.90    0.89
  11  -1  -3    5.52    0.86
 -11   1   3    6.45    0.93
  11   1  -3    5.93    1.02
  11  -1   3    5.21    0.79
   0   0  -4  382.57    9.34
   0   0   4  379.65    9.34
   0   1   4  431.07   10.68
   0   1  -4  435.95   10.66
   0  -1  -4  425.03   10.65
   0   1   4  414.70   10.51
   0   1  -4  442.04   10.47
   0  -1   4  436.16   10.72
   0   2   4  197.57    5.22
   0   2  -4  195.54    5.25
   0  -2  -4  187.24    5.21
   0  -2  -4  197.74    4.91
   0   2   4  193.87    4.89
   0   2  -4  198.98    4.77
   0  -2   4  192.47    5.28
   0  -3  -4   33.80    1.15
   0   3   4   31.19    1.35
   0  -3   4   31.94    1.42
   0  -3  -4   31.10    1.41
   0   3  -4   30.05    1.42
   0  -4   4    5.83    0.66
   0   4   4    6.71    0.66
   0  -4  -4    6.12    0.73
   0   4  -4    6.46    0.73
   0   5   4   94.66    3.61
   0  -5   4   97.68    3.48
   0  -5  -4   96.89    3.63
   0   5  -4   96.50    3.67
   1   0   4   -0.20    0.12
  -1   0   4   -0.34    0.12
  -1   0  -4   -0.19    0.17
   1   0  -4   -0.26    0.12
  -1   1  -4   29.92    1.09
   1   1   4   30.17    1.06
  -1  -1   4   27.58    1.10
   1  -1  -4   28.89    1.11
  -1  -1  -4   30.29    1.09
  -1   1   4   29.45    0.95
  -1   1   4   29.42    1.08
   1   1  -4   28.48    0.90
   1   1  -4   28.25    1.01
   1  -1   4   31.02    1.10
  -1  -2   4   53.88    1.86
  -1   2  -4   53.90    1.83
   1   2   4   53.98    1.78
   1  -2  -4   52.29    1.61
   1  -2  -4   51.10    1.83
   1  -2  -4   54.72    1.78
  -1  -2  -4   50.11    1.79
  -1   2   4   49.56    1.77
   1   2  -4   52.02    1.50
  -1   2   4   51.85    1.59
   1   2  -4   55.18    1.81
  -1  -2  -4   52.49    1.41
   1  -2   4   55.68    1.86
   1   3   4   65.95    2.24
  -1   3  -4   66.70    2.35
  -1  -3   4   61.33    2.28
   1  -3  -4   65.05    2.05
   1  -3  -4   64.36    2.27
   1  -3   4   68.02    2.35
  -1   3   4   66.05    2.24
  -1  -3  -4   64.11    1.88
  -1   3   4   66.70    2.06
   1   3  -4   64.87    2.31
  -1  -3  -4   62.26    2.30
  -1  -4   4   24.15    1.33
  -1   4  -4   22.05    1.35
   1  -4  -4   26.18    1.41
   1   4   4   23.36    1.26
  -1   4   4   25.41    1.38
  -1   4   4   22.91    1.24
   1  -4   4   22.80    1.33
   1   4  -4   26.76    1.45
  -1  -4  -4   24.21    1.39
   1   5   4   15.86    1.27
   1  -5  -4   12.65    1.18
  -1  -5   4   14.63    1.15
  -1   5  -4   14.83    1.24
  -1   5   4   13.55    1.19
  -1  -5  -4   14.93    1.24
   1   5  -4   16.20    1.28
   1  -5   4   14.02    1.15
   2   0  -4  145.00    3.83
   2   0   4  148.91    3.73
   2   0   4  148.44    4.15
  -2   0  -4  139.99    3.96
   2   0  -4  142.32    3.68
  -2   0   4  143.28    3.84
   2   1   4    6.28    0.45
  -2  -1   4    5.87    0.48
   2  -1  -4    7.06    0.37
  -2   1  -4    6.84    0.49
   2  -1  -4    7.79    0.53
  -2  -1  -4    6.90    0.25
   2  -1   4    6.84    0.31
  -2  -1  -4    7.21    0.49
   2   1  -4    6.56    0.40
   2  -1   4    6.69    0.47
  -2   1   4    6.45    0.42
   2   2   4   17.08    0.86
  -2  -2   4   17.19    0.93
   2  -2  -4   16.47    0.91
  -2   2  -4   17.80    0.91
  -2   2  -4   16.93    0.54
   2  -2  -4   16.36    0.79
   2  -2   4   17.25    0.55
  -2   2   4   16.03    0.77
   2   2  -4   16.12    0.82
  -2  -2  -4   16.72    0.90
   2   2  -4   16.43    0.70
  -2   2   4   18.14    0.89
  -2  -2  -4   17.54    0.54
   2  -2   4   16.62    0.89
   2  -3  -4   11.79    0.85
  -2   3  -4   13.24    0.88
   2   3   4   11.69    0.80
   2  -3  -4   13.95    0.84
  -2  -3   4   11.97    0.85
  -2   3   4   12.38    0.72
  -2  -3  -4   11.60    0.85
   2  -3   4   11.75    0.85
   2   3  -4   12.80    0.64
   2   3  -4   10.63    0.78
  -2   3   4   11.92    0.81
  -2  -4   4    6.25    0.70
   2   4   4    5.63    0.65
   2  -4  -4    5.78    0.70
   2  -4  -4    4.69    0.56
  -2   4  -4    5.64    0.69
   2   4  -4    6.21    0.70
   2  -4   4    5.55    0.67
  -2   4   4    6.68    0.66
  -2   4   4    3.99    0.61
  -2  -4  -4    5.31    0.68
  -2   5  -4   22.91    1.55
   2  -5  -4   22.04    1.50
   2   5   4   27.93    1.65
  -2  -5   4   24.60    1.47
   2   5   4   25.55    1.48
  -2  -5  -4   21.32    1.52
   2  -5   4   25.29    1.54
   2   5  -4   25.52    1.64
  -2   5   4   24.05    1.56
   3   0   4   -0.15    0.11
  -3   0   4   -0.30    0.13
   3   0  -4   -0.11    0.07
  -3   0  -4   -0.25    0.16
   3   0  -4   -0.24    0.12
   3   0   4   -0.13    0.12
   3   1   4   79.46    2.38
  -3   1  -4   77.39    2.42
  -3  -1   4   75.92    2.43
   3  -1  -4   79.94    2.10
   3  -1  -4   76.70    2.40
   3   1  -4   76.58    2.17
   3  -1   4   77.39    2.16
   3  -1   4   81.04    2.42
  -3  -1  -4   79.12    2.39
  -3  -1  -4   77.84    2.09
   3   1  -4   79.30    2.33
  -3   1   4   81.28    2.38
  -3   2  -4   91.62    2.77
   3  -2  -4   84.72    2.54
   3   2   4   83.56    2.71
   3  -2  -4   85.51    2.77
  -3  -2   4   88.63    2.83
  -3  -2  -4   85.94    2.29
   3  -2   4   88.04    2.37
  -3   2   4   86.30    2.66
   3  -2   4   91.90    2.82
  -3  -2  -4   85.47    2.75
   3   2  -4   87.03    2.62
   3   2  -4   89.80    2.58
   3  -3  -4  132.31    3.84
  -3  -3   4  126.35    3.98
   3  -3  -4  125.68    3.95
  -3   3  -4  135.35    4.01
   3   3   4  128.48    3.94
   3  -3  -4  131.78    3.85
  -3   3   4  134.63    3.83
  -3   3   4  132.74    3.93
   3  -3   4  126.34    3.99
   3   3  -4  124.59    3.86
  -3   3   4  127.43    3.83
   3   3  -4  133.49    3.69
  -3  -3  -4  124.02    3.98
  -3  -4   4   23.17    1.34
   3  -4  -4   28.55    1.45
   3   4   4   25.59    1.38
  -3   4  -4   24.55    1.43
  -3   4   4   27.02    1.37
  -3   4   4   24.81    1.36
  -3  -4  -4   26.38    1.48
   3   4  -4   26.97    1.46
   3  -4   4   25.79    1.48
  -3   4   4   24.10    1.28
   3   5   4   19.59    1.42
   3   5   4   19.88    1.30
  -3   5  -4   18.18    1.40
  -3  -5   4   19.44    1.79
   3  -5  -4   18.61    1.33
  -3   5   4   17.72    1.31
  -3  -5  -4   19.97    1.46
   3   5  -4   17.17    1.34
   3  -5   4   18.74    1.35
   4   0   4    3.37    0.36
  -4   0   4    4.43    0.43
  -4   0  -4    4.26    0.44
   4   0   4    3.77    0.37
   4   0  -4    3.12    0.39
   4  -1  -4    8.19    0.35
   4  -1  -4    7.89    0.60
  -4  -1   4    7.17    0.57
  -4   1  -4    7.79    0.61
   4   1   4    8.88    0.60
   4  -1   4    8.30    0.49
  -4  -1  -4    7.97    0.56
   4  -1   4    7.92    0.58
  -4  -1  -4    7.40    0.43
  -4   1   4    7.98    0.35
   4   1  -4    8.29    0.58
   4   1  -4    8.24    0.43
  -4   1   4    8.88    0.62
   4   2   4    4.85    0.51
   4  -2  -4    6.13    0.44
  -4   2  -4    4.44    0.48
   4  -2  -4    6.10    0.58
  -4  -2   4    4.54    0.56
   4  -2   4    6.03    0.60
   4  -2   4    5.67    0.40
  -4   2   4    5.63    0.53
  -4   2   4    5.82    0.43
  -4  -2  -4    4.74    0.36
  -4  -2  -4    5.32    0.52
   4   2  -4    6.28    0.52
   4  -3  -4    4.43    0.56
  -4   3  -4    5.29    0.59
  -4  -3   4    6.36    0.69
  -4  -3   4    4.92    0.53
   4  -3  -4    4.22    0.61
   4   3   4    5.60    0.60
  -4   3   4    4.87    0.58
  -4   3   4    5.88    0.56
  -4  -3  -4    5.09    0.60
   4   3  -4    5.90    0.54
   4   3  -4    4.75    0.52
  -4   3   4    4.30    0.52
   4  -3   4    4.22    0.59
   4  -4  -4    8.65    0.87
   4  -4  -4    9.97    0.87
   4  -4  -4    8.92    0.83
  -4  -4   4    9.34    0.88
   4   4   4   10.71    0.92
  -4   4  -4    9.63    0.93
  -4  -4  -4    9.43    0.91
  -4   4   4    9.09    0.82
  -4   4   4   10.78    0.87
   4  -4   4   11.21    1.01
   4   4  -4    9.14    0.87
  -4   4   4    9.58    0.84
  -4   5  -4    0.18    0.36
   4   5   4    0.78    0.45
   4   5  -4    0.24    0.38
  -4  -5  -4    0.65    0.45
  -4   5   4    0.11    0.33
   4  -5   4    0.18    0.40
   5   0   4   -0.09    0.13
   5   0   4    0.32    0.21
   5   0  -4   -0.05    0.16
  -5   0  -4   -0.06    0.13
  -5   0  -4    0.00    0.14
  -5   0   4   -0.04    0.18
   5  -1  -4   64.42    2.25
  -5  -1   4   61.90    2.22
   5   1   4   63.11    2.20
  -5   1  -4   62.25    2.20
  -5   1  -4   70.33    2.33
  -5  -1  -4   67.23    2.01
  -5  -1  -4   64.21    2.15
  -5   1   4   64.79    2.24
   5   1  -4   62.97    2.20
   5   1  -4   64.25    1.82
   5  -1   4   65.97    2.25
  -5   2  -4  125.09    3.91
  -5  -2   4  133.62    3.71
   5   2   4  125.06    3.95
  -5  -2   4  131.18    4.06
   5  -2  -4  133.07    4.03
   5  -2   4  136.11    4.08
  -5  -2  -4  128.82    3.91
   5   2  -4  134.84    3.90
   5   2  -4  133.09    3.68
   5  -2   4  136.91    3.70
  -5  -2  -4  131.86    3.62
  -5   2   4  129.83    3.97
  -5  -3   4  154.71    4.81
  -5  -3   4  155.83    4.56
   5  -3  -4  158.02    4.78
   5   3   4  157.00    4.76
  -5   3  -4  159.66    4.75
   5   3  -4  148.96    4.50
   5  -3   4  160.84    4.88
   5   3  -4  155.45    4.56
  -5  -3  -4  159.59    4.76
  -5   3   4  152.77    4.70
  -5  -4   4   64.07    2.62
   5  -4  -4   61.88    2.59
   5   4   4   65.83    2.63
  -5   4  -4   65.82    2.63
   5  -4   4   65.42    2.73
  -5  -4  -4   65.08    2.66
   5   4  -4   66.98    2.56
  -5   4   4   63.87    2.53
  -5   4   4   65.60    2.58
   5   5   4   28.62    1.67
  -5   5  -4   26.87    1.69
   5   5  -4   26.11    1.65
   5  -5   4   22.59    1.65
  -5  -5  -4   25.35    1.72
   6   0   4  235.50    6.39
  -6   0  -4  238.59    6.32
   6   0  -4  232.38    6.48
  -6   0   4  232.76    6.49
  -6   0  -4  240.38    6.33
   6   1   4  105.97    3.32
   6  -1  -4  106.63    3.35
  -6   1  -4  105.54    3.34
  -6   1  -4  100.88    3.27
  -6  -1   4   97.59    3.30
   6  -1   4  107.26    3.17
   6   1  -4  104.11    3.32
   6  -1   4  103.00    3.31
  -6  -1  -4  108.43    3.10
  -6  -1  -4  104.05    3.16
  -6   1   4  102.74    3.35
   6  -2  -4   45.26    1.89
   6   2   4   43.15    1.88
  -6  -2   4   47.10    1.96
  -6   2  -4   42.97    1.83
  -6   2  -4   47.06    1.98
   6  -2   4   47.73    1.71
   6  -2   4   44.54    1.96
  -6  -2  -4   43.74    1.79
  -6   2   4   43.59    1.89
   6   2  -4   45.40    1.85
   6   2  -4   44.72    1.56
   6  -3  -4    0.72    0.38
  -6   3  -4    1.08    0.40
  -6   3  -4    0.38    0.32
   6   3   4    0.88    0.39
  -6  -3   4    1.20    0.49
  -6  -3  -4    1.09    0.39
   6  -3   4    0.46    0.35
   6   3  -4    0.95    0.38
  -6   3   4    1.28    0.43
   6  -4  -4    9.12    0.98
  -6  -4   4    9.60    0.97
   6   4   4   10.81    1.01
  -6   4  -4    9.66    0.97
  -6   4  -4   10.32    1.04
  -6  -4  -4    8.19    0.90
  -6   4   4    8.23    0.91
   6  -4   4    8.87    0.99
   6   4  -4    9.96    0.90
   7   0  -4   -0.23    0.20
  -7   0   4    0.21    0.26
  -7   0  -4   -0.15    0.17
   7   0   4   -0.16    0.18
  -7   0  -4   -0.16    0.17
  -7   1  -4    4.04    0.55
   7   1   4    2.35    0.50
   7  -1  -4    2.89    0.55
  -7   1  -4    2.33    0.47
  -7  -1   4    3.16    0.58
   7  -1   4    2.13    0.50
   7  -1   4    2.33    0.44
   7   1  -4    2.69    0.51
  -7   1   4    2.60    0.56
  -7  -1  -4    3.29    0.49
  -7  -2   4   18.15    1.21
  -7   2  -4   18.11    1.19
   7   2   4   17.12    1.15
   7  -2  -4   17.44    1.14
  -7  -2  -4   16.71    1.04
   7   2  -4   16.31    1.09
   7  -2   4   17.50    1.01
  -7   2   4   17.67    1.17
   7  -2   4   15.77    1.16
  -7  -3   4    2.71    0.64
   7  -3  -4    1.77    0.53
   7   3   4    2.32    0.59
  -7   3  -4    1.62    0.52
   7  -3   4    1.30    0.49
  -7  -3  -4    3.33    0.63
   7   3  -4    2.24    0.54
  -7   3   4    3.38    0.64
  -7   4  -4    3.30    0.81
   7  -4  -4    2.29    0.65
   7   4   4    3.34    0.70
  -7  -4  -4    2.98    0.68
  -7   4   4    1.44    0.54
   7  -4   4    1.70    0.66
  -8   0   4  118.53    3.98
   8   0   4  125.36    3.95
   8   0  -4  123.53    4.04
  -8   0  -4  128.59    3.91
   8  -1  -4   60.28    2.51
   8   1   4   62.49    2.50
  -8  -1   4   65.94    2.57
  -8   1  -4   67.19    2.55
   8   1  -4   66.99    2.58
   8  -1   4   64.20    2.40
  -8   1   4   65.30    2.58
   8  -2  -4   18.22    1.23
   8   2   4   15.70    1.16
  -8  -2   4   19.17    1.27
  -8   2  -4   17.51    1.23
   8  -2   4   17.12    1.26
  -8   2   4   19.67    1.30
   8   2  -4   15.09    1.13
   8  -3  -4    1.64    0.56
   8   3   4    1.05    0.51
  -8   3  -4    1.76    0.59
  -8  -3   4    1.20    0.55
   8  -3   4    1.45    0.54
  -8   3   4    0.93    0.45
   8   3  -4    0.94    0.45
   8   4   4   14.56    1.33
  -8   4  -4   16.10    1.40
   8  -4   4   14.51    1.37
  -8   4   4   19.43    1.49
   9   0  -4    0.04    0.33
  -9   0  -4   -0.21    0.21
  -9   0   4   -0.28    0.25
   9   0   4    0.31    0.32
   9   1   4    3.66    0.69
  -9   1  -4    3.86    0.65
   9  -1  -4    5.16    0.76
  -9  -1   4    3.85    0.64
   9   1  -4    2.60    0.62
   9  -1   4    5.33    0.66
  -9   1   4    3.76    0.73
  -9   2  -4    7.62    0.94
   9  -2  -4   10.12    0.98
  -9  -2   4    7.40    0.92
   9   2   4    7.89    0.91
   9   2  -4    9.70    1.00
  -9   2   4    8.68    0.95
   9   3   4   12.44    1.18
  -9   3  -4   11.03    1.14
   9  -3  -4   12.79    1.23
  -9  -3   4   13.11    1.31
   9  -3   4   12.25    1.24
   9   3  -4   12.72    1.15
  -9   3   4   13.32    1.21
  10   0  -4   58.94    2.66
 -10   0   4   60.14    2.66
  10   0   4   64.00    2.64
 -10   0  -4   66.13    2.63
 -10   1  -4    9.43    0.97
  10  -1  -4    8.84    1.02
 -10  -1   4    8.53    0.95
  10   1   4   11.13    1.08
  10  -1   4    9.60    0.95
 -10   1   4    9.59    1.01
  10   1  -4    9.71    1.07
  10  -2  -4   10.09    1.09
 -10  -2   4   10.68    1.13
  10   2   4    9.24    1.07
 -10   2  -4   11.73    1.18
  10   2  -4    9.82    1.06
 -10   2   4   10.58    1.14
  11   0   4    0.11    0.38
  11   0  -4    0.25    0.45
 -11   0  -4   -0.02    0.33
 -11   0   4    0.07    0.38
 -11  -1   4    6.37    0.94
  11   1   4    6.90    0.93
  11  -1  -4    5.70    0.89
 -11   1  -4    5.18    0.80
  11  -1   4    6.17    0.90
  11   1  -4    7.29    1.05
 -11   1   4    6.40    0.97
   0   0  -5   -0.60    0.11
   0   0  -5   -0.18    0.22
   0   0   5   -0.60    0.14
   0   1   5   -0.17    0.05
   0   1  -5   -0.15    0.12
   0   1   5   -0.11    0.13
   0   1  -5   -0.04    0.07
   0  -1  -5   -0.11    0.13
   0  -1   5   -0.24    0.13
   0   2   5   -0.02    0.08
   0  -2   5    0.43    0.25
   0   2  -5    0.13    0.16
   0   2  -5    0.05    0.06
   0  -2  -5    0.01    0.15
   0   2   5   -0.03    0.14
   0   3  -5   -0.18    0.16
   0   3   5   -0.07    0.17
   0  -3  -5   -0.04    0.12
   0  -3   5   -0.24    0.16
   0  -3  -5    0.16    0.22
   0  -4  -5   -0.07    0.24
   0   4  -5    0.10    0.29
   0  -4   5   -0.18    0.25
   0   4   5   -0.09    0.22
   0   5  -5   -0.01    0.33
   0  -5  -5    0.30    0.37
   0   5   5    0.03    0.32
   0  -5   5   -0.06    0.35
   0   5   5   -0.03    0.25
   1   0  -5   -0.31    0.13
   1   0   5   -0.22    0.11
  -1   0  -5   -0.22    0.18
  -1   0   5   -0.24    0.12
  -1   1  -5  165.44    4.53
   1  -1  -5  172.69    4.59
   1   1   5  171.04    4.50
  -1  -1   5  166.68    4.58
  -1   1   5  168.84    4.52
   1   1  -5  171.15    4.46
  -1   1   5  165.65    4.32
   1  -1   5  168.69    4.13
   1   1  -5  168.72    4.28
  -1  -1  -5  175.22    4.55
   1  -1   5  169.72    4.54
   1  -2  -5  275.36    7.51
  -1   2  -5  280.42    7.62
   1  -2  -5  293.03    7.70
   1   2   5  297.31    7.05
  -1  -2   5  295.74    7.71
   1   2   5  292.62    7.59
  -1   2   5  293.22    7.32
   1   2  -5  296.46    7.60
  -1   2   5  288.27    7.63
   1   2  -5  294.59    7.20
  -1  -2  -5  297.25    7.65
   1  -2   5  297.76    7.67
   1  -3  -5  222.98    5.81
   1   3   5  222.30    6.12
  -1  -3   5  224.46    6.22
  -1   3  -5  215.04    6.21
   1  -3  -5  236.16    6.19
  -1   3   5  225.64    5.80
  -1   3   5  221.03    6.13
   1   3  -5  219.08    6.18
   1  -3   5  216.91    6.21
  -1  -3  -5  221.26    6.21
   1   4   5   81.15    2.83
  -1   4  -5   78.01    2.94
   1  -4  -5   77.46    2.88
  -1  -4   5   84.14    2.92
  -1  -4  -5   76.30    2.90
  -1   4   5   78.25    2.78
   1  -4   5   76.28    2.90
   1   4  -5   83.03    2.99
  -1   5  -5   14.09    1.23
   1   5   5   15.69    1.27
   1  -5  -5   14.09    1.23
   1   5   5   15.89    1.13
  -1  -5   5   15.46    1.21
  -1  -5  -5   14.60    1.27
   1  -5   5   14.65    1.18
   1   5  -5   13.69    1.21
  -1   5   5   18.65    1.36
   2   0   5  488.68   11.64
  -2   0   5  484.63   11.78
   2   0  -5  478.04   11.76
  -2   0  -5  447.93   11.92
   2   0  -5  476.57   11.64
  -2  -1   5  117.95    3.43
   2   1   5  121.24    3.33
  -2   1  -5  121.07    3.43
   2  -1  -5  122.13    3.17
   2  -1  -5  116.50    3.40
  -2  -1  -5  121.41    2.92
   2   1  -5  117.86    3.20
   2  -1   5  120.42    3.03
  -2   1   5  117.69    3.25
   2  -1   5  118.41    3.35
  -2  -1  -5  115.79    3.37
   2  -2  -5  134.31    3.85
  -2  -2   5  137.69    4.09
   2   2   5  142.96    4.00
   2  -2  -5  140.88    4.08
  -2   2  -5  134.72    4.02
   2   2  -5  140.68    3.93
   2   2  -5  142.07    3.72
  -2  -2  -5  135.41    4.01
  -2   2   5  144.50    4.03
   2  -2   5  143.76    4.08
  -2   2   5  142.25    3.82
  -2  -3   5    0.68    0.29
   2  -3  -5    0.40    0.25
   2   3   5    0.78    0.30
   2  -3  -5    0.66    0.28
   2  -3  -5    0.54    0.22
  -2   3  -5    0.71    0.30
  -2   3   5    0.63    0.23
   2  -3   5    0.51    0.28
   2   3  -5    0.53    0.26
  -2  -3  -5    0.93    0.34
  -2   3   5    0.36    0.25
   2  -4  -5    0.27    0.29
  -2   4  -5    0.63    0.36
   2   4   5    0.24    0.30
  -2  -4   5    0.70    0.37
  -2  -4  -5    0.43    0.33
   2  -4   5    0.44    0.31
  -2   4   5    0.68    0.32
   2   4  -5    0.36    0.34
  -2   4   5    0.81    0.34
  -2   5  -5   28.61    1.79
   2   5   5   32.37    1.73
  -2  -5   5   31.17    1.72
   2  -5  -5   29.93    1.75
  -2  -5  -5   31.75    1.85
   2  -5   5   32.99    1.81
   2   5  -5   29.45    1.79
  -2   5   5   32.96    1.83
  -3   0  -5    0.03    0.17
   3   0  -5    0.01    0.14
   3   0  -5    0.06    0.09
   3   0   5    0.12    0.14
   3   0   5   -0.01    0.11
  -3   0   5   -0.01    0.16
   3  -1  -5   95.61    2.49
   3  -1  -5   90.76    2.82
  -3  -1   5   93.91    2.86
  -3   1  -5   94.58    2.88
   3   1   5   94.96    2.77
  -3  -1  -5   92.99    2.43
   3  -1   5   92.50    2.52
   3   1  -5   92.63    2.70
  -3   1   5   92.65    2.74
   3   1  -5   94.07    2.57
  -3  -1  -5   93.31    2.81
   3  -1   5   91.95    2.78
   3  -2  -5   15.45    0.91
   3   2   5   13.82    0.84
  -3  -2   5   13.20    0.88
   3  -2  -5   14.31    0.72
  -3   2  -5   14.97    0.88
   3  -2   5   14.76    0.56
  -3  -2  -5   14.58    0.45
  -3   2   5   15.72    0.81
   3   2  -5   15.21    0.74
   3   2  -5   15.62    0.80
  -3  -2  -5   14.32    0.86
   3  -2   5   14.74    0.88
  -3   3  -5   79.56    2.84
   3  -3  -5   84.72    2.71
  -3  -3   5   82.69    2.89
   3   3   5   80.79    2.80
   3  -3  -5   85.07    2.89
   3   3  -5   84.50    2.51
  -3  -3  -5   82.14    2.85
  -3   3   5   80.85    2.64
  -3   3   5   84.16    2.82
  -3   3   5   79.14    2.65
   3  -3   5   82.17    2.87
   3   3  -5   82.87    2.75
  -3  -4   5    1.35    0.44
  -3   4  -5    0.84    0.40
   3  -4  -5    1.84    0.51
   3   4   5    0.73    0.36
  -3  -4  -5    1.41    0.45
  -3   4   5    0.68    0.37
   3  -4   5    0.94    0.41
  -3   4   5    0.36    0.30
   3   4  -5    1.10    0.42
  -3  -5   5    1.77    0.58
   3  -5  -5    2.58    0.65
   3   5   5    3.06    0.64
  -3   5  -5    2.60    0.66
   3   5  -5    2.77    0.69
  -3   5   5    1.71    0.55
   3  -5   5    1.83    0.61
  -3  -5  -5    2.56    0.68
  -4   0   5  619.92   15.38
   4   0  -5  630.12   14.79
   4   0   5  617.78   15.20
   4   0  -5  628.59   15.36
  -4   0  -5  586.26   15.40
   4   0   5  618.96   15.23
  -4  -1   5  185.38    5.11
   4  -1  -5  184.74    4.57
   4   1   5  178.39    5.00
  -4   1  -5  186.69    5.17
   4  -1  -5  179.50    5.07
   4  -1   5  187.97    5.05
  -4   1   5  178.46    5.01
   4   1  -5  185.26    4.99
  -4  -1  -5  186.12    5.04
   4   1  -5  183.14    4.69
  -4  -1  -5  181.59    4.69
   4  -1   5  179.06    4.78
  -4   2  -5  175.97    4.89
   4  -2  -5  171.45    4.52
  -4  -2   5  165.62    4.93
   4  -2  -5  171.16    4.92
   4   2   5  167.39    4.85
  -4   2   5  170.96    4.51
   4  -2   5  169.34    4.43
  -4  -2  -5  166.12    4.82
   4   2  -5  170.04    4.68
   4  -2   5  164.61    4.89
  -4   2   5  172.10    4.80
   4   3   5    6.72    0.68
   4  -3  -5    6.82    0.74
  -4   3  -5    7.24    0.70
  -4  -3   5    5.57    0.66
  -4  -3  -5    5.69    0.64
   4   3  -5    7.39    0.66
  -4   3   5    8.62    0.75
   4  -3   5    7.11    0.73
  -4   3   5    7.24    0.61
  -4   3   5    5.65    0.59
   4  -4  -5    6.26    0.72
  -4   4  -5    8.68    0.88
   4  -4  -5    5.90    0.80
  -4  -4   5    6.05    0.77
   4   4   5    6.97    0.79
   4  -4   5    7.26    0.86
   4   4  -5    7.10    0.78
  -4   4   5    6.65    0.75
  -4   4   5    8.29    0.78
  -4  -4  -5    6.87    0.83
  -4   4   5    5.86    0.70
  -4   5  -5   21.70    1.55
   4   5   5   19.19    1.38
   4  -5  -5   23.49    1.50
   4   5  -5   22.10    1.50
   4  -5   5   24.34    1.64
   5   0   5   -0.14    0.13
  -5   0  -5   -0.12    0.15
   5   0   5    0.08    0.15
  -5   0   5    0.00    0.18
   5   0  -5    0.11    0.20
  -5   0  -5    0.01    0.17
  -5   1  -5    0.21    0.23
  -5   1  -5    0.19    0.21
   5   1   5   -0.04    0.20
  -5  -1   5   -0.12    0.17
   5  -1  -5   -0.14    0.17
  -5   1   5    0.34    0.21
   5   1  -5    0.11    0.11
  -5  -1  -5    0.14    0.20
  -5  -1  -5   -0.04    0.12
   5  -1   5   -0.03    0.18
   5   1  -5    0.02    0.19
   5   2   5   19.05    1.08
   5  -2  -5   16.68    1.05
  -5  -2   5   16.76    1.08
  -5   2   5   16.28    0.99
   5  -2   5   18.39    0.85
   5   2  -5   17.11    0.97
  -5  -2  -5   17.37    1.00
   5   2  -5   17.01    0.85
   5  -2   5   17.71    1.07
  -5   3  -5   11.67    0.93
   5  -3  -5   11.68    0.93
  -5  -3   5   12.00    0.99
   5   3   5   10.15    0.89
   5   3  -5   11.86    0.81
  -5  -3  -5   10.53    0.87
   5  -3   5   10.44    0.92
  -5   3   5    9.90    0.82
   5   3  -5   11.21    0.80
   5  -4  -5   22.59    1.47
   5   4   5   25.87    1.52
  -5   4  -5   24.80    1.52
  -5  -4   5   22.82    1.49
   5  -4   5   24.68    1.57
  -5   4   5   28.69    1.51
   5   4  -5   24.03    1.39
  -5   4   5   24.58    1.46
  -5  -4  -5   27.84    1.60
   5   5   5    8.10    0.95
  -5   5  -5    7.84    0.98
   5   5  -5    6.17    0.89
  -5  -5  -5    6.34    0.97
   5  -5   5    9.03    1.09
  -6   0  -5  126.22    3.67
   6   0  -5  119.54    3.81
  -6   0  -5  125.14    3.73
  -6   0   5  126.70    3.84
   6   0   5  126.05    3.73
  -6   1  -5   64.54    2.36
  -6   1  -5   60.09    2.22
  -6  -1   5   61.80    2.30
   6   1   5   60.80    2.24
   6  -1  -5   58.51    2.26
  -6   1   5   60.36    2.27
   6  -1   5   60.31    2.24
  -6  -1  -5   64.16    2.04
   6   1  -5   63.48    2.27
  -6  -1  -5   61.68    2.18
   6   2   5   48.77    2.03
  -6   2  -5   52.20    2.06
  -6   2  -5   48.16    2.04
  -6  -2   5   46.57    2.06
   6  -2  -5   46.05    2.00
  -6  -2  -5   47.09    1.91
   6   2  -5   48.84    1.95
   6  -2   5   50.11    2.10
   6  -2   5   52.95    1.80
  -6   2   5   44.41    1.95
   6   3   5    6.47    0.76
  -6  -3   5    6.94    0.85
  -6   3  -5    6.11    0.73
   6  -3  -5    6.42    0.78
  -6   3   5    5.30    0.70
   6   3  -5    6.57    0.70
  -6  -3  -5    6.73    0.72
   6  -3   5    6.20    0.77
   6   3  -5    6.20    0.63
   6   4   5    2.62    0.61
  -6  -4   5    2.74    0.67
   6  -4  -5    2.29    0.58
  -6   4  -5    2.60    0.66
  -6   4   5    2.04    0.56
  -6  -4  -5    1.88    0.55
   6  -4   5    3.43    0.77
  -6   4   5    1.92    0.52
   6   4  -5    2.00    0.50
   7   0  -5    0.14    0.27
  -7   0  -5   -0.24    0.15
   7   0   5    0.04    0.21
  -7   0   5   -0.06    0.23
  -7   0  -5    0.03    0.19
   7  -1  -5    8.58    0.81
  -7  -1   5    9.07    0.82
  -7   1  -5    9.44    0.79
   7   1  -5    7.11    0.75
  -7   1   5    9.03    0.82
   7  -1   5   10.11    0.84
  -7  -1  -5    9.34    0.68
   7  -1   5    9.77    0.74
  -7  -1  -5    8.01    0.69
   7  -2  -5   32.09    1.62
  -7   2  -5   31.48    1.62
  -7  -2   5   30.72    1.63
   7   2   5   29.86    1.57
  -7   2  -5   29.67    1.59
  -7   2   5   30.03    1.59
   7   2  -5   28.46    1.49
   7  -2   5   27.73    1.58
  -7  -2  -5   30.67    1.47
   7  -3  -5   65.13    2.62
  -7  -3   5   61.28    2.63
  -7   3  -5   55.20    2.53
   7   3   5   61.14    2.56
  -7  -3  -5   57.69    2.39
   7  -3   5   60.74    2.65
  -7   3   5   59.78    2.52
   7   3  -5   57.79    2.37
   7  -4  -5   30.71    1.88
  -7  -4   5   32.96    1.90
   7   4   5   32.89    1.88
  -7   4  -5   29.65    1.87
  -7   4   5   31.87    1.99
   7  -4   5   31.71    1.94
  -7   4   5   31.15    1.82
  -7  -4  -5   32.05    1.80
   8   0  -5    2.99    0.60
  -8   0   5    3.53    0.67
  -8   0  -5    3.06    0.50
   8   0   5    2.20    0.51
  -8   1  -5    6.90    0.74
   8   1   5    8.62    0.82
  -8  -1   5    6.67    0.76
   8  -1  -5    9.26    0.86
  -8   1   5    7.97    0.83
   8   1  -5    8.26    0.84
  -8  -1  -5    7.44    0.70
   8  -1   5    8.23    0.76
   8  -2  -5    1.36    0.46
   8   2   5    1.00    0.45
  -8   2  -5    2.31    0.56
  -8  -2   5    2.01    0.54
   8   2  -5    1.93    0.53
  -8   2   5    0.80    0.40
   8  -2   5    1.19    0.47
   8  -3  -5    1.32    0.56
  -8   3  -5    2.36    0.64
  -8  -3   5    4.43    0.86
   8   3   5    3.51    0.78
   8  -3   5    2.78    0.71
  -8  -3  -5    4.34    0.82
   8   3  -5    3.27    0.69
  -8   3   5    2.87    0.65
   8   4   5    0.47    0.47
  -8   4  -5    1.51    0.65
   8  -4  -5    0.29    0.49
  -8   4   5    0.36    0.47
  -8  -4  -5    0.66    0.47
   8  -4   5    1.29    0.66
   9   0  -5    0.00    0.30
  -9   0   5   -0.03    0.28
   9   0   5    0.01    0.25
  -9   0  -5    0.05    0.24
  -9  -1   5   15.67    1.20
   9   1   5   19.61    1.30
  -9   1  -5   17.61    1.23
   9  -1  -5   15.26    1.21
   9   1  -5   14.13    1.17
  -9   1   5   15.45    1.21
   9  -1   5   18.08    1.17
  -9  -2   5   58.20    2.61
   9   2   5   53.78    2.50
  -9   2  -5   59.91    2.60
   9  -2  -5   54.97    2.51
   9  -2   5   56.33    2.62
  -9   2   5   57.88    2.60
   9   2  -5   63.58    2.63
   9  -3  -5   54.60    2.62
  -9   3  -5   54.45    2.65
   9   3   5   53.73    2.57
  -9  -3   5   56.24    2.71
  -9   3   5   56.58    2.65
   9   3  -5   51.21    2.46
   9  -3   5   59.75    2.80
 -10   0   5   44.81    2.28
  10   0  -5   49.05    2.35
  10   0   5   48.41    2.24
 -10   0  -5   48.80    2.18
  10  -1  -5   58.63    2.64
  10   1   5   59.84    2.62
 -10   1  -5   58.04    2.59
 -10  -1   5   60.16    2.69
  10  -1   5   58.27    2.48
 -10   1   5   58.88    2.68
  10   1  -5   60.18    2.68
  10  -2  -5    5.59    0.89
  10   2   5    6.07    0.88
 -10   2  -5    5.79    0.89
 -10  -2   5    6.71    0.95
 -10   2   5    6.39    0.96
  10   2  -5    5.40    0.85
 -11   0   5    0.07    0.42
 -11   0  -5   -0.07    0.34
  11   0  -5   -0.02    0.42
  11   0   5   -0.17    0.36
  11  -1  -5    0.42    0.42
  11   1   5   -0.13    0.41
 -11   1  -5   -0.29    0.28
 -11  -1   5    0.05    0.39
 -11   1   5    0.50    0.48
  11   1  -5    0.47    0.45
  11  -1   5    0.59    0.46
   0   0  -6  178.64    4.91
   0   0   6  179.57    4.73
   0   0  -6  188.81    4.75
   0   1   6   97.28    2.58
   0   1  -6  100.22    2.88
   0  -1   6   97.41    2.90
   0  -1   6   97.51    2.54
   0  -1  -6  101.20    2.86
   0   1   6   97.36    2.85
   0   1  -6  100.95    2.57
   0   2   6   32.68    1.35
   0  -2  -6   31.86    1.33
   0   2   6   33.12    1.01
   0  -2   6   34.48    1.42
   0   2  -6   32.63    1.36
   0  -3  -6    0.98    0.35
   0   3   6    0.80    0.30
   0   3  -6    0.43    0.26
   0  -3   6    1.04    0.34
   0   4   6    6.11    0.71
   0  -4   6    5.62    0.72
   0   4  -6    6.71    0.76
   0  -4  -6    6.26    0.71
   0   5   6   29.88    1.66
   0  -5   6   30.75    1.77
   0  -5  -6   33.08    1.87
   0   5  -6   33.75    1.92
   0   5   6   29.86    1.78
  -1   0  -6   -0.34    0.18
   1   0   6   -0.27    0.11
  -1   0   6   -0.29    0.13
   1   0  -6   -0.16    0.13
   1   1   6   78.72    2.33
  -1  -1   6   76.77    2.39
   1  -1  -6   74.58    2.37
  -1   1  -6   75.96    2.38
   1   1   6   78.39    1.94
   1  -1  -6   80.77    2.27
   1  -1   6   75.78    1.96
   1   1  -6   75.19    2.10
   1   1  -6   78.28    2.29
   1  -1   6   74.65    2.33
  -1  -1  -6   80.46    2.40
  -1   1   6   65.85    2.10
  -1   1   6   75.81    2.33
   1  -2  -6   37.11    1.41
  -1   2  -6   36.83    1.50
   1   2   6   38.19    1.49
  -1  -2   6   34.46    1.52
   1  -2  -6   39.39    1.59
   1   2  -6   38.20    1.13
   1  -2   6   34.58    1.48
   1   2  -6   35.92    1.44
  -1   2   6   38.28    1.51
  -1  -2  -6   39.38    1.52
  -1   2   6   38.84    1.24
  -1   3  -6   20.29    1.15
  -1  -3   6   19.38    1.15
   1  -3  -6   21.48    1.11
   1   3   6   19.03    1.08
  -1  -3  -6   22.38    1.19
  -1   3   6   19.96    1.11
   1   3  -6   20.61    1.14
   1  -3   6   20.60    1.17
  -1   4  -6   25.04    1.46
  -1  -4   6   27.01    1.48
   1   4   6   26.95    1.43
   1  -4  -6   28.69    1.49
   1  -4   6   22.67    1.39
  -1   4   6   23.51    1.35
  -1  -4  -6   26.81    1.49
   1   4  -6   26.56    1.47
   1   5   6    1.27    0.48
   1  -5  -6    0.89    0.46
  -1   5  -6    0.65    0.44
  -1  -5   6    0.42    0.42
  -1   5   6    0.57    0.40
  -1   5   6    1.28    0.44
   1  -5   6    1.55    0.55
  -1  -5  -6    1.28    0.51
   1   5  -6    1.18    0.53
   2   0   6    3.19    0.31
   2   0  -6    1.77    0.30
   2   0  -6    2.60    0.30
  -2   0  -6    3.29    0.43
  -2   0   6    3.03    0.33
  -2   1  -6   38.68    1.50
   2   1   6   38.32    1.02
   2  -1  -6   37.82    1.45
   2   1   6   37.05    1.37
  -2  -1   6   38.86    1.48
   2  -1  -6   38.61    1.26
   2   1  -6   37.23    1.27
   2  -1   6   37.30    1.40
  -2  -1  -6   37.08    1.46
   2  -1   6   39.01    1.11
  -2   1   6   37.75    1.30
  -2  -1  -6   37.74    1.01
   2  -2  -6   82.98    2.48
  -2   2  -6   75.39    2.61
   2   2   6   82.06    2.60
  -2  -2   6   82.17    2.71
   2  -2  -6   80.97    2.68
  -2   2   6   81.02    2.39
   2   2  -6   81.44    2.53
   2   2  -6   80.19    2.29
   2  -2   6   79.41    2.64
  -2   2   6   80.70    2.61
  -2  -2  -6   76.10    2.59
  -2  -3   6    6.31    0.67
   2   3   6    6.84    0.65
   2  -3  -6    7.44    0.64
  -2   3  -6    6.08    0.65
   2   3  -6    6.46    0.62
  -2   3   6    6.95    0.69
  -2   3   6    7.05    0.53
   2  -3   6    8.28    0.75
  -2  -3  -6    6.75    0.67
   2  -4  -6    4.68    0.63
  -2  -4   6    4.80    0.69
  -2   4  -6    4.01    0.63
   2   4   6    3.48    0.56
  -2  -4  -6    5.17    0.69
   2  -4   6    4.98    0.70
  -2   4   6    4.55    0.63
   2   4  -6    4.35    0.67
  -2   5  -6   62.12    2.84
   2  -5  -6   61.66    2.73
  -2  -5   6   69.66    2.80
   2   5   6   67.61    2.71
   2   5  -6   65.93    2.84
   2  -5   6   60.22    2.72
  -2   5   6   65.80    2.78
  -2  -5  -6   68.40    2.91
   3   0   6   -0.01    0.12
   3   0   6    0.08    0.11
   3   0  -6    0.05    0.15
   3   0  -6   -0.03    0.10
  -3   0   6   -0.05    0.14
  -3   0  -6    0.24    0.20
   3  -1  -6   22.85    1.10
  -3  -1   6   25.62    1.17
   3   1   6   23.56    1.05
   3  -1  -6   25.12    0.86
  -3   1  -6   25.11    1.18
   3   1  -6   24.30    1.00
  -3  -1  -6   24.40    1.13
   3  -1   6   24.28    1.07
  -3  -1  -6   22.84    0.75
   3  -1   6   23.66    0.84
  -3   1   6   22.02    1.00
   3   1  -6   23.86    0.92
  -3  -2   6  108.43    3.42
   3  -2  -6  103.33    3.05
   3   2   6  104.83    3.29
   3  -2  -6  110.71    3.42
  -3   2  -6  105.60    3.35
   3  -2   6  106.07    3.35
  -3  -2  -6  104.71    3.33
   3  -2   6  109.09    2.77
  -3   2   6  111.32    3.18
   3   2  -6  111.43    3.09
   3   2  -6  108.43    3.18
  -3   3  -6  143.94    4.63
   3  -3  -6  151.05    4.68
   3   3   6  158.47    4.63
  -3  -3   6  148.14    4.69
   3  -3  -6  163.67    4.48
  -3  -3  -6  152.81    4.65
  -3   3   6  151.20    4.61
   3   3  -6  157.26    4.54
  -3   3   6  159.31    4.40
   3  -3   6  151.13    4.68
   3   4   6   79.58    2.94
  -3   4  -6   80.78    3.05
  -3  -4   6   74.79    2.93
   3  -4  -6   77.03    2.83
   3   4  -6   76.42    2.89
  -3   4   6   78.38    2.84
  -3  -4  -6   79.36    3.00
   3  -4   6   77.63    2.99
  -3   4   6   79.24    2.90
   3  -5  -6   27.48    1.65
   3   5   6   25.65    1.60
  -3   5  -6   24.36    1.70
  -3  -5   6   27.80    1.68
  -3   5   6   26.04    1.61
   3   5  -6   26.19    1.65
   3  -5   6   27.63    1.71
  -3  -5  -6   25.69    1.69
   4   0  -6    3.35    0.41
  -4   0   6    3.84    0.46
   4   0   6    2.80    0.35
  -4   0  -6    4.02    0.50
   4   0  -6    3.40    0.22
   4   0   6    3.35    0.38
  -4  -1   6   15.90    0.94
   4   1   6   16.65    0.89
   4  -1  -6   16.22    0.93
   4  -1  -6   17.34    0.63
  -4   1  -6   17.65    1.03
  -4   1   6   16.24    0.89
   4  -1   6   17.04    0.75
   4  -1   6   18.32    0.93
  -4  -1  -6   17.53    0.96
   4   1  -6   17.57    0.73
   4   1  -6   18.02    0.90
  -4  -1  -6   17.86    0.70
   4   2   6    0.36    0.23
  -4   2  -6    0.66    0.27
   4  -2  -6    0.41    0.26
  -4  -2   6    0.95    0.37
   4  -2  -6    0.47    0.19
  -4  -2  -6    0.66    0.28
  -4   2   6    0.48    0.24
   4   2  -6    0.60    0.24
   4   2  -6    0.73    0.24
   4  -2   6    0.34    0.16
   4  -2   6    0.48    0.26
   4  -3  -6   10.45    0.76
   4   3   6   12.99    0.94
  -4  -3   6   11.12    0.95
  -4   3  -6   12.26    0.93
   4  -3  -6   10.52    0.90
  -4   3   6   12.29    0.83
  -4  -3  -6    9.00    0.81
   4   3  -6    9.78    0.76
  -4   3   6   12.57    0.79
   4  -3   6   10.69    0.90
   4   3  -6   11.54    0.81
  -4   3   6   10.64    0.85
  -4   4  -6    9.26    0.95
   4   4   6   10.97    0.99
   4  -4  -6   10.53    0.87
  -4  -4   6    7.84    0.90
   4  -4  -6    9.51    0.98
  -4   4   6    8.50    0.80
  -4   4   6    9.49    0.90
   4  -4   6    9.74    0.97
  -4  -4  -6    9.20    0.94
   4   4  -6   10.00    0.88
  -4   5  -6    1.37    0.58
   4   5   6    2.11    0.61
   4  -5  -6    1.07    0.51
  -4  -5   6    1.48    0.54
  -4  -5  -6    1.36    0.57
   4   5  -6    2.16    0.66
   4  -5   6    1.37    0.58
   5   0   6   -0.19    0.14
  -5   0   6    0.03    0.19
   5   0   6    0.03    0.14
   5   0  -6   -0.06    0.16
  -5   0  -6    0.15    0.22
  -5  -1   6   72.90    2.57
  -5   1  -6   71.89    2.68
   5   1   6   74.88    2.50
   5  -1  -6   67.86    2.51
   5   1  -6   76.71    2.12
  -5  -1  -6   75.82    2.21
   5  -1   6   73.79    2.51
  -5   1   6   76.61    2.55
   5   1  -6   78.71    2.53
  -5  -1  -6   78.40    2.55
   5  -1   6   72.46    2.29
  -5   2  -6  204.35    7.03
   5  -2  -6  205.43    5.90
  -5  -2   6  201.68    5.92
   5   2   6  204.93    5.81
  -5  -2  -6  198.66    5.77
  -5   2   6  202.46    5.75
   5   2  -6  209.67    5.46
   5  -2   6  203.27    5.86
   5   2  -6  204.54    5.65
  -5   3  -6  107.57    3.62
   5  -3  -6  109.70    3.70
  -5  -3   6  110.18    3.73
   5   3   6  106.49    3.59
  -5   3   6  107.54    3.60
   5   3  -6  105.09    3.33
  -5  -3  -6  109.79    3.62
   5  -3   6  104.29    3.67
   5   3  -6  104.81    4.18
  -5   3   6  102.25    3.46
  -5   4  -6   56.65    2.49
   5  -4  -6   55.56    2.47
   5   4   6   58.67    2.47
  -5  -4   6   54.00    2.46
  -5   4   6   57.31    2.31
   5  -4   6   52.43    2.47
  -5   4   6   55.31    2.38
  -5  -4  -6   55.35    2.44
   5   4  -6   50.83    2.24
   5   5   6   17.04    1.39
  -5   5  -6   16.45    1.40
   5   5  -6   16.27    1.29
  -5  -5  -6   18.19    1.48
   5  -5   6   16.58    1.45
   6   0   6  302.32    8.03
   6   0   6  305.92    8.06
   6   0  -6  295.39    8.19
  -6   0  -6  315.30    8.14
  -6   0   6  296.52    8.24
  -6   0  -6  316.04    8.20
  -6   1  -6  154.40    4.79
   6  -1  -6  156.51    4.72
  -6   1  -6  167.90    4.68
  -6  -1   6  151.52    4.69
   6   1   6  148.20    4.59
   6   1  -6  161.30    4.67
  -6  -1  -6  163.51    4.35
  -6  -1  -6  157.43    4.60
   6  -1   6  156.24    4.66
  -6  -2   6   37.31    1.81
   6   2   6   36.65    1.70
  -6   2  -6   33.99    1.71
   6  -2  -6   38.17    1.78
   6   2  -6   36.90    1.63
   6  -2   6   35.98    1.74
  -6   2   6   36.48    1.70
  -6  -2  -6   37.16    1.66
   6   3   6    4.33    0.69
  -6  -3   6    4.98    0.78
  -6   3  -6    4.29    0.67
   6  -3  -6    4.52    0.71
   6  -3   6    4.87    0.70
  -6  -3  -6    3.77    0.68
   6   3  -6    4.66    0.60
  -6   3   6    5.70    0.69
  -6   4  -6   11.98    1.11
  -6  -4   6   10.93    1.11
   6   4   6   12.05    1.14
   6  -4  -6   13.75    1.22
   6  -4   6   11.80    1.18
  -6   4   6   11.48    1.06
  -6  -4  -6   10.90    1.04
  -6   4   6   12.74    1.08
  -7   0  -6   -0.02    0.19
   7   0   6   -0.13    0.20
   7   0  -6   -0.09    0.20
  -7   0  -6    0.09    0.23
  -7   0   6    0.14    0.26
  -7   1  -6    0.90    0.35
  -7  -1   6    1.02    0.38
   7  -1  -6    0.16    0.27
  -7   1  -6    0.96    0.40
   7   1   6    1.23    0.41
  -7  -1  -6    0.68    0.28
   7  -1   6    0.63    0.27
  -7   1   6    0.39    0.28
   7   1  -6    0.33    0.27
  -7  -1  -6    1.25    0.36
   7  -1   6    0.39    0.30
   7  -2  -6    0.45    0.34
  -7  -2   6    0.17    0.33
  -7   2  -6    1.38    0.43
   7   2   6    0.85    0.37
  -7   2  -6    1.10    0.44
  -7   2   6    0.90    0.37
  -7  -2  -6    1.16    0.38
   7  -2   6    1.04    0.41
   7   2  -6    0.80    0.35
   7   3   6    7.57    0.86
  -7   3  -6    4.69    0.74
   7  -3  -6    7.35    0.89
  -7  -3   6    5.38    0.84
   7   3  -6    5.43    0.72
  -7   3   6    7.05    0.83
   7  -3   6    5.82    0.82
  -7  -3  -6    5.74    0.75
   7  -4  -6    1.69    0.60
  -7   4  -6    1.88    0.65
   7   4   6    2.16    0.67
  -7  -4   6    1.72    0.62
  -7  -4  -6    1.85    0.54
  -7   4   6    1.08    0.46
   7  -4   6    2.09    0.63
  -7   4   6    2.20    0.60
   8   0  -6  105.87    3.65
   8   0   6  106.61    3.52
  -8   0   6  106.50    3.70
  -8   0  -6  107.57    3.46
  -8   1  -6   20.27    1.24
  -8  -1   6   17.16    1.23
   8   1   6   19.33    1.23
   8  -1  -6   18.30    1.25
  -8  -1  -6   20.69    1.66
  -8   1   6   21.28    1.34
   8  -1   6   18.93    1.14
   8  -1   6   20.62    1.30
   8   1  -6   19.65    1.29
  -8   2  -6   34.88    1.85
   8   2   6   36.18    1.88
   8  -2  -6   37.39    1.89
  -8  -2   6   36.67    1.92
  -8  -2  -6   35.50    1.70
  -8   2   6   33.35    1.80
   8   2  -6   34.75    1.79
   8  -2   6   37.15    1.92
  -8   3  -6    0.50    0.48
   8   3   6    0.09    0.35
   8  -3  -6    0.27    0.38
  -8  -3   6    0.25    0.42
   8  -3   6    0.29    0.46
  -8  -3  -6    0.43    0.36
  -8   3   6    0.35    0.36
   8   3  -6    0.08    0.35
   9   0   6    0.20    0.30
  -9   0   6    0.18    0.31
   9   0  -6   -0.04    0.30
  -9   0  -6    0.25    0.28
  -9  -1   6    1.48    0.48
   9   1   6    1.41    0.50
   9  -1  -6    1.31    0.51
  -9   1  -6    2.42    0.58
   9   1  -6    1.75    0.55
  -9   1   6    1.56    0.52
   9  -1   6    1.46    0.47
  -9  -2   6    0.83    0.44
   9   2   6    0.53    0.40
  -9   2  -6   -0.02    0.35
   9  -2  -6    0.03    0.32
  -9   2   6    0.26    0.36
   9  -2   6    0.84    0.50
   9   2  -6    0.22    0.35
  -9   3  -6    6.73    1.01
   9  -3  -6    5.62    0.95
  -9  -3   6    4.76    0.99
   9   3   6    5.91    0.92
   9   3  -6    4.86    0.86
  -9   3   6    5.36    0.89
 -10   0   6   90.97    3.56
  10   0  -6   88.51    3.47
  10   0   6   92.16    3.39
 -10   0  -6   87.23    3.25
  10  -1  -6   18.45    1.43
 -10  -1   6   18.24    1.42
  10   1   6   17.87    1.34
 -10   1  -6   16.33    1.28
  10  -1   6   17.80    1.27
  10   1  -6   18.22    1.38
 -10   1   6   19.86    1.46
 -10  -2   6    7.50    1.02
  10  -2  -6    6.24    0.89
  10   2   6    7.64    1.02
 -10   2  -6    4.90    0.83
  10   2  -6    5.98    0.96
 -10   2   6    6.60    0.98
  11   0  -6    0.59    0.45
  11   0   6    0.14    0.38
 -11   0   6    0.20    0.45
   0   0   7   -0.38    0.20
   0   0  -7   -0.19    0.20
   0   0   7   -0.36    0.15
   0   0  -7   -0.17    0.15
   0   1  -7   -0.03    0.10
   0   1   7    0.04    0.16
   0   1  -7    0.12    0.20
   0  -1   7    0.07    0.09
   0  -1   7   -0.18    0.16
   0   1   7    0.01    0.10
   0  -1  -7    0.14    0.19
   0  -2  -7   -0.08    0.16
   0  -2   7   -0.13    0.17
   0   2   7    0.01    0.08
   0   2  -7    0.32    0.23
   0   2   7    0.05    0.17
   0   3  -7    0.03    0.20
   0  -3   7    0.11    0.23
   0  -3  -7    0.03    0.18
   0   3   7   -0.15    0.19
   0   4  -7    0.01    0.25
   0  -4  -7   -0.19    0.25
   0   4   7   -0.04    0.23
   0  -4   7   -0.10    0.27
   0   5  -7   -0.10    0.38
   0  -5  -7    0.33    0.38
   0   5   7   -0.06    0.33
   0  -5   7   -0.02    0.38
   1   0  -7    0.00    0.16
  -1   0   7    0.31    0.19
  -1   0  -7   -0.10    0.22
   1   0   7   -0.16    0.13
   1   0  -7   -0.05    0.16
   1   1   7  231.88    6.02
  -1  -1   7  223.76    6.10
   1  -1  -7  230.84    6.12
   1   1   7  234.77    5.63
  -1   1  -7  219.78    6.12
   1  -1  -7  222.44    5.94
  -1  -1  -7  226.95    6.11
  -1   1   7  225.03    5.81
  -1   1   7  240.35    6.07
   1   1  -7  222.98    5.78
   1  -1   7  233.27    5.64
   1   1  -7  228.32    6.01
   1  -1   7  224.99    6.05
   1  -2  -7  110.14    3.23
   1   2   7  105.48    3.29
  -1   2  -7  105.64    3.34
  -1  -2   7  112.01    3.44
   1  -2  -7  108.04    3.40
  -1  -2  -7  100.58    3.27
  -1   2   7  112.77    3.36
   1   2  -7  110.27    2.84
  -1   2   7  108.36    2.95
   1  -2   7  104.50    3.33
   1   2  -7  111.31    3.29
   1   3   7  297.02    8.10
  -1  -3   7  294.65    8.19
  -1   3  -7  301.32    8.21
   1  -3  -7  298.48    8.06
  -1  -3  -7  300.08    8.13
  -1   3   7  301.83    8.15
   1  -3   7  296.02    8.19
   1   3  -7  311.56    8.14
   1   4   7   45.21    1.99
  -1   4  -7   44.69    2.06
  -1  -4   7   45.49    2.07
   1  -4  -7   43.66    1.96
  -1  -4  -7   44.81    2.02
   1   4  -7   41.64    1.99
   1  -4   7   45.24    2.09
  -1   4   7   39.16    1.89
   1  -5  -7   34.04    1.89
   1   5   7   32.70    1.79
  -1  -5   7   30.83    1.82
  -1   5  -7   32.40    1.89
  -1  -5  -7   31.55    1.88
   1   5  -7   32.22    1.88
  -1   5   7   31.99    1.75
  -1   5   7   27.98    1.72
   1  -5   7   34.60    1.90
   2   0  -7  288.18    7.31
  -2   0   7  274.01    7.29
   2   0   7  284.92    7.16
   2   0  -7  284.74    7.25
  -2   0  -7  282.73    7.55
   2  -1  -7  252.61    6.32
  -2   1  -7  249.05    6.66
  -2  -1   7  244.35    6.59
   2   1   7  248.16    6.46
   2  -1  -7  247.96    6.57
   2   1   7  243.99    6.00
  -2   1   7  246.82    6.36
   2   1  -7  249.59    6.30
   2  -1   7  237.16    6.47
   2  -1   7  238.68    6.08
  -2  -1  -7  245.18    6.60
  -2  -2   7   52.43    2.06
   2   2   7   52.79    1.96
  -2   2  -7   55.00    2.05
   2  -2  -7   51.94    2.04
   2  -2  -7   52.84    1.84
  -2   2   7   56.70    2.03
  -2   2   7   56.30    1.78
  -2  -2  -7   53.47    2.00
   2   2  -7   57.54    1.95
   2   2  -7   55.92    1.68
   2  -2   7   52.42    2.01
   2   3   7   18.33    1.11
  -2   3  -7   19.08    1.17
  -2  -3   7   21.32    1.26
   2  -3  -7   19.93    1.07
  -2  -3  -7   18.37    1.13
  -2   3   7   19.90    1.16
   2  -3   7   18.90    1.17
   2   3  -7   19.66    1.13
   2  -4  -7   25.22    1.41
  -2  -4   7   22.97    1.44
   2   4   7   23.67    1.41
  -2   4  -7   23.40    1.47
  -2   4   7   27.05    1.45
   2   4  -7   23.27    1.40
   2  -4   7   25.57    1.51
  -2  -4  -7   25.78    1.48
   2   5   7    8.60    0.93
  -2  -5   7    7.77    0.96
   2  -5  -7    9.57    1.00
  -2   5   7    8.11    0.92
  -2   5   7    7.42    0.90
   2  -5   7    7.64    0.97
   2   5  -7    7.85    0.94
  -2  -5  -7    9.47    1.05
  -3   0   7    0.05    0.16
   3   0   7   -0.04    0.12
   3   0  -7   -0.02    0.11
   3   0   7    0.05    0.12
   3   0  -7   -0.03    0.18
  -3   0  -7    0.00    0.19
  -3   1  -7   27.80    1.36
   3  -1  -7   28.17    1.00
  -3  -1   7   30.29    1.34
   3   1   7   29.24    1.20
   3  -1  -7   27.32    1.26
   3   1   7   26.45    0.87
   3   1  -7   28.38    1.07
   3  -1   7   28.18    1.20
  -3   1   7   29.22    1.17
  -3  -1  -7   29.08    1.31
   3   1  -7   28.66    1.15
   3  -1   7   27.93    0.96
  -3  -1  -7   27.61    0.87
   3  -2  -7   40.76    1.74
  -3  -2   7   38.32    1.70
   3   2   7   37.65    1.59
   3  -2  -7   38.45    1.42
  -3   2  -7   37.98    1.66
  -3   2   7   40.80    1.68
   3   2  -7   38.32    1.39
   3  -2   7   39.66    1.66
  -3   2   7   38.91    1.48
   3   2  -7   41.64    1.52
  -3  -2  -7   37.83    1.64
  -3   3  -7   17.61    1.17
   3   3   7   19.68    1.16
  -3  -3   7   19.56    1.22
   3  -3  -7   17.91    1.01
   3  -3  -7   16.18    1.13
   3   3  -7   17.27    1.05
  -3  -3  -7   17.89    1.13
  -3   3   7   19.56    1.15
   3  -3   7   20.04    1.22
  -3  -4   7    8.35    0.90
   3  -4  -7    8.69    0.83
  -3   4  -7    9.27    0.94
   3   4   7    8.15    0.84
   3   4  -7    8.45    0.85
  -3   4   7    9.43    0.81
   3  -4   7    7.77    0.91
  -3  -4  -7    8.93    0.90
  -3   4   7    8.75    0.87
  -3  -5   7    0.25    0.41
  -3   5  -7    0.30    0.42
   3   5   7   -0.25    0.31
   3  -5  -7   -0.17    0.38
  -3  -5  -7   -0.11    0.38
   3   5  -7    0.14    0.33
  -3   5   7    0.42    0.42
  -3   5   7    0.03    0.38
   3  -5   7    0.14    0.36
   4   0  -7  149.45    3.81
   4   0   7  147.77    4.10
   4   0   7  148.46    4.06
   4   0  -7  149.28    4.25
  -4   0   7  146.73    4.27
  -4   0  -7  148.24    4.42
   4  -1  -7  265.96    7.08
  -4  -1   7  257.87    7.07
  -4   1  -7  240.12    7.17
   4   1   7  255.81    6.93
   4  -1  -7  265.43    6.50
   4  -1   7  262.87    6.64
   4   1  -7  262.11    6.89
   4   1  -7  261.96    6.63
  -4  -1  -7  264.67    6.52
  -4   1   7  258.04    6.94
   4  -1   7  257.40    6.95
  -4  -1  -7  268.57    7.10
  -4   2  -7   55.22    2.17
   4   2   7   53.75    2.09
   4  -2  -7   57.69    1.80
  -4  -2   7   53.45    2.18
   4  -2  -7   52.08    2.13
   4  -2   7   56.07    2.14
   4   2  -7   56.51    1.90
  -4   2   7   55.27    2.00
   4   2  -7   54.46    1.92
  -4  -2  -7   55.73    2.12
   4  -3  -7    5.00    0.54
  -4   3  -7    4.82    0.64
  -4  -3   7    3.94    0.65
   4   3   7    5.32    0.67
   4  -3  -7    3.72    0.61
   4   3  -7    5.68    0.60
  -4   3   7    4.74    0.52
  -4   3   7    5.02    0.55
  -4   3   7    4.76    0.61
  -4  -3  -7    4.79    0.63
   4  -3   7    5.75    0.72
  -4   4  -7    1.75    0.58
   4  -4  -7    0.45    0.39
   4   4   7    1.31    0.51
  -4  -4   7    1.03    0.45
   4  -4  -7    1.69    0.48
   4  -4   7    0.98    0.48
   4   4  -7    0.95    0.39
  -4   4   7    1.58    0.50
  -4  -4  -7    0.97    0.47
   4   5   7   27.08    1.71
  -4   5  -7   21.97    1.66
  -4  -5   7   23.35    1.65
  -4  -5  -7   24.29    1.68
   4  -5   7   28.81    1.81
   4   5  -7   26.38    1.65
  -5   0   7    0.14    0.22
   5   0   7   -0.02    0.15
  -5   0  -7   -0.04    0.17
   5   0  -7   -0.04    0.16
   5   0   7   -0.11    0.15
  -5   1  -7    1.73    0.46
  -5  -1   7    1.04    0.36
   5   1   7    0.94    0.32
   5  -1  -7    1.07    0.35
   5  -1   7    1.07    0.27
  -5   1   7    1.22    0.34
  -5  -1  -7    1.00    0.34
   5  -1   7    0.70    0.29
   5   1  -7    1.78    0.38
  -5  -1  -7    1.13    0.23
  -5   2  -7    8.01    0.77
  -5  -2   7    7.54    0.78
   5   2   7    7.01    0.71
   5  -2  -7    8.53    0.79
  -5   2   7    8.31    0.72
   5   2  -7    7.74    0.67
   5  -2   7    7.97    0.75
  -5  -2  -7    8.77    0.75
   5   2  -7    8.60    0.61
  -5   3  -7    2.54    0.55
  -5  -3   7    3.55    0.70
   5   3   7    2.21    0.54
   5  -3  -7    2.39    0.60
  -5   3   7    4.02    0.69
  -5  -3  -7    2.54    0.57
  -5   3   7    3.31    0.52
   5  -3   7    3.32    0.67
   5   4   7    7.83    0.88
  -5   4  -7    6.56    0.88
  -5  -4   7    6.04    0.88
   5  -4  -7    7.71    0.92
   5   4  -7    7.55    0.80
  -5   4   7    8.20    0.87
  -5  -4  -7    7.69    0.89
   5  -4   7    6.13    0.86
  -6   0   7  159.22    4.87
   6   0   7  159.89    4.65
  -6   0  -7  160.88    4.83
   6   0  -7  165.88    4.85
   6   0   7  166.86    4.63
  -6   1  -7   46.68    2.06
   6  -1  -7   45.70    1.96
  -6  -1   7   46.96    2.00
   6   1   7   47.53    1.92
  -6   1  -7   49.21    1.93
  -6  -1  -7   48.64    1.79
  -6   1   7   46.70    1.96
   6  -1   7   50.04    1.96
   6   1  -7   46.60    1.90
  -6  -1  -7   46.64    1.91
   6  -1   7   45.35    1.81
   6  -2  -7   65.02    2.56
  -6  -2   7   64.75    2.60
  -6   2  -7   62.56    2.56
   6   2   7   65.01    2.48
  -6   2   7   63.75    2.44
   6   2  -7   64.01    2.37
   6  -2   7   64.98    2.53
  -6  -2  -7   60.72    2.39
  -6   3  -7    0.87    0.45
   6  -3  -7    0.36    0.37
   6   3   7    0.46    0.35
  -6  -3   7    0.82    0.45
  -6  -3  -7    1.17    0.44
   6  -3   7    0.94    0.43
  -6   3   7    0.52    0.34
   6   3  -7    1.40    0.41
  -6  -4   7    0.41    0.45
  -6   4  -7    0.08    0.37
   6   4   7    0.86    0.47
   6  -4  -7    0.94    0.52
  -6   4   7    0.24    0.39
   6  -4   7    0.54    0.45
  -6  -4  -7    0.58    0.46
  -6   4   7    0.37    0.40
  -7   0   7    0.02    0.22
  -7   0  -7   -0.04    0.21
   7   0  -7   -0.07    0.24
   7   0   7    0.06    0.23
  -7   1  -7    6.55    0.77
   7   1   7    5.15    0.63
  -7  -1   7    4.82    0.67
  -7   1  -7    6.01    0.64
   7  -1  -7    5.59    0.69
   7   1  -7    6.90    0.74
  -7   1   7    6.03    0.72
   7  -1   7    6.52    0.69
  -7  -1  -7    6.27    0.66
   7  -2  -7   77.80    2.96
  -7   2  -7   74.88    2.90
  -7  -2   7   74.37    2.97
  -7   2  -7   74.31    3.00
   7   2   7   75.29    2.88
   7   2  -7   75.95    2.80
  -7  -2  -7   75.68    2.80
  -7   2   7   75.67    2.85
   7  -2   7   74.90    2.94
  -7   3  -7   41.55    2.04
   7   3   7   36.88    1.94
   7  -3  -7   40.45    2.06
  -7   3  -7   39.03    2.02
  -7  -3   7   36.96    2.00
   7  -3   7   37.50    2.02
  -7  -3  -7   36.10    1.87
  -7   3   7   33.00    1.82
   7   3  -7   36.27    1.76
   7   4   7   67.13    2.97
  -7   4  -7   68.05    2.98
  -7  -4   7   69.05    3.04
   7  -4  -7   67.62    3.01
  -7  -4  -7   68.20    2.91
  -7   4   7   60.97    2.72
   7  -4   7   69.21    3.10
  -7   4   7   62.52    2.77
   8   0  -7   35.01    1.81
  -8   0  -7   38.63    1.79
  -8   0  -7   37.32    1.65
  -8   0   7   36.18    1.86
   8   0   7   35.82    1.70
  -8  -1   7    7.91    0.86
   8   1   7    9.36    0.85
  -8   1  -7    7.12    0.78
   8  -1  -7    8.47    0.92
  -8   1   7    7.18    0.82
   8  -1   7    8.68    0.77
   8   1  -7    8.26    0.84
   8  -1   7    7.91    0.85
  -8  -1  -7   10.29    0.88
   8  -2  -7    7.09    0.84
  -8   2  -7    5.86    0.82
   8   2   7    7.67    0.87
  -8  -2   7    7.78    0.94
   8  -2   7    7.71    0.92
  -8   2   7    6.74    0.82
   8   2  -7    6.32    0.82
  -8   3  -7   -0.20    0.37
   8  -3  -7    0.13    0.34
  -8  -3   7    0.09    0.47
   8   3   7    0.13    0.38
   8   3  -7    0.40    0.40
  -8  -3  -7    0.12    0.32
  -8   3   7    0.24    0.38
   8  -3   7   -0.08    0.41
  -9   0  -7    0.24    0.28
   9   0   7   -0.03    0.25
   9   0  -7    0.11    0.32
  -9   0   7    0.04    0.32
   9   1   7   21.24    1.39
   9  -1  -7   17.57    1.37
  -9   1  -7   23.33    1.43
  -9  -1   7   24.44    1.52
   9  -1   7   21.58    1.30
   9   1  -7   18.79    1.37
  -9   1   7   21.83    1.47
   9  -2  -7   46.46    2.29
  -9  -2   7   43.69    2.30
  -9   2  -7   44.87    2.24
   9   2   7   48.30    2.28
   9  -2   7   43.53    2.28
   9   2  -7   44.69    2.19
  -9   2   7   46.10    2.28
  -9   3  -7   48.73    2.62
   9  -3  -7   50.79    2.57
  -9  -3   7   50.58    2.63
   9   3   7   51.56    2.57
  -9   3   7   54.26    2.57
   9   3  -7   48.96    2.35
   9  -3   7   52.49    2.65
  10   0  -7   94.82    3.61
  10   0   7   90.02    3.37
 -10   0   7   86.78    3.56
  10   1   7   24.68    1.57
  10  -1  -7   23.58    1.61
 -10  -1   7   25.25    1.67
 -10   1  -7   24.80    1.56
  10  -1   7   22.58    1.52
 -10   1   7   23.75    1.63
  10   1  -7   24.06    1.63
 -10  -2   7   15.27    1.39
  10  -2  -7   15.62    1.34
  10   2   7   14.92    1.32
 -10   2  -7   16.12    1.34
  10   2  -7   15.18    1.31
 -10   2   7   17.67    1.46
   0   0   8  341.19    8.75
   0   0   8  352.49    8.94
   0   0  -8  354.15    9.03
   0   0  -8  336.63    8.75
   0  -1  -8  218.38    5.74
   0   1   8  210.83    5.67
   0  -1   8  207.19    5.32
   0   1   8  215.71    5.38
   0   1  -8  206.06    5.74
   0  -1   8  208.07    5.73
   0   1  -8  210.77    5.35
   0   2   8  205.05    5.80
   0  -2   8  225.21    5.95
   0  -2  -8  206.36    5.77
   0   2  -8  204.20    5.82
   0   3   8    1.72    0.44
   0  -3  -8    2.73    0.53
   0  -3   8    2.45    0.55
   0   3  -8    1.86    0.44
   0   4  -8   34.77    1.79
   0  -4   8   33.76    1.80
   0  -4  -8   36.82    1.78
   0   4   8   33.70    1.72
   0  -5  -8   87.58    3.47
   0   5   8   88.13    3.37
   0  -5   8   94.85    3.61
   0   5  -8   88.13    3.54
   1   0  -8    0.07    0.18
   1   0  -8    0.07    0.18
  -1   0  -8   -0.16    0.18
  -1   0   8   -0.03    0.15
  -1   0   8   -0.08    0.14
   1   0   8    0.13    0.15
   1  -1  -8   20.55    0.97
  -1   1  -8   23.20    1.14
  -1  -1   8   20.89    1.07
   1  -1  -8   23.82    1.10
   1   1   8   21.28    1.01
  -1   1   8   22.67    0.88
   1   1  -8   21.61    0.86
   1  -1   8   21.14    1.04
  -1   1   8   22.11    1.04
  -1  -1  -8   21.88    1.10
   1  -1   8   22.19    0.75
   1   1  -8   22.18    1.04
  -1   2  -8   41.34    1.70
   1   2   8   42.53    1.68
  -1  -2   8   38.24    1.71
   1  -2  -8   42.50    1.60
   1   2  -8   41.75    1.66
  -1   2   8   40.01    1.67
  -1   2   8   43.53    1.36
  -1  -2  -8   40.03    1.65
   1  -2   8   39.32    1.69
  -1   3  -8   23.22    1.32
   1  -3  -8   22.72    1.22
  -1  -3   8   24.87    1.37
   1   3   8   21.01    1.22
  -1   3   8   20.55    1.22
  -1  -3  -8   22.27    1.26
   1   3  -8   22.96    1.26
   1  -3   8   22.52    1.29
  -1   4  -8   49.85    2.24
  -1  -4   8   41.59    2.10
   1  -4  -8   43.75    2.03
   1   4   8   48.78    2.13
  -1  -4  -8   48.82    2.15
  -1   4   8   48.71    2.13
   1  -4   8   48.25    2.22
   1   4  -8   45.09    2.09
   1  -5  -8    2.32    0.65
   1   5   8    2.03    0.60
  -1   5  -8    3.11    0.78
  -1  -5   8    3.23    0.74
   1   5  -8    1.60    0.56
  -1   5   8    1.37    0.53
   1  -5   8    2.54    0.65
  -1  -5  -8    1.88    0.65
  -2   0  -8  192.56    5.60
   2   0  -8  202.73    5.34
  -2   0   8  198.46    5.37
   2   0   8  200.55    5.21
   2   0  -8  200.02    5.35
  -2   1  -8   65.04    2.38
   2   1   8   63.78    1.78
   2  -1  -8   66.68    2.22
  -2  -1   8   71.35    2.34
   2  -1  -8   66.82    2.30
   2   1   8   70.87    2.21
  -2   1   8   66.12    2.24
   2  -1   8   64.74    1.86
  -2  -1  -8   63.88    2.32
   2  -1   8   63.91    2.19
   2   1  -8   68.19    2.05
  -2   1   8   69.60    2.11
  -2  -2   8   29.88    1.47
   2  -2  -8   30.65    1.29
  -2   2  -8   32.12    1.47
   2   2   8   28.90    1.36
   2  -2  -8   33.24    1.52
  -2   2   8   32.55    1.21
   2   2  -8   30.75    1.35
   2   2  -8   32.36    1.13
   2  -2   8   32.89    1.48
  -2  -2  -8   27.89    1.39
  -2   2   8   31.53    1.44
   2   3   8    1.65    0.43
   2  -3  -8    1.99    0.43
  -2  -3   8    2.89    0.62
  -2   3  -8    1.32    0.40
   2  -3   8    2.15    0.54
   2   3  -8    2.75    0.52
  -2   3   8    2.29    0.50
  -2  -3  -8    2.54    0.52
  -2   4  -8   20.49    1.38
  -2  -4   8   23.44    1.48
   2   4   8   19.90    1.33
   2  -4  -8   22.68    1.34
   2   4  -8   19.03    1.27
  -2  -4  -8   22.84    1.44
   2  -4   8   22.26    1.43
  -2   4   8   20.52    1.33
  -2  -5   8   17.66    1.41
   2   5   8   18.40    1.38
   2  -5  -8   19.41    1.42
  -2   5  -8   16.87    1.41
  -2  -5  -8   20.64    1.49
  -2   5   8   16.98    1.29
   2  -5   8   19.10    1.47
  -2   5   8   17.47    1.31
   2   5  -8   18.76    1.43
  -3   0   8   -0.12    0.14
  -3   0  -8    0.01    0.20
   3   0   8   -0.02    0.17
   3   0   8   -0.03    0.13
   3   0  -8   -0.15    0.13
   3   0  -8   -0.03    0.18
  -3   1  -8   58.84    2.26
  -3  -1   8   57.11    2.13
   3   1   8   57.57    2.00
   3   1   8   56.22    1.61
   3  -1  -8   58.08    2.11
   3  -1  -8   56.79    1.79
   3  -1   8   58.63    2.03
  -3   1   8   61.82    2.02
   3   1  -8   57.20    1.88
  -3  -1  -8   57.33    1.61
   3  -1   8   58.48    1.72
   3   1  -8   57.92    1.92
  -3  -1  -8   56.41    2.16
   3   2   8  140.84    4.28
  -3  -2   8  140.74    4.42
   3  -2  -8  147.21    4.04
   3  -2  -8  148.42    4.46
  -3   2  -8  141.51    4.40
   3  -2   8  142.34    4.33
  -3   2   8  151.18    4.11
   3   2  -8  146.10    4.14
  -3   2   8  141.45    4.33
  -3  -2  -8  137.12    4.32
   3   2  -8  145.69    3.99
  -3   3  -8   63.93    2.59
   3  -3  -8   65.35    2.62
   3   3   8   63.60    2.51
  -3  -3   8   69.98    2.70
   3  -3  -8   66.66    2.35
   3   3  -8   68.58    2.44
  -3  -3  -8   69.50    2.62
   3  -3   8   70.18    2.64
  -3   3   8   65.45    2.53
  -3   3   8   66.16    2.96
   3  -4  -8   53.24    2.18
  -3  -4   8   48.73    2.30
   3   4   8   48.60    2.22
  -3   4  -8   49.94    2.34
  -3   4   8   52.33    2.28
   3  -4   8   51.35    2.36
  -3  -4  -8   47.17    2.26
   3   4  -8   49.89    2.20
   3  -5  -8    7.87    0.97
  -3  -5   8    7.55    1.01
   3   5   8    6.91    0.97
  -3   5  -8    9.33    1.13
   3   5  -8    6.89    0.96
  -3  -5  -8    7.88    0.99
  -3   5   8    8.86    0.99
   3  -5   8    8.30    1.08
  -3   5   8    8.09    0.96
  -4   0   8   85.10    2.79
   4   0  -8   85.47    2.77
   4   0  -8   87.91    2.41
  -4   0  -8   85.40    2.95
   4   0   8   89.39    2.60
   4   0   8   81.00    2.59
   4  -1  -8   10.48    0.79
   4  -1  -8    9.95    0.51
   4   1   8    9.91    0.73
  -4  -1   8    8.61    0.74
  -4   1  -8   10.69    0.89
   4  -1   8   10.30    0.73
  -4  -1  -8    9.84    0.49
  -4  -1  -8   10.26    0.80
   4  -1   8   10.17    0.57
   4   1  -8    9.88    0.59
  -4   1   8    9.36    0.70
   4   1  -8    8.95    0.68
  -4  -2   8    0.11    0.26
  -4   2  -8    0.03    0.20
   4  -2  -8    0.23    0.28
   4  -2  -8    0.24    0.18
   4   2   8   -0.23    0.18
   4   2  -8    0.43    0.22
   4   2  -8    0.08    0.19
  -4   2   8    0.08    0.19
   4  -2   8    0.25    0.24
  -4  -2  -8    0.36    0.26
  -4   3  -8   11.13    0.99
  -4  -3   8   14.92    1.14
   4  -3  -8   13.71    1.09
   4   3   8   14.47    1.09
   4  -3  -8   15.90    0.93
   4  -3   8   13.93    1.09
  -4  -3  -8   13.49    1.04
  -4   3   8   14.84    0.93
   4   3  -8   15.46    0.97
  -4   3   8   14.08    1.05
  -4   4  -8    0.65    0.42
   4   4   8    0.30    0.35
   4  -4  -8   -0.04    0.45
   4  -4  -8    0.29    0.42
  -4  -4   8    0.09    0.32
   4   4  -8   -0.02    0.26
   4  -4   8    0.26    0.37
  -4  -4  -8    0.16    0.38
  -4   4   8    0.06    0.33
  -4   5  -8    0.20    0.44
   4   5   8    0.51    0.47
  -4  -5   8    1.27    0.59
   4  -5   8    0.12    0.48
   4   5  -8    0.87    0.50
  -4   5   8    0.39    0.43
  -4  -5  -8    1.06    0.57
  -5   0  -8   -0.04    0.15
  -5   0   8    0.07    0.22
   5   0   8   -0.01    0.17
  -5   0  -8   -0.16    0.19
   5   0  -8    0.07    0.20
   5   0   8   -0.01    0.16
  -5   1  -8   32.75    1.66
   5   1   8   31.82    1.42
   5  -1  -8   31.55    1.51
  -5  -1   8   30.24    1.50
  -5   1   8   29.79    1.41
  -5  -1  -8   30.77    1.51
   5   1  -8   31.26    1.41
   5  -1   8   31.05    1.23
   5  -1   8   30.57    1.41
  -5  -2   8   89.22    3.20
  -5   2  -8   91.58    3.24
   5   2   8   89.75    3.07
   5  -2  -8   87.41    3.15
   5   2  -8   94.56    2.78
   5   2  -8   89.21    2.89
  -5   2   8   85.74    2.96
   5  -2   8   83.06    3.05
  -5  -2  -8   88.12    3.09
  -5  -3   8  125.89    4.27
   5   3   8  126.98    4.16
  -5   3  -8  127.38    4.26
   5  -3  -8  123.43    4.27
  -5   3   8  126.25    4.17
   5  -3   8  125.40    4.22
  -5   3   8  121.91    3.94
  -5  -3  -8  122.94    4.16
   5   4   8   58.02    2.56
   5  -4  -8   57.31    2.62
  -5   4  -8   55.66    2.56
  -5  -4   8   52.12    2.53
   5  -4   8   55.62    2.60
   5   4  -8   52.24    2.28
  -5  -4  -8   57.23    2.56
  -5   4   8   56.78    2.48
   6   0  -8  121.08    3.94
  -6   0  -8  126.89    4.03
   6   0   8  123.20    3.72
  -6   0   8  127.18    4.02
   6   0   8  129.63    3.81
  -6   1  -8   88.77    2.91
   6   1   8   85.19    2.91
   6  -1  -8   84.77    3.00
  -6  -1   8   80.64    3.01
  -6   1  -8   87.30    3.15
  -6   1   8   75.99    2.87
   6  -1   8   81.94    2.89
   6  -1   8   84.53    2.67
   6   1  -8   87.83    2.93
  -6  -1  -8   87.69    3.00
   6   2   8   43.28    1.92
   6  -2  -8   41.46    1.97
  -6   2  -8   42.09    2.04
  -6  -2   8   43.85    2.05
  -6  -2  -8   40.30    1.87
   6   2  -8   42.81    1.80
  -6   2   8   39.87    1.83
   6  -2   8   39.98    1.90
   6  -3  -8    2.31    0.62
  -6  -3   8    1.58    0.59
  -6   3  -8    2.45    0.66
   6   3   8    2.11    0.57
  -6  -3  -8    2.77    0.61
  -6   3   8    2.14    0.51
   6  -3   8    1.96    0.59
  -6   4  -8   10.03    1.07
  -6  -4   8    8.04    1.04
   6  -4  -8    8.95    1.06
   6   4   8   10.34    1.07
  -6  -4  -8   10.43    1.10
   6  -4   8    8.07    1.01
  -6   4   8    8.55    0.95
  -7   0  -8   -0.15    0.24
   7   0   8   -0.09    0.21
  -7   0   8   -0.12    0.19
   7   0  -8   -0.11    0.22
   7   0   8   -0.13    0.18
  -7   1  -8   14.86    1.01
  -7   1  -8   15.06    1.15
   7   1   8   14.80    1.03
   7  -1  -8   14.51    1.09
  -7  -1   8   12.33    1.05
   7  -1   8   15.08    1.06
  -7   1   8   17.69    1.15
   7   1  -8   14.92    1.05
  -7  -1  -8   14.89    1.04
  -7   2  -8   30.34    1.81
  -7  -2   8   32.33    1.79
   7  -2  -8   31.57    1.74
   7   2   8   30.18    1.67
  -7   2  -8   31.19    1.69
  -7   2   8   33.36    1.69
  -7  -2  -8   30.60    1.60
   7   2  -8   29.70    1.56
   7  -2   8   29.25    1.68
   7   3   8    9.21    0.98
  -7  -3   8    8.76    1.00
   7  -3  -8    7.73    0.94
  -7   3  -8   10.01    1.04
  -7  -3  -8   10.18    0.97
  -7   3   8    8.70    0.90
   7  -3   8   11.38    1.10
  -7  -4   8    1.67    0.66
   7  -4  -8    1.45    0.60
   7   4   8    0.73    0.54
  -7   4  -8    0.95    0.52
  -7   4   8    1.39    0.50
  -7  -4  -8    0.57    0.50
   7  -4   8    0.98    0.53
  -8   0   8  152.72    5.04
   8   0   8  164.93    4.88
   8   0  -8  154.53    5.00
  -8   0  -8  160.02    4.94
  -8   1  -8   92.07    3.25
  -8   1  -8   90.30    3.35
  -8  -1   8   88.25    3.38
   8   1   8   94.01    3.32
   8  -1  -8   91.83    3.41
  -8  -1  -8   93.62    3.26
  -8   1   8   89.63    3.35
   8  -1   8   97.10    3.36
   8   1  -8   88.35    3.30
   8   2   8   14.22    1.18
   8  -2  -8   13.36    1.17
  -8   2  -8   13.98    1.17
  -8  -2   8   13.45    1.24
   8   2  -8   14.34    1.10
  -8  -2  -8   14.39    1.12
  -8   2   8   14.56    1.20
   8  -2   8   15.72    1.26
   8   3   8    0.37    0.42
  -8  -3   8    0.00    0.46
  -8   3  -8    0.61    0.46
   8  -3  -8    0.37    0.43
  -8   3   8    0.13    0.39
  -8  -3  -8    0.24    0.32
   8  -3   8    0.10    0.44
   9   0  -8   -0.09    0.31
   9   0   8   -0.25    0.27
  -9   0   8   -0.07    0.32
  -9  -1   8    7.00    0.88
   9  -1  -8    9.31    0.99
  -9   1  -8    7.73    0.87
   9   1   8    7.12    0.88
   9   1  -8    7.96    0.92
  -9   1   8    7.60    0.94
   9   2   8    9.80    1.03
   9  -2  -8   10.25    1.12
  -9  -2   8    8.55    1.08
  -9   2  -8   10.67    1.10
   9   2  -8   10.19    1.04
  -9   2   8    9.73    1.04
   9  -2   8   11.01    1.14
  10   0  -8   17.13    1.40
 -10   0   8   14.75    1.33
  10   0   8   12.87    1.14
  10  -1  -8   18.81    1.47
  10   1   8   18.37    1.38
 -10   1  -8   16.37    1.30
 -10  -1   8   18.87    1.45
  10   1  -8   19.26    1.47
 -10   1   8   18.55    1.46
   0   0  -9   -0.04    0.18
   0   0   9    0.02    0.13
   0   0   9    0.05    0.15
   0   1   9   -0.04    0.16
   0  -1  -9    0.02    0.18
   0   1  -9    0.01    0.13
   0   1  -9   -0.07    0.16
   0  -1   9    0.17    0.21
   0  -1   9   -0.07    0.09
   0   1   9   -0.08    0.12
   0  -2   9    0.22    0.23
   0   2   9    0.34    0.23
   0  -2  -9   -0.07    0.15
   0   2  -9    0.02    0.19
   0   3  -9    0.23    0.26
   0  -3   9   -0.13    0.24
   0   3   9    0.09    0.26
   0  -3  -9    0.23    0.25
   0  -4  -9   -0.02    0.29
   0  -4   9   -0.15    0.26
   0   4   9   -0.05    0.26
   0   4  -9   -0.01    0.29
   0  -5  -9   -0.04    0.36
   0  -5   9    0.55    0.48
   0   5  -9   -0.07    0.39
   0   5   9   -0.26    0.31
  -1   0  -9   -0.10    0.18
  -1   0   9   -0.16    0.13
  -1   0   9    0.00    0.12
   1   0  -9   -0.07    0.18
   1   0  -9    0.04    0.18
   1   0   9    0.07    0.15
  -1   1  -9   44.72    1.80
  -1  -1   9   44.08    1.71
   1   1   9   42.36    1.61
   1   1   9   42.80    1.31
   1  -1  -9   41.80    1.61
   1  -1  -9   42.36    1.68
  -1   1   9   41.62    1.44
   1  -1   9   42.49    1.65
   1   1  -9   41.56    1.41
  -1   1   9   44.89    1.65
  -1  -1  -9   44.76    1.77
   1   1  -9   38.23    1.60
   1  -1   9   43.17    1.31
  -1  -2   9  109.44    3.58
  -1   2  -9  111.21    3.54
   1  -2  -9  114.06    3.41
   1   2   9  107.06    3.45
   1  -2   9  108.91    3.53
  -1  -2  -9  110.94    3.50
   1   2  -9  109.34    3.45
  -1   2   9  111.51    3.50
  -1   2   9  112.37    3.06
   1   3   9   88.54    3.13
   1  -3  -9   91.81    3.07
  -1  -3   9   88.13    3.21
  -1   3  -9   92.77    3.24
   1   3  -9   92.33    3.15
  -1   3   9   92.68    3.18
  -1  -3  -9   89.93    3.14
   1  -3   9   89.47    3.21
   1  -4  -9   80.10    2.97
  -1   4  -9   76.89    3.07
  -1  -4   9   79.34    3.12
   1   4   9   77.25    3.00
  -1  -4  -9   78.76    3.03
  -1   4   9   75.61    2.98
   1   4  -9   75.24    2.99
   1  -4   9   82.73    3.17
  -1   5  -9   15.91    1.37
   1  -5  -9   14.66    1.29
   1   5   9   17.28    1.37
  -1  -5   9   17.23    1.41
  -1   5   9   14.66    1.28
  -1  -5  -9   15.87    1.32
   1   5  -9   18.07    1.45
   1  -5   9   17.72    1.43
   2   0   9   76.90    2.32
  -2   0  -9   77.66    2.71
   2   0  -9   77.28    2.46
  -2   0   9   76.07    2.48
   2   1   9   77.10    2.11
   2  -1  -9   76.53    2.62
  -2  -1   9   76.65    2.63
   2   1   9   76.18    2.50
  -2   1  -9   74.22    2.73
  -2  -1  -9   75.48    2.70
   2   1  -9   86.00    2.84
   2  -1   9   81.72    2.56
  -2   1   9   79.04    2.58
   2   1  -9   77.03    2.36
   2  -1   9   77.23    2.18
  -2   1   9   75.29    2.38
  -2   2  -9   18.55    1.13
  -2  -2   9   19.42    1.15
   2   2   9   19.27    1.08
   2  -2  -9   17.67    0.96
   2  -2  -9   19.28    1.15
  -2  -2  -9   19.14    1.13
   2  -2   9   18.54    1.10
   2   2  -9   20.14    1.06
  -2   2   9   17.72    1.06
  -2   2   9   18.47    0.88
  -2  -3   9    2.03    0.54
   2   3   9    2.05    0.48
  -2   3  -9    1.41    0.44
   2  -3  -9    2.44    0.50
  -2   3   9    2.78    0.57
  -2  -3  -9    3.00    0.61
   2   3  -9    1.94    0.46
   2  -3   9    2.14    0.54
   2  -4  -9    0.68    0.37
   2   4   9    1.20    0.47
  -2   4  -9    1.07    0.48
  -2  -4   9    1.00    0.49
   2   4  -9   -0.21    0.29
  -2  -4  -9    0.71    0.42
   2  -4   9    0.37    0.39
  -2   4   9    0.65    0.40
   2   5   9   27.86    1.71
  -2  -5   9   20.78    1.60
  -2   5  -9   29.49    1.89
   2  -5  -9   24.35    1.61
   2  -5   9   30.27    1.86
  -2  -5  -9   24.36    1.68
  -2   5   9   25.58    1.65
  -2   5   9   25.39    1.60
   2   5  -9   28.30    1.74
   3   0  -9   -0.01    0.19
   3   0  -9    0.03    0.15
  -3   0  -9   -0.05    0.20
  -3   0   9    0.08    0.17
   3   0   9    0.02    0.15
   3  -1  -9   19.24    0.86
   3   1   9   20.12    1.02
  -3   1  -9   16.96    1.14
   3  -1  -9   20.59    1.12
  -3  -1   9   16.33    1.04
  -3   1   9   19.73    0.98
  -3  -1  -9   19.97    1.17
   3   1  -9   18.30    0.92
   3  -1   9   18.51    1.00
   3  -1   9   17.98    0.76
   3   1  -9   21.44    0.98
   3  -2  -9    5.01    0.66
   3  -2  -9    5.05    0.49
   3   2   9    5.94    0.63
  -3   2  -9    5.62    0.65
  -3  -2   9    4.88    0.62
  -3  -2  -9    4.47    0.59
   3   2  -9    5.83    0.56
   3  -2   9    4.67    0.61
  -3   2   9    3.81    0.55
   3   2  -9    5.11    0.46
  -3   2   9    5.06    0.50
   3  -3  -9   46.25    2.12
  -3   3  -9   48.87    2.15
   3  -3  -9   46.32    1.85
  -3  -3   9   45.36    2.13
   3   3   9   47.16    2.06
   3  -3   9   46.20    2.08
  -3  -3  -9   45.00    2.06
   3   3  -9   45.08    1.92
  -3   3   9   45.35    2.02
   3   4   9    8.44    0.90
  -3   4  -9    9.51    1.00
  -3  -4   9   10.26    1.02
   3  -4  -9    9.88    0.90
  -3  -4  -9    9.59    0.98
   3  -4   9   10.98    1.08
   3   4  -9   10.00    0.94
  -3   4   9    8.73    0.91
  -3  -5   9    6.35    0.98
  -3   5  -9    7.40    1.04
   3  -5  -9    7.89    0.98
   3   5   9    5.91    0.96
  -3  -5  -9    9.64    1.13
   3  -5   9    7.03    1.08
  -3   5   9    7.25    0.97
   3   5  -9    7.47    0.92
  -4   0   9  307.88    8.14
  -4   0  -9  303.14    8.37
   4   0   9  307.02    7.91
   4   0   9  314.69    7.88
   4   0  -9  301.03    8.09
   4   0  -9  293.62    7.69
   4   1   9  142.39    4.19
  -4  -1   9  137.59    4.35
  -4   1  -9  143.62    4.59
   4  -1  -9  149.64    3.83
   4  -1  -9  141.26    4.32
   4  -1   9  136.95    3.85
   4  -1   9  137.97    4.17
   4   1  -9  147.91    4.16
   4   1  -9  145.79    3.99
  -4  -1  -9  141.40    4.43
  -4   1   9  139.19    4.21
   4  -2  -9   55.82    2.33
   4  -2  -9   62.09    1.98
  -4   2  -9   55.47    2.37
  -4  -2   9   61.18    2.44
   4   2   9   57.91    2.29
  -4  -2  -9   58.36    2.35
  -4   2   9   59.64    2.15
   4   2  -9   60.53    2.11
   4  -2   9   59.91    2.32
   4  -3  -9    2.04    0.54
   4   3   9    2.19    0.56
  -4   3  -9    2.71    0.62
  -4  -3   9    2.68    0.65
  -4   3   9    2.12    0.53
   4   3  -9    2.61    0.53
   4  -3   9    2.87    0.64
  -4  -3  -9    2.65    0.60
  -4   4  -9   21.24    1.53
   4  -4  -9   21.26    1.54
   4   4   9   22.90    1.52
  -4  -4   9   22.03    1.55
   4  -4   9   22.66    1.53
  -4   4   9   20.59    1.44
   4   4  -9   19.76    1.28
  -4  -4  -9   18.86    1.40
   5   0  -9    0.11    0.25
   5   0   9    0.03    0.18
  -5   0   9    0.17    0.21
  -5   0  -9    0.05    0.22
   5   0   9    0.30    0.22
  -5   1  -9   15.84    1.16
   5  -1  -9   14.87    1.06
  -5  -1   9   15.72    1.08
   5   1   9   17.05    1.02
   5  -1   9   17.15    0.84
  -5   1   9   16.08    1.02
   5  -1   9   15.21    0.98
  -5  -1  -9   17.88    1.14
   5   1  -9   16.51    0.99
  -5  -2   9   26.36    1.53
  -5   2  -9   30.48    1.67
   5   2   9   25.33    1.41
   5  -2  -9   28.52    1.54
   5   2  -9   26.78    1.30
   5  -2   9   28.00    1.48
  -5  -2  -9   28.04    1.52
  -5   2   9   27.21    1.38
   5  -3  -9   31.40    1.78
  -5   3  -9   31.97    1.80
   5   3   9   32.53    1.73
  -5  -3   9   32.54    1.82
   5  -3   9   31.75    1.76
  -5   3   9   29.56    1.64
  -5   3   9   30.24    1.51
  -5  -3  -9   32.70    1.77
   5   4   9   13.69    1.20
  -5   4  -9   12.74    1.20
  -5  -4   9   13.21    1.26
   5  -4  -9   16.43    1.38
   5  -4   9   15.10    1.28
   5   4  -9   13.38    1.04
  -5  -4  -9   13.53    1.24
  -5   4   9   13.72    1.20
  -6   0   9   42.60    1.91
   6   0  -9   44.88    1.92
  -6   0  -9   45.65    1.69
  -6   0  -9   37.09    1.87
   6   0   9   44.63    1.76
   6  -1  -9   46.15    2.03
   6   1   9   45.74    1.91
  -6  -1   9   46.14    2.06
  -6   1  -9   44.17    2.11
  -6   1   9   48.28    2.03
   6  -1   9   47.77    1.74
   6   1  -9   46.82    1.96
  -6  -1  -9   45.18    2.03
   6  -1   9   43.32    1.90
   6  -2  -9    2.87    0.63
   6   2   9    3.79    0.60
  -6  -2   9    3.19    0.70
  -6   2  -9    3.56    0.72
  -6   2   9    3.18    0.62
   6  -2   9    3.26    0.63
   6   2  -9    2.47    0.51
  -6  -2  -9    4.08    0.71
  -6  -3   9    2.79    0.71
   6   3   9    2.44    0.60
  -6   3  -9    2.00    0.61
   6  -3  -9    3.22    0.71
  -6   3   9    2.74    0.58
  -6  -3  -9    2.22    0.61
   6  -3   9    3.23    0.74
  -6   3   9    2.07    0.59
   6   4   9    9.09    1.05
   6  -4  -9    6.36    0.95
  -6  -4   9    5.97    0.92
  -6   4  -9    9.17    1.12
   6  -4   9    8.52    1.10
  -6  -4  -9   11.08    1.11
  -6   4   9    8.05    0.95
   7   0   9    0.01    0.20
   7   0  -9    0.06    0.28
  -7   0   9    0.07    0.27
  -7   0  -9   -0.18    0.21
  -7   1  -9   29.22    1.50
  -7   1  -9   27.38    1.62
  -7  -1   9   26.03    1.57
   7  -1  -9   30.64    1.63
   7   1   9   27.38    1.49
  -7   1   9   30.03    1.62
   7  -1   9   28.08    1.51
  -7  -1  -9   30.46    1.60
   7   1  -9   28.23    1.54
   7  -1   9   29.54    1.36
   7   2   9   48.50    2.23
  -7  -2   9   44.83    2.30
   7  -2  -9   48.54    2.30
  -7   2  -9   54.27    2.53
   7   2  -9   47.67    2.11
   7  -2   9   51.16    2.32
  -7   2   9   52.16    2.25
  -7  -2  -9   50.61    2.24
   7  -3  -9   61.78    2.72
   7   3   9   61.83    2.67
  -7  -3   9   51.90    2.62
  -7   3  -9   56.12    2.69
  -7   3   9   56.93    2.46
  -7  -3  -9   58.86    2.61
   7  -3   9   54.76    2.61
   8   0   9    8.96    0.83
  -8   0  -9    7.68    0.86
   8   0  -9    6.62    0.82
  -8   0   9    7.67    0.90
  -8   1  -9   23.46    1.40
   8   1   9   22.98    1.42
  -8   1  -9   24.92    1.55
   8  -1  -9   26.26    1.57
  -8  -1   9   25.27    1.60
   8  -1   9   23.24    1.43
   8   1  -9   24.03    1.47
  -8   1   9   25.41    1.56
  -8  -1  -9   22.06    1.38
  -8   2  -9    1.24    0.60
  -8  -2   9    0.40    0.41
   8  -2  -9    0.25    0.38
   8   2   9    0.34    0.37
  -8   2  -9    1.02    0.48
   8  -2   9    0.73    0.47
  -8   2   9    0.50    0.43
   8   2  -9    0.51    0.38
  -8  -2  -9    1.02    0.45
   8   3   9    1.00    0.48
  -8  -3   9    0.32    0.44
  -8   3  -9    1.27    0.55
   8  -3  -9    1.38    0.61
   8  -3   9    1.21    0.56
  -8   3   9    1.55    0.57
  -8  -3  -9    0.55    0.47
   9   0   9    0.18    0.31
  -9   0   9    0.17    0.38
   9   0  -9    0.32    0.39
  -9  -1   9   10.97    1.11
   9   1   9   10.19    1.03
   9  -1  -9   11.80    1.12
  -9   1  -9    9.46    0.97
  -9   1   9   11.17    1.11
   9   1  -9   12.03    1.10
   9  -1   9   10.86    1.07
  -9   2  -9   45.99    2.33
   9   2   9   45.43    2.33
  -9  -2   9   47.97    2.51
   9  -2  -9   49.40    2.49
   9   2  -9   45.65    2.27
   9  -2   9   52.34    2.50
  -9   2   9   47.92    2.37
 -10   0   9    9.99    1.14
  10   0  -9    9.41    1.15
  10   0   9   10.54    1.05
 -10   1  -9   31.79    1.83
 -10  -1   9   30.17    1.97
  10   1   9   30.86    1.85
  10  -1  -9   38.03    2.13
  10   1  -9   33.95    1.98
 -10   1   9   33.77    2.04
   0   0 -10  524.03   13.11
   0   0  10  501.25   12.73
   0   0  10  504.74   12.78
   0  -1 -10  332.72    8.93
   0   1  10  340.21    8.80
   0  -1  10  336.31    8.43
   0   1  10  334.33    8.49
   0  -1  10  343.43    8.89
   0   1 -10  334.94    8.99
   0   2  10   82.71    2.81
   0   2 -10   82.66    2.86
   0  -2  10   79.27    2.86
   0  -2 -10   84.89    2.83
   0  -3  10    1.49    0.47
   0  -3 -10    1.11    0.42
   0   3 -10    1.94    0.55
   0   3  10    1.33    0.43
   0   4  10   14.32    1.14
   0  -4  10   15.37    1.24
   0  -4 -10   16.65    1.23
   0   4 -10   15.62    1.22
   0  -5  10   22.71    1.71
   0   5  10   22.17    1.56
   0  -5 -10   25.47    1.67
   0   5 -10   29.46    1.86
   1   0  10    0.13    0.16
  -1   0  10   -0.12    0.14
  -1   0 -10   -0.11    0.19
   1   0 -10   -0.10    0.17
   1   0 -10    0.28    0.24
  -1   0  10   -0.07    0.18
   1  -1 -10    9.19    0.72
  -1  -1  10   10.30    0.77
  -1   1 -10   10.91    0.86
   1   1  10    8.50    0.66
   1  -1 -10    9.55    0.71
   1   1  10    9.65    0.51
  -1  -1  10    9.22    0.54
  -1   1  10    9.41    0.69
  -1  -1 -10    8.41    0.77
   1  -1  10   10.32    0.74
   1   1 -10    9.65    0.75
   1   1 -10    9.00    0.57
   1  -1  10    8.59    0.48
  -1   1  10    9.23    0.59
   1   2  10   21.13    1.20
  -1  -2  10   21.59    1.27
  -1   2 -10   20.89    1.24
   1  -2 -10   22.28    1.15
  -1   2  10   24.46    1.26
   1  -2  10   24.73    1.31
   1   2 -10   22.79    1.22
  -1  -2 -10   23.59    1.26
  -1   3 -10   22.28    1.36
  -1  -3  10   22.19    1.37
   1   3  10   22.39    1.32
   1  -3 -10   20.80    1.22
   1   3 -10   24.67    1.38
   1  -3  10   22.31    1.36
  -1  -3 -10   23.33    1.35
  -1   3  10   19.01    1.24
  -1  -4  10   15.78    1.28
  -1   4 -10   12.41    1.13
   1   4  10   14.06    1.17
   1  -4 -10   14.45    1.13
   1  -4  10   12.20    1.14
  -1  -4 -10   14.62    1.16
   1   4 -10   14.69    1.18
  -1   4  10   13.82    1.14
   1  -5 -10    6.61    0.90
  -1   5 -10    8.11    1.09
   1   5  10    8.48    1.00
  -1  -5  10    6.36    0.97
  -1  -5 -10    6.38    0.97
   1   5 -10    7.02    1.01
  -1   5  10    5.92    0.88
   1  -5  10    5.95    1.00
  -2   0 -10  234.47    6.71
  -2   0  10  238.89    6.45
   2   0  10  241.16    6.25
   2   0 -10  237.46    6.40
   2   1  10  151.32    4.43
  -2   1 -10  153.76    4.79
  -2  -1  10  157.98    4.61
   2  -1 -10  149.78    4.56
   2   1 -10  155.51    4.50
   2  -1  10  161.39    4.08
  -2  -1 -10  156.49    4.74
  -2   1  10  154.81    4.49
   2  -1  10  155.92    4.48
   2   1 -10  158.24    4.30
  -2   1  10  150.87    4.32
  -2   2 -10   62.31    2.49
   2   2  10   63.61    2.36
  -2  -2  10   63.89    2.48
   2  -2 -10   68.40    2.27
   2  -2 -10   61.94    2.45
  -2   2  10   64.62    2.09
  -2  -2 -10   62.69    2.45
   2  -2  10   67.58    2.46
   2   2 -10   63.02    2.30
  -2   2  10   62.83    2.37
  -2  -3  10    2.90    0.65
  -2   3 -10    3.08    0.66
   2   3  10    2.95    0.59
   2  -3 -10    3.03    0.54
  -2  -3 -10    3.01    0.61
  -2   3  10    3.74    0.58
   2   3 -10    3.34    0.62
   2  -3  10    4.02    0.72
   2   4  10   18.02    1.34
  -2   4 -10   19.10    1.40
   2  -4 -10   19.07    1.28
  -2  -4  10   19.34    1.43
  -2  -4 -10   20.15    1.39
   2  -4  10   19.69    1.45
  -2   4  10   16.98    1.29
   2   4 -10   20.68    1.37
   2  -5 -10   11.26    1.15
   2   5  10   11.46    1.19
  -2  -5  10   11.30    1.21
  -2   5 -10   12.18    1.28
   2  -5  10    7.35    1.01
  -2  -5 -10    8.96    1.13
   2   5 -10   11.14    1.14
  -2   5  10   12.52    1.20
   3   0  10   -0.08    0.14
   3   0 -10   -0.05    0.19
   3   0 -10    0.04    0.16
  -3   0  10    0.10    0.19
  -3   0 -10    0.15    0.24
   3  -1 -10   38.99    1.46
   3   1  10   39.94    1.61
  -3   1 -10   37.58    1.87
   3  -1 -10   37.56    1.68
  -3  -1  10   41.10    1.76
   3  -1  10   39.05    1.63
  -3   1  10   42.63    1.61
   3  -1  10   38.05    1.31
   3   1 -10   40.51    1.54
   3   1 -10   38.03    1.56
  -3  -1 -10   39.88    1.84
   3  -2 -10   82.75    2.64
  -3   2 -10   73.47    2.94
   3   2  10   81.72    2.86
  -3  -2  10   82.67    3.00
   3  -2 -10   80.56    2.97
   3  -2  10   79.27    2.89
  -3   2  10   78.81    2.84
   3   2 -10   89.61    2.79
  -3   2  10   84.24    2.66
  -3  -2 -10   82.29    2.99
   3   3  10  112.92    3.95
  -3   3 -10  126.52    4.19
   3  -3 -10  121.64    4.15
  -3  -3  10  121.28    4.16
   3  -3 -10  111.65    3.78
  -3  -3 -10  120.86    4.07
  -3   3  10  120.21    4.01
   3  -3  10  125.19    4.12
   3   3 -10  123.97    3.90
   3   4  10   55.98    2.51
  -3   4 -10   57.76    2.64
   3  -4 -10   57.03    2.36
  -3  -4  10   55.19    2.59
   3   4 -10   52.23    2.38
  -3   4  10   59.07    2.54
  -3  -4 -10   57.13    2.55
   3  -4  10   58.05    2.61
   4   0 -10   22.26    1.19
   4   0 -10   23.11    0.98
  -4   0 -10   21.68    1.32
   4   0  10   24.49    1.07
   4   0  10   23.83    1.09
  -4   1 -10    4.23    0.65
  -4  -1  10    3.21    0.59
   4  -1 -10    3.29    0.52
   4   1  10    3.82    0.50
  -4  -1 -10    3.86    0.63
   4  -1  10    4.81    0.55
   4   1 -10    4.23    0.48
   4   1 -10    3.81    0.49
   4  -1  10    4.02    0.40
  -4   1  10    3.82    0.54
   4  -2 -10    1.56    0.45
  -4   2 -10    1.63    0.51
  -4  -2  10    1.91    0.52
   4   2  10    2.02    0.47
   4  -2  10    1.48    0.42
   4   2 -10    1.55    0.36
  -4  -2 -10    1.84    0.51
  -4   2  10    1.23    0.36
   4   2 -10    1.78    0.39
  -4   2  10    1.84    0.47
   4  -3 -10    3.17    0.69
   4   3  10    3.00    0.62
  -4  -3  10    2.98    0.67
  -4   3 -10    2.61    0.63
   4  -3  10    3.63    0.72
   4   3 -10    2.71    0.53
  -4  -3 -10    3.20    0.66
  -4   3  10    2.72    0.60
  -4  -4  10    6.15    0.94
   4   4  10    7.11    0.92
  -4   4 -10    6.16    0.89
  -4   4  10    6.47    0.87
  -4  -4 -10    6.82    0.94
   4   4 -10    6.91    0.80
   4  -4  10    6.52    0.89
  -5   0  10    0.49    0.28
   5   0 -10   -0.42    0.18
  -5   0 -10    0.07    0.23
   5   0  10   -0.05    0.19
   5   0  10    0.44    0.24
   5   1  10   23.01    1.23
  -5  -1  10   23.93    1.39
  -5   1 -10   22.64    1.44
   5  -1 -10   21.66    1.30
   5  -1  10   22.61    1.22
  -5  -1 -10   22.06    1.37
  -5   1  10   22.88    1.27
   5  -1  10   21.94    1.02
   5   1 -10   22.47    1.21
   5   2  10   57.56    2.37
   5  -2 -10   59.13    2.47
  -5  -2  10   56.57    2.46
  -5   2 -10   58.09    2.57
  -5   2  10   58.53    2.25
   5  -2  10   56.21    2.36
   5   2 -10   56.52    2.15
  -5  -2 -10   63.01    2.51
  -5  -3  10   57.85    2.64
   5  -3 -10   63.37    2.71
  -5   3 -10   60.02    2.70
   5   3  10   56.40    2.51
   5  -3  10   62.63    2.65
  -5   3  10   58.99    2.50
  -5  -3 -10   56.34    2.54
   5  -4 -10   45.45    2.36
  -5  -4  10   47.67    2.44
  -5   4 -10   41.19    2.29
   5   4  10   39.71    2.19
  -5  -4 -10   43.79    2.27
  -5   4  10   47.32    2.28
   5  -4  10   44.06    2.34
   6   0 -10   30.30    1.58
  -6   0 -10   30.86    1.37
  -6   0  10   32.98    1.64
  -6   0 -10   29.16    1.64
   6   0  10   32.42    1.45
   6  -1 -10   54.16    2.28
   6   1  10   47.59    2.07
  -6   1 -10   55.08    2.42
  -6  -1  10   51.58    2.28
   6  -1  10   51.52    2.12
   6   1 -10   52.43    2.15
  -6  -1 -10   53.14    2.30
  -6   1  10   53.19    2.23
  -6  -2  10   12.81    1.15
   6   2  10   11.59    0.98
   6  -2 -10   11.33    1.04
  -6   2 -10   11.07    1.13
  -6   2  10   11.11    0.93
   6   2 -10    9.45    0.84
  -6  -2 -10   11.46    1.02
   6  -2  10   13.74    1.06
   6   3  10    6.48    0.82
   6  -3 -10    4.99    0.90
  -6   3 -10    5.83    0.90
  -6  -3  10    6.59    0.93
   6  -3  10    4.72    0.86
  -6   3  10    4.87    0.70
  -6  -3 -10    5.43    0.84
  -6   3  10    5.33    0.78
  -6   4 -10    1.79    0.67
   6  -4 -10    1.24    0.62
  -6  -4  10    1.58    0.58
   6   4  10    1.21    0.58
  -6  -4 -10    1.40    0.61
  -6   4  10    2.27    0.63
   6  -4  10    1.94    0.68
   7   0 -10    0.09    0.33
  -7   0 -10   -0.11    0.27
   7   0  10   -0.18    0.22
  -7   0  10    0.15    0.28
  -7   1 -10    1.04    0.49
   7   1  10    0.90    0.41
  -7  -1  10    0.83    0.45
  -7   1 -10    0.88    0.37
   7  -1 -10    1.42    0.49
   7  -1  10    1.06    0.42
   7   1 -10    0.84    0.41
  -7   1  10    1.45    0.50
  -7  -1 -10    0.83    0.43
   7   2  10    9.47    0.93
   7  -2 -10   10.12    1.06
  -7  -2  10    9.21    1.06
  -7   2 -10    6.90    0.95
   7   2 -10    7.97    0.84
  -7   2  10    9.49    0.93
  -7  -2 -10    9.60    0.95
   7  -2  10    9.54    0.96
  -7   3 -10   10.64    1.22
  -7  -3  10   10.98    1.22
   7   3  10   12.17    1.15
   7  -3 -10    9.87    1.10
   7  -3  10   10.45    1.14
  -7   3  10   11.18    1.04
  -7  -3 -10   11.49    1.14
   8   0 -10   66.54    2.84
  -8   0  10   72.23    2.95
   8   0  10   74.48    2.73
  -8   0 -10   71.25    2.90
   8   1  10   83.28    3.08
   8  -1 -10   80.49    3.17
  -8  -1  10   83.70    3.28
  -8   1 -10   85.72    3.05
  -8   1 -10   79.04    3.18
  -8  -1 -10   74.40    3.02
   8   1 -10   76.92    3.06
  -8   1  10   80.77    3.21
   8  -1  10   71.78    2.95
  -8   2 -10   34.53    2.04
   8   2  10   37.56    1.95
  -8   2 -10   29.03    1.77
   8  -2 -10   33.84    1.99
  -8  -2  10   35.14    2.04
   8  -2  10   34.71    1.94
   8   2 -10   34.03    1.80
  -8   2  10   35.28    1.90
  -8  -2 -10   32.60    1.84
  -8   3 -10    3.95    0.88
   8  -3 -10    4.09    0.85
  -8  -3  10    2.36    0.76
   8   3  10    3.83    0.86
  -8  -3 -10    3.71    0.78
  -8   3  10    3.38    0.74
   8  -3  10    4.45    0.93
   9   0  10   -0.35    0.30
   9   0 -10   -0.15    0.34
  -9   0  10    0.03    0.30
   9   1  10    2.65    0.61
  -9   1 -10    1.37    0.50
   9  -1 -10    2.35    0.64
  -9  -1  10    0.96    0.49
   9   1 -10    1.22    0.51
  -9   1  10    2.39    0.68
   9  -1  10    1.67    0.83
   9   2  10    9.69    1.12
  -9   2 -10    7.46    0.98
  -9  -2  10    9.39    1.18
   9  -2 -10    8.31    1.12
   9  -2  10   11.11    1.18
  -9   2  10    9.47    1.08
   9   2 -10    8.62    0.97
  10   0  10   46.02    2.24
  10   0 -10   46.80    2.42
 -10   0  10   45.02    2.43
   0   0  11   -0.06    0.15
   0   0  11    0.08    0.19
   0   0 -11    0.12    0.21
   0  -1 -11    0.06    0.20
   0   1 -11   -0.17    0.19
   0  -1  11   -0.03    0.12
   0   1  11   -0.20    0.18
   0  -1  11    0.36    0.24
   0   1  11    0.24    0.17
   0   2  11   -0.14    0.19
   0  -2 -11    0.05    0.21
   0  -2  11   -0.14    0.22
   0   2 -11    0.03    0.24
   0  -3  11    0.07    0.31
   0   3  11   -0.12    0.25
   0   3 -11    0.10    0.31
   0  -3 -11   -0.25    0.23
   0   4 -11   -0.11    0.34
   0  -4 -11   -0.02    0.29
   0  -4  11   -0.04    0.35
   0   4  11   -0.25    0.32
   1   0  11   -0.08    0.15
  -1   0  11   -0.24    0.16
   1   0 -11    0.21    0.22
  -1   0 -11   -0.18    0.18
  -1   0  11    0.02    0.17
   1   0 -11   -0.14    0.18
  -1   1 -11    6.53    0.72
  -1  -1  11    6.91    0.67
   1   1  11    6.43    0.59
  -1  -1  11    6.56    0.47
   1  -1 -11    6.50    0.64
   1  -1 -11    5.26    0.59
   1   1 -11    6.85    0.53
  -1   1  11    8.32    0.58
  -1  -1 -11    6.91    0.71
   1  -1  11    7.43    0.65
  -1   1  11    7.19    0.63
   1  -1  11    6.97    0.45
   1   1 -11    6.48    0.66
   1  -2 -11   84.99    2.84
  -1   2 -11   83.76    3.02
  -1  -2  11   83.28    2.99
   1   2  11   82.53    2.89
  -1   2  11   81.51    2.89
   1   2 -11   81.88    2.91
  -1  -2 -11   85.24    2.97
   1  -2  11   78.97    2.92
   1   3  11   47.70    2.12
  -1   3 -11   48.55    2.19
  -1  -3  11   51.57    2.27
   1  -3 -11   44.61    1.99
   1  -3  11   45.24    2.16
   1   3 -11   48.71    2.14
  -1  -3 -11   52.30    2.22
  -1   3  11   47.51    2.12
  -1  -4  11   76.66    3.16
   1   4  11   74.07    3.02
   1  -4 -11   75.56    2.95
  -1   4 -11   74.25    3.12
   1  -4  11   72.40    3.11
  -1   4  11   78.54    3.09
  -1  -4 -11   75.02    3.03
   1   4 -11   73.31    3.02
  -2   0  11   70.30    2.30
   2   0 -11   65.59    2.32
  -2   0 -11   67.52    2.59
  -2   0  11   65.25    2.34
   2   0  11   68.81    2.20
   2  -1 -11   68.78    2.51
  -2  -1  11   68.94    2.53
  -2   1 -11   69.47    2.74
   2   1  11   69.69    2.40
   2  -1  11   68.33    2.41
   2  -1  11   69.91    2.06
  -2  -1 -11   65.68    2.62
  -2   1  11   69.59    2.30
   2   1 -11   71.96    2.51
   2   1 -11   70.07    2.26
  -2   1  11   69.21    2.43
   2   2  11    8.13    0.74
  -2  -2  11    9.18    0.86
   2  -2 -11    8.22    0.70
  -2   2 -11    7.14    0.79
   2  -2 -11    8.65    0.82
  -2   2  11    8.43    0.76
  -2  -2 -11    8.62    0.82
   2   2 -11    8.55    0.76
   2  -2  11    8.81    0.82
  -2  -3  11   -0.10    0.28
   2  -3 -11    1.04    0.36
  -2   3 -11   -0.07    0.26
   2   3  11    0.11    0.32
   2  -3  11    0.41    0.38
   2   3 -11    0.36    0.32
  -2  -3 -11    0.28    0.30
  -2   3  11    0.43    0.34
  -2   4 -11    9.93    1.06
   2  -4 -11   13.35    1.06
  -2  -4  11   10.10    1.12
   2   4  11   11.79    1.13
   2   4 -11   11.02    1.04
  -2   4  11    9.24    0.98
  -2  -4 -11   11.20    1.07
   2  -4  11   11.90    1.14
   3   0 -11   -0.27    0.19
  -3   0 -11    0.34    0.30
  -3   0  11   -0.04    0.21
   3   0 -11   -0.07    0.17
   3   0  11    0.12    0.17
  -3  -1  11    1.31    0.40
   3  -1 -11    1.05    0.37
   3   1  11    0.90    0.31
   3  -1 -11    1.17    0.30
  -3   1 -11    1.14    0.46
   3   1 -11    1.29    0.35
  -3   1  11    1.04    0.34
   3  -1  11    1.11    0.25
  -3  -1 -11    1.39    0.44
   3   1 -11    0.98    0.32
  -3   1  11    0.93    0.30
   3  -1  11    0.75    0.29
   3  -2 -11    5.51    0.74
  -3   2 -11    7.16    0.80
   3  -2 -11    5.29    0.55
   3   2  11    5.49    0.65
  -3  -2  11    6.16    0.73
   3   2 -11    6.54    0.66
  -3   2  11    6.25    0.59
   3  -2  11    5.98    0.72
  -3  -2 -11    5.84    0.72
  -3   2  11    5.22    0.66
   3  -3 -11    7.51    0.90
  -3  -3  11    6.77    0.85
   3  -3 -11    6.65    1.01
  -3   3 -11    6.98    0.86
   3   3  11    7.13    0.81
   3   3 -11    6.69    0.76
   3  -3  11    7.21    0.87
  -3   3  11    5.40    0.72
  -3  -3 -11    7.40    0.84
   3   4  11   12.00    1.13
  -3   4 -11   12.50    1.20
   3  -4 -11   12.03    1.02
  -3  -4  11   12.35    1.22
  -3   4  11   12.03    1.15
   3   4 -11   10.06    0.99
   3  -4  11   13.66    1.21
  -3  -4 -11   10.77    1.09
  -4   0 -11  129.35    4.33
  -4   0  11  132.12    4.14
   4   0 -11  133.08    4.13
   4   0  11  138.50    3.89
  -4  -1  11   88.78    3.22
   4   1  11   90.28    3.07
  -4   1 -11   90.86    3.43
   4  -1 -11   91.04    3.20
   4   1 -11   93.75    3.01
   4  -1  11   93.92    3.07
   4   1 -11   96.88    3.00
  -4   1  11   92.28    3.06
  -4  -1 -11   91.05    3.36
   4  -2 -11   18.04    1.27
  -4  -2  11   20.70    1.36
  -4   2 -11   15.71    1.25
   4   2  11   18.33    1.17
   4  -2  11   17.54    1.18
   4   2 -11   18.67    1.08
  -4   2  11   17.74    1.19
  -4   2  11   20.20    1.13
  -4  -2 -11   20.77    1.33
  -4   3 -11    2.14    0.63
  -4  -3  11    1.79    0.57
   4   3  11    1.53    0.49
   4  -3 -11    1.86    0.58
   4   3 -11    1.48    0.44
   4  -3  11    2.53    0.65
  -4   3  11    1.08    0.47
  -4  -3 -11    1.06    0.44
  -4  -4  11   21.03    1.59
  -4   4 -11   19.49    1.53
   4   4 -11   17.27    1.29
   4  -4  11   18.87    1.46
  -4  -4 -11   22.62    1.58
  -4   4  11   18.94    1.41
   5   0  11    0.06    0.18
  -5   0  11   -0.15    0.21
   5   0 -11    0.00    0.26
  -5   0 -11    0.09    0.26
   5  -1 -11   11.22    0.97
  -5   1 -11   11.25    1.04
  -5  -1  11   11.97    1.00
   5   1  11   14.89    0.98
  -5   1  11   12.69    0.95
   5  -1  11   12.85    0.92
  -5  -1 -11   13.01    1.09
   5   1 -11   10.47    0.84
   5   2  11   19.34    1.26
  -5  -2  11   17.63    1.31
   5  -2 -11   20.01    1.33
  -5   2 -11   16.54    1.33
  -5  -2 -11   16.99    1.27
  -5   2  11   17.84    1.14
   5  -2  11   17.10    1.22
   5   3  11   16.84    1.27
   5  -3 -11   17.84    1.36
  -5   3 -11   15.87    1.36
  -5  -3  11   16.44    1.35
   5  -3  11   14.25    1.22
  -5   3  11   16.00    1.21
  -5  -3 -11   14.90    1.26
   5   4  11    4.38    0.88
   5  -4 -11    4.18    0.87
  -5  -4  11    4.62    0.96
  -5   4 -11    4.12    0.91
  -5  -4 -11    4.13    0.83
   5  -4  11    5.36    1.00
  -5   4  11    4.07    0.81
  -6   0 -11   43.75    2.13
   6   0  11   48.30    1.90
   6   0 -11   43.03    1.99
  -6   0  11   48.03    2.11
  -6  -1  11   41.89    2.04
   6  -1 -11   41.86    2.02
   6   1  11   39.77    1.84
  -6   1 -11   42.31    2.17
   6   1 -11   45.32    1.95
  -6  -1 -11   42.00    2.07
   6  -1  11   43.56    1.90
  -6   1  11   39.80    1.92
   6  -2 -11   12.89    1.12
  -6  -2  11   11.69    1.12
  -6   2 -11   13.26    1.25
   6   2  11   14.28    1.12
   6   2 -11   11.56    0.93
  -6  -2 -11   11.92    1.09
   6  -2  11   13.40    1.12
  -6   2  11   12.46    1.01
  -6  -3  11    1.12    0.51
  -6   3 -11    2.23    0.73
   6  -3 -11    0.95    0.54
   6   3  11    2.26    0.63
  -6  -3 -11    2.79    0.70
  -6   3  11    1.54    0.54
   6  -3  11    1.42    0.58
  -7   0  11    0.45    0.36
   7   0 -11    0.12    0.32
  -7   0 -11   -0.02    0.29
   7   0  11   -0.10    0.21
  -7   1 -11   33.91    1.68
   7   1  11   33.40    1.71
   7  -1 -11   34.24    1.86
  -7   1 -11   34.13    1.93
  -7  -1  11   35.70    1.92
   7  -1  11   36.25    1.77
  -7  -1 -11   33.96    1.86
  -7   1  11   30.46    1.73
   7   1 -11   33.13    1.72
  -7  -2  11   67.40    2.96
  -7   2 -11   72.01    3.13
   7  -2 -11   59.89    2.80
   7   2  11   69.95    2.83
   7  -2  11   66.80    2.81
  -7   2  11   65.77    2.74
  -7  -2 -11   65.49    2.84
   7   2 -11   68.72    2.66
  -7   3 -11   72.27    3.36
  -7  -3  11   77.96    3.34
   7   3  11   75.20    3.16
   7  -3 -11   74.90    3.29
   7  -3  11   78.54    3.27
  -7   3  11   74.34    3.14
  -7   3  11   71.04    2.92
  -7  -3 -11   73.00    3.15
  -8   0  11    6.78    0.90
  -8   0 -11    6.62    0.91
   8   0  11    8.41    0.85
   8   0 -11    6.63    0.86
  -8  -1  11    2.09    0.63
  -8   1 -11    2.28    0.66
   8   1  11    3.37    0.68
  -8   1 -11    3.08    0.65
   8  -1 -11    2.49    0.64
   8   1 -11    3.78    0.73
  -8  -1 -11    2.59    0.65
   8  -1  11    2.19    0.64
  -8   1  11    2.83    0.71
  -8  -2  11    6.00    0.99
   8  -2 -11    4.22    0.89
  -8   2 -11    3.88    0.80
  -8   2 -11    6.29    0.98
   8   2  11    5.65    0.82
   8  -2  11    4.19    0.88
  -8   2  11    5.04    0.89
  -8  -2 -11    4.92    0.88
   8   2 -11    5.35    0.81
   9   0  11   -0.25    0.33
   9   0 -11    0.19    0.45
  -9   0  11    0.00    0.34
   9   1  11   12.74    1.18
  -9  -1  11   14.35    1.35
   9  -1 -11   12.56    1.23
   9   1 -11   14.36    1.24
  -9   1  11   15.46    1.36
  -9  -1 -11   14.74    1.40
  -9  -2  11   22.96    1.75
   9  -2 -11   24.40    1.75
   9   2  11   20.62    1.59
  -9   2 -11   21.83    1.57
   9   2 -11   21.81    1.57
  -9  -2 -11   24.74    1.62
   9  -2  11   23.15    1.65
  -9   2  11   21.61    1.62
   0   0 -12  313.34    8.50
   0   0  12  301.34    8.16
   0   0  12  318.54    8.12
   0  -1  12  330.84    9.10
   0   1  12  332.30    9.02
   0  -1 -12  342.11    9.27
   0  -1  12  357.05    8.68
   0   1 -12  345.80    9.40
   0   2  12   41.37    1.84
   0  -2 -12   45.31    1.95
   0   2 -12   42.10    1.95
   0  -2  12   41.63    1.92
   0  -3 -12   25.45    1.48
   0   3 -12   24.97    1.53
   0  -3  12   24.86    1.57
   0   3  12   27.89    1.57
   0   4  12   32.94    1.81
   0  -4  12   28.70    1.80
   0  -4 -12   23.43    1.57
   0   4 -12   28.77    1.77
   1   0 -12   -0.10    0.20
  -1   0 -12   -0.09    0.22
  -1   0  12    0.20    0.19
  -1   0  12    0.10    0.21
   1   0 -12    0.00    0.21
   1   0  12    0.29    0.20
   1  -1 -12   11.36    0.89
  -1  -1  12   10.38    0.64
   1  -1 -12    8.99    0.77
  -1  -1  12   11.32    0.85
   1   1  12   11.89    0.81
  -1   1 -12    9.71    0.92
   1  -1  12   10.90    0.83
   1  -1  12   11.22    0.61
   1   1 -12   10.31    0.88
  -1   1  12   11.37    0.83
   1   1 -12   10.43    0.67
  -1  -1 -12   10.28    0.92
  -1   1  12   10.28    0.69
   1  -2 -12   19.33    1.16
  -1   2 -12   18.79    1.25
  -1  -2  12   21.83    1.32
   1   2  12   18.86    1.17
   1  -2  12   18.30    1.21
   1   2 -12   21.37    1.28
  -1   2  12   18.42    1.17
  -1  -2 -12   20.73    1.27
   1   3  12   23.30    1.43
  -1  -3  12   24.56    1.51
   1  -3 -12   25.95    1.44
  -1   3 -12   23.50    1.50
   1   3 -12   22.90    1.43
  -1  -3 -12   23.79    1.45
   1  -3  12   21.72    1.45
  -1   3  12   23.67    1.43
  -1  -4  12   14.56    1.31
   1  -4 -12   12.55    1.15
   1   4  12   15.79    1.28
  -1   4 -12   17.07    1.39
   1  -4  12   16.12    1.39
   1   4 -12   16.77    1.31
  -1  -4 -12   16.19    1.28
  -1   4  12   15.58    1.27
  -2   0  12  174.61    5.06
  -2   0  12  174.72    4.96
   2   0 -12  179.18    5.07
  -2   0 -12  176.34    5.38
   2   0  12  173.53    4.86
   2   1  12  106.35    3.35
   2  -1 -12  109.14    3.50
  -2   1 -12  105.49    3.75
  -2  -1  12  110.02    3.52
   2  -1  12  104.21    3.36
   2   1 -12  107.27    3.19
  -2   1  12  107.88    3.25
  -2   1  12   99.40    3.34
   2   1 -12  102.26    3.46
  -2  -1 -12   96.76    3.59
   2  -2 -12   23.94    1.46
   2   2  12   26.79    1.43
   2  -2 -12   27.83    1.35
  -2  -2  12   28.54    1.55
  -2   2 -12   26.51    1.56
   2  -2  12   25.78    1.45
  -2  -2 -12   26.43    1.52
   2   2 -12   25.96    1.40
  -2   2  12   27.20    1.45
   2  -3 -12    2.01    0.50
  -2  -3  12    3.30    0.69
  -2   3 -12    2.15    0.60
   2   3  12    2.03    0.54
   2  -3  12    2.07    0.59
   2   3 -12    2.49    0.57
  -2   3  12    2.01    0.53
  -2  -3 -12    2.23    0.58
  -2  -4  12    7.77    1.05
  -2   4 -12    8.58    1.02
   2  -4 -12    8.95    0.93
   2   4  12    8.58    0.99
  -2  -4 -12    7.97    0.96
   2   4 -12   10.28    1.06
  -2   4  12    9.01    0.99
   2  -4  12    8.05    1.04
  -3   0  12   -0.15    0.20
   3   0 -12   -0.10    0.19
   3   0 -12    0.14    0.22
  -3   0 -12    0.12    0.23
   3   0  12    0.00    0.18
   3   1  12   32.91    1.50
  -3   1 -12   29.63    1.72
   3  -1 -12   33.76    1.40
   3  -1 -12   30.68    1.58
  -3  -1  12   29.90    1.56
   3  -1  12   33.31    1.53
  -3  -1 -12   29.74    1.70
   3   1 -12   31.21    2.16
  -3   1  12   33.33    1.47
   3   1 -12   33.45    1.43
  -3   1  12   29.70    1.49
   3  -2 -12   69.64    2.77
   3  -2 -12   70.71    2.46
  -3   2 -12   72.27    2.93
   3   2  12   70.92    2.67
  -3  -2  12   69.88    2.80
  -3   2  12   64.89    2.62
   3   2 -12   69.38    2.58
   3  -2  12   71.30    2.72
  -3  -2 -12   70.92    2.84
  -3  -3  12   90.41    3.44
  -3   3 -12   91.74    3.48
   3  -3 -12   80.89    3.05
   3  -3 -12   86.79    3.41
   3   3  12   81.79    3.20
  -3  -3 -12   81.71    3.28
  -3   3  12   88.50    3.29
   3  -3  12   87.28    3.36
   3   3 -12   85.58    3.13
   3   4  12   47.85    2.37
  -3   4 -12   49.46    2.52
  -3  -4  12   47.71    2.48
  -3  -4 -12   48.02    2.40
  -3   4  12   45.70    2.32
   3  -4  12   48.41    2.43
   3   4 -12   45.39    2.26
  -4   0 -12   16.43    1.20
  -4   0  12   16.63    1.10
   4   0 -12   16.18    1.08
   4  -1 -12    3.70    0.66
   4   1  12    6.15    0.65
  -4   1 -12    4.41    0.79
  -4  -1  12    4.90    0.66
  -4   1  12    5.74    0.63
  -4  -1 -12    4.78    0.72
   4  -1  12    4.97    0.62
   4   1 -12    3.90    0.52
  -4  -2  12    9.98    0.99
  -4   2 -12    7.97    0.95
   4  -2 -12    5.56    0.78
   4   2  12    7.90    0.80
   4   2 -12   10.30    0.84
  -4   2  12    8.40    0.82
  -4  -2 -12    9.85    1.00
  -4   2  12    8.34    0.75
   4  -2  12    7.75    0.82
   4  -3 -12    4.98    0.89
  -4   3 -12    9.04    1.02
  -4  -3  12    6.27    0.90
   4   3  12    8.33    0.92
   4  -3  12    6.73    0.90
   4   3 -12    5.48    0.71
  -4   3  12    8.01    0.88
  -4  -3 -12    6.87    0.88
  -4  -4  12    2.06    0.73
   4   4  12    1.75    0.61
  -4  -4 -12    2.04    0.69
   4   4 -12    1.53    0.53
   4  -4  12    0.32    0.51
  -4   4  12    1.31    0.57
  -5   0  12    0.25    0.29
  -5   0 -12   -0.26    0.22
   5   0  12   -0.02    0.19
   5   0 -12   -0.43    0.22
   5  -1 -12   13.42    1.09
   5   1  12   14.77    1.04
  -5   1 -12   16.35    1.28
  -5  -1  12   16.96    1.23
   5   1 -12   15.09    1.03
  -5   1  12   15.33    1.07
   5  -1  12   15.95    1.06
  -5  -1 -12   14.52    1.20
  -5   2 -12   39.08    2.18
   5  -2 -12   36.54    1.98
   5   2  12   37.44    1.88
  -5  -2  12   38.98    2.04
  -5   2  12   37.91    1.80
   5  -2  12   38.97    1.92
  -5  -2 -12   39.62    2.04
  -5   2  12   40.48    1.96
   5  -3 -12   54.43    2.61
   5   3  12   49.07    2.42
  -5   3 -12   55.83    2.71
  -5  -3  12   53.31    2.60
   5  -3  12   55.90    2.56
  -5   3  12   54.55    2.47
  -5  -3 -12   57.35    2.61
  -5  -4  12   35.34    2.19
  -5   4 -12   38.53    2.30
   5   4  12   36.60    2.11
   5  -4 -12   33.55    2.13
  -5  -4 -12   33.95    2.07
   5  -4  12   30.29    2.05
  -5   4  12   37.25    2.07
   6   0 -12   10.84    0.95
   6   0  12   10.42    0.84
  -6   0  12   10.14    0.98
  -6   0 -12   12.37    1.09
  -6   1 -12   39.78    2.10
   6  -1 -12   37.15    1.92
   6   1  12   36.55    1.77
  -6  -1  12   37.11    1.98
   6  -1  12   38.72    1.80
  -6  -1 -12   33.32    1.93
  -6   1  12   39.45    1.90
   6   1 -12   37.79    1.80
   6   2  12    8.41    0.92
  -6   2 -12    7.21    1.01
  -6  -2  12    6.14    0.93
   6  -2 -12    8.42    0.99
   6  -2  12    6.07    0.84
  -6   2  12    7.47    0.85
  -6  -2 -12    7.96    0.93
  -6   3 -12    5.43    1.03
  -6  -3  12    2.41    0.70
   6  -3 -12    3.30    0.82
   6   3  12    3.50    0.76
  -6   3  12    3.48    0.76
   6  -3  12    2.10    0.68
  -6  -3 -12    3.59    0.83
  -7   0  12   -0.08    0.30
   7   0  12    0.13    0.29
  -7   0 -12    0.14    0.38
   7   0 -12   -0.10    0.29
  -7   1 -12    2.76    0.60
   7   1  12    2.26    0.57
   7  -1 -12    2.97    0.69
  -7  -1  12    2.57    0.65
  -7   1 -12    2.98    0.77
   7  -1  12    3.10    0.64
  -7  -1 -12    3.70    0.78
   7   1 -12    3.20    0.66
  -7   1  12    3.17    0.68
  -7   2 -12   12.54    1.29
   7   2  12   11.11    1.09
   7  -2 -12   10.41    1.11
  -7  -2  12   13.49    1.29
  -7   2  12   13.38    1.17
   7  -2  12   13.33    1.19
  -7  -2 -12   12.95    1.20
   7   3  12   11.15    1.20
  -7  -3  12   11.23    1.35
  -7   3 -12   11.20    1.35
  -7  -3 -12   13.48    1.30
   7  -3  12   12.56    1.23
  -7   3  12   11.00    1.14
  -8   0 -12   79.60    3.33
   8   0 -12   83.09    3.27
   8   0  12   81.67    3.02
  -8   0  12   85.67    3.38
   8   1  12   74.60    2.95
   8  -1 -12   69.55    3.06
  -8   1 -12   70.20    3.10
  -8   1 -12   70.43    3.10
  -8  -1  12   74.53    3.15
   8   1 -12   72.66    2.98
  -8   1  12   71.48    3.04
   8   2  12   32.91    1.93
  -8   2 -12   34.18    1.94
  -8  -2  12   33.19    2.10
   8  -2 -12   35.19    2.07
  -8   2 -12   34.02    2.13
   8  -2  12   34.70    2.01
   8   2 -12   33.40    2.10
  -8   2  12   31.55    1.91
  -8  -2 -12   32.79    1.97
   9   0 -12   -0.28    0.43
  -9   0  12    0.34    0.44
  -9   0 -12   -0.46    0.37
  -9  -1  12    3.88    0.88
   9   1  12    6.25    0.90
   9  -1 -12    3.96    0.91
  -9   1  12    5.80    0.89
  -9  -1 -12    5.41    0.90
   9   1 -12    3.18    0.77
   0   0  13   -0.03    0.21
   0   0 -13    0.20    0.26
   0   0  13    0.00    0.17
   0  -1 -13    0.29    0.27
   0   1 -13    0.67    0.39
   0  -1  13   -0.03    0.23
   0   1  13    0.24    0.21
   0  -1  13   -0.07    0.17
   0  -2  13    0.10    0.31
   0   2  13    0.02    0.23
   0  -2 -13    0.26    0.30
   0   2 -13    0.07    0.31
   0   3  13   -0.17    0.27
   0  -3 -13    0.22    0.33
   0   3 -13    0.10    0.32
   0  -3  13    0.19    0.32
   0  -4  13   -0.30    0.33
   0  -4 -13    0.18    0.38
   0   4 -13   -0.02    0.35
   0   4  13    0.18    0.44
   1   0 -13    0.03    0.25
   1   0  13   -0.05    0.18
  -1   0  13    0.04    0.21
  -1   0  13    0.24    0.22
  -1   0 -13    0.02    0.27
   1   0 -13    0.02    0.20
  -1  -1  13   14.27    1.01
  -1  -1  13   14.45    0.78
  -1   1 -13   15.04    1.18
   1  -1 -13   14.24    1.01
   1   1  13   13.19    0.91
  -1  -1 -13   14.69    1.13
   1   1 -13   11.28    1.00
   1  -1  13   16.14    1.03
  -1   1  13   12.60    0.91
   1   2  13   63.87    2.49
  -1   2 -13   58.93    2.60
   1  -2 -13   65.24    2.48
  -1  -2  13   62.41    2.57
  -1   2  13   61.65    2.46
   1  -2  13   63.15    2.56
   1   2 -13   65.17    2.58
  -1  -2 -13   62.64    2.58
   1   3  13   44.33    2.11
   1  -3 -13   43.59    2.04
  -1   3 -13   40.38    2.13
  -1  -3  13   44.94    2.18
   1   3 -13   42.85    2.10
   1  -3  13   43.17    2.14
  -1  -3 -13   42.06    2.10
  -1   3  13   39.81    2.00
  -1  -4  13   49.50    2.55
   1  -4 -13   44.69    2.27
  -1   4 -13   51.90    2.57
   1   4  13   50.11    2.43
   1  -4  13   49.07    2.52
   1   4 -13   50.88    2.46
  -1   4  13   50.69    2.44
  -1  -4 -13   49.29    2.43
  -2   0 -13  114.13    3.99
   2   0  13  121.91    3.56
   2   0 -13  124.54    3.77
   2   0 -13  116.24    3.70
  -2   0  13  115.07    3.70
  -2   0  13  117.26    3.60
   2   1  13   19.73    1.13
  -2   1 -13   22.13    1.43
   2  -1 -13   20.54    1.20
   2  -1 -13   20.54    1.23
  -2  -1  13   19.84    1.00
  -2  -1  13   18.53    1.18
  -2  -1 -13   17.99    1.29
  -2   1  13   19.59    1.14
   2   1 -13   20.79    1.07
   2   1 -13   19.53    1.25
   2  -1  13   18.11    1.11
   2   2  13   33.60    1.65
  -2  -2  13   32.35    1.72
   2  -2 -13   31.79    1.53
   2  -2 -13   28.91    1.69
  -2   2 -13   28.94    1.76
   2  -2  13   32.60    1.68
  -2  -2 -13   29.69    1.73
  -2   2  13   32.35    1.66
   2   2 -13   33.13    1.66
   2  -3 -13    0.49    0.36
  -2  -3  13    0.11    0.38
   2   3  13    0.63    0.38
  -2   3 -13   -0.08    0.36
  -2   3  13    0.26    0.33
   2  -3  13    0.99    0.49
  -2  -3 -13    0.58    0.40
   2   3 -13    0.48    0.39
   2   4  13    5.81    0.88
  -2  -4  13    5.22    1.00
  -2   4 -13    4.80    0.94
   2  -4 -13    5.65    0.82
   2  -4  13    6.52    1.09
  -2   4  13    5.15    0.92
  -2  -4 -13    6.73    0.98
   2   4 -13    5.92    0.89
   3   0 -13   -0.13    0.19
   3   0 -13   -0.06    0.24
  -3   0  13    0.09    0.27
  -3   0 -13    0.22    0.31
   3  -1 -13    6.11    0.62
   3   1  13    4.27    0.59
  -3  -1  13    5.55    0.70
   3  -1 -13    5.50    0.73
  -3   1 -13    5.22    0.77
  -3   1  13    6.12    0.68
  -3   1  13    5.87    0.62
   3  -1  13    6.41    0.68
  -3  -1 -13    4.90    0.77
   3   1 -13    6.25    0.63
   3  -2 -13   45.83    2.13
   3   2  13   43.22    1.98
   3  -2 -13   40.23    2.41
  -3  -2  13   43.14    2.09
  -3   2 -13   37.33    2.11
  -3  -2 -13   47.01    2.23
   3   2 -13   45.15    1.97
  -3   2  13   41.42    1.96
   3  -2  13   44.77    2.05
   3   3  13    7.30    0.89
  -3   3 -13    4.52    0.85
  -3  -3  13    6.60    0.89
   3   3 -13    6.05    0.79
  -3  -3 -13    5.98    0.89
  -3   3  13    4.50    0.72
   3  -3  13    6.96    0.93
  -3  -4  13   22.91    1.68
  -3   4 -13   23.19    1.72
   3   4  13   21.08    1.60
   3  -4  13   21.55    1.62
   3   4 -13   20.72    1.50
  -3  -4 -13   21.19    1.60
  -3   4  13   22.95    1.63
   4   0 -13  109.08    3.64
  -4   0 -13  111.20    3.92
  -4   0  13  108.72    3.70
   4   1  13  160.49    4.99
  -4  -1  13  168.83    5.24
   4  -1 -13  167.80    5.22
  -4   1 -13  183.02    5.58
   4   1 -13  169.36    4.97
   4  -1  13  171.12    5.03
  -4   1  13  161.37    5.00
  -4  -1 -13  157.69    5.38
  -4   1  13  167.14    5.10
  -4  -2  13   22.84    1.51
  -4   2 -13   23.99    1.66
   4   2  13   22.72    1.39
   4  -2 -13   22.47    1.51
  -4   2  13   24.74    1.46
   4  -2  13   24.94    1.46
  -4  -2 -13   20.61    1.49
  -4  -3  13    0.35    0.45
  -4   3 -13   -0.15    0.41
   4   3  13    0.01    0.34
   4  -3 -13    0.22    0.39
   4  -3  13    0.41    0.37
  -4   3  13    0.20    0.34
  -4  -3 -13   -0.14    0.30
   4   3 -13    0.26    0.33
  -4  -4  13   14.97    1.43
   4   4  13   13.41    1.33
  -4   4 -13   10.36    1.24
   4   4 -13   11.93    1.15
  -4  -4 -13   13.23    1.30
  -4   4  13   13.28    1.29
   4  -4  13   12.89    1.34
  -5   0  13    0.27    0.29
  -5   0 -13    0.22    0.32
   5   0 -13   -0.27    0.24
   5  -1 -13   11.31    1.02
   5   1  13   10.80    0.91
  -5  -1  13   10.52    1.02
  -5   1 -13   11.23    1.15
  -5   1  13   11.00    0.94
   5   1 -13   12.53    0.95
   5  -1  13   10.62    0.91
  -5  -1 -13   10.20    1.06
   5  -2 -13   26.68    1.67
  -5  -2  13   25.62    1.66
  -5   2 -13   23.04    1.72
   5   2  13   24.25    1.53
  -5   2  13   26.85    1.47
  -5   2  13   24.57    1.54
  -5  -2 -13   27.78    1.75
   5  -2  13   24.30    1.51
  -5  -3  13   20.10    1.55
   5   3  13   18.36    1.44
  -5   3 -13   15.46    1.50
   5  -3 -13   17.62    1.44
   5  -3  13   17.93    1.43
  -5  -3 -13   19.07    1.49
  -5   3  13   20.47    1.44
   6   0 -13   16.74    1.23
  -6   0  13   17.79    1.29
  -6   0 -13   16.00    1.29
   6   0  13   14.73    1.03
  -6  -1  13   41.78    2.16
  -6   1 -13   46.21    2.33
   6  -1 -13   43.37    2.15
   6   1  13   46.91    2.05
  -6  -1 -13   39.06    2.16
   6  -1  13   42.76    2.00
  -6   1  13   42.00    2.02
   6   1 -13   43.27    2.00
   6   2  13    2.52    0.61
   6  -2 -13    2.15    0.65
  -6  -2  13    2.23    0.71
  -6   2 -13    2.26    0.74
  -6  -2 -13    3.03    0.77
   6  -2  13    2.43    0.62
  -6   2  13    2.02    0.56
  -6   3 -13    1.68    0.71
   6  -3 -13    0.95    0.58
   6   3  13    1.32    0.55
  -6  -3  13    2.97    0.82
  -6  -3 -13    1.63    0.66
   6  -3  13    2.60    0.70
  -6   3  13    1.13    0.55
  -7   0 -13    0.16    0.37
   7   0 -13   -0.25    0.31
   7   0  13   -0.04    0.27
  -7   0  13    0.22    0.32
   7  -1 -13   12.63    1.19
   7   1  13   12.41    1.06
  -7   1 -13   13.74    1.31
  -7  -1  13   16.89    1.38
  -7   1  13   15.12    1.23
   7   1 -13   12.86    1.09
  -7  -1 -13   11.51    1.19
   7   2  13   35.35    1.95
  -7  -2  13   36.44    2.12
   7  -2 -13   37.33    2.10
  -7   2 -13   36.55    2.21
  -7   2  13   35.71    1.93
   7  -2  13   33.91    1.94
  -7  -2 -13   33.19    2.05
   8   0 -13    1.12    0.56
  -8   0 -13    0.71    0.49
  -8   0  13    0.66    0.52
  -8   1 -13    0.94    0.56
   8   1  13    0.48    0.45
  -8  -1  13    0.83    0.55
  -8  -1 -13    1.35    0.62
   8   1 -13    0.85    0.49
  -8   1  13    1.29    0.54
  -8   2 -13    1.08    0.54
  -8  -2  13    0.95    0.56
  -8   2 -13    1.65    0.71
   8   2  13    1.71    0.62
   8  -2 -13    2.42    0.73
   8  -2  13    2.00    0.67
  -8  -2 -13    1.12    0.55
  -8   2  13    2.16    0.66
   9   0 -13    0.29    0.46
  -9   0 -13    0.21    0.49
  -9   0  13    0.38    0.50
   0   0  14  275.58    7.63
   0   0 -14  288.89    8.00
   0   0  14  285.40    7.56
   0   1  14   73.38    2.56
   0  -1 -14   67.93    2.74
   0   1 -14   70.58    2.83
   0  -1  14   65.42    2.55
   0  -2 -14   37.26    1.87
   0  -2  14   36.20    1.85
   0   2 -14   40.10    2.02
   0   2  14   34.18    1.75
   0  -3  14    1.22    0.54
   0   3  14    0.84    0.48
   0   3 -14    2.15    0.61
   0  -3 -14    1.45    0.51
   0  -4  14   15.23    1.42
   0  -4 -14   14.69    1.32
   0   4 -14   17.80    1.45
   0   4  14   16.56    1.37
   1   0 -14   -0.11    0.25
   1   0 -14   -0.15    0.22
  -1   0  14    0.10    0.23
  -1   0  14    0.21    0.28
  -1   0 -14    0.18    0.29
  -1  -1  14   28.53    1.51
   1  -1 -14   27.05    1.49
   1   1  14   31.57    1.48
  -1   1 -14   28.69    1.68
  -1  -1 -14   27.75    1.63
   1  -1  14   27.54    1.46
  -1   1  14   28.29    1.43
   1   1 -14   29.74    1.64
  -1   2 -14   17.35    1.33
   1   2  14   18.94    1.22
   1  -2 -14   18.90    1.23
  -1  -2  14   18.19    1.28
   1   2 -14   18.35    1.29
  -1   2  14   18.81    1.25
   1  -2  14   19.08    1.30
  -1  -2 -14   16.57    1.28
   1  -3 -14   16.69    1.25
  -1  -3  14   15.16    1.27
   1   3  14   14.76    1.20
  -1   3 -14   16.42    1.35
   1  -3  14   14.56    1.26
  -1   3  14   15.61    1.23
   1   3 -14   16.09    1.28
  -1  -3 -14   15.78    1.28
   1  -4 -14    3.21    0.71
  -1   4 -14    5.88    0.94
   1   4  14    2.75    0.72
  -1  -4  14    3.59    0.85
  -1  -4 -14    4.56    0.89
   1  -4  14    4.63    0.92
  -1   4  14    2.54    0.71
   1   4 -14    4.28    0.89
   2   0 -14  121.20    3.89
  -2   0  14  126.20    3.93
   2   0 -14  124.02    3.94
  -2   0 -14  125.81    4.23
  -2   0  14  123.19    3.80
   2  -1 -14   50.66    2.15
  -2   1 -14   57.45    2.56
  -2  -1  14   57.45    1.98
   2   1  14   57.47    2.19
  -2  -1  14   49.38    2.22
   2  -1 -14   50.46    2.23
  -2  -1 -14   59.55    2.57
  -2   1  14   54.23    2.18
   2  -1  14   56.54    2.22
   2   1 -14   54.65    2.32
  -2   1  14   57.97    2.82
   2  -2 -14   18.98    1.19
  -2  -2  14   16.61    1.27
   2   2  14   17.57    1.20
  -2   2 -14   18.58    1.42
  -2  -2 -14   16.87    1.32
  -2   2  14   20.24    1.31
   2  -2  14   18.94    1.29
   2   2 -14   18.21    1.26
  -2   3 -14    9.29    1.09
  -2  -3  14   10.69    1.10
   2  -3 -14   12.69    1.04
   2   3  14   11.10    1.04
  -2   3  14    9.94    1.01
   2   3 -14   12.33    1.12
  -2  -3 -14   11.45    1.12
   2  -3  14   10.10    1.10
   2  -4 -14   10.10    1.06
  -2  -4  14    9.25    1.19
  -2   4 -14    9.00    1.14
   2   4  14    8.28    1.05
   2  -4  14   10.49    1.23
  -2   4  14    9.94    1.08
  -2  -4 -14    9.46    1.17
   2   4 -14    8.51    1.01
  -3   0 -14    0.22    0.32
  -3   0  14    0.01    0.28
  -3   0  14    0.22    0.28
   3   0 -14   -0.05    0.24
   3   0 -14    0.29    0.31
   3  -1 -14   20.28    1.15
   3  -1 -14   19.70    1.30
  -3   1 -14   21.76    1.49
  -3  -1  14   20.44    1.32
   3   1  14   20.13    1.22
   3  -1  14   19.20    1.21
  -3   1  14   22.47    1.25
  -3   1  14   22.67    1.28
  -3  -1 -14   18.98    1.41
   3  -2 -14   72.75    2.94
  -3  -2  14   69.89    2.89
  -3   2 -14   69.77    3.11
   3   2  14   71.25    2.78
  -3   2  14   72.39    2.81
  -3  -2 -14   64.38    2.93
   3  -2  14   72.92    2.85
   3   2 -14   73.80    2.82
  -3  -3  14   64.44    2.83
  -3   3 -14   60.17    2.88
   3   3  14   57.66    2.61
  -3  -3 -14   59.72    2.76
   3   3 -14   59.11    2.57
   3  -3  14   56.04    2.68
  -3   3  14   59.26    2.63
  -3   4 -14   65.82    3.17
  -3  -4  14   62.67    3.03
   3   4  14   66.78    3.02
  -3   4  14   66.18    3.00
   3  -4  14   61.02    3.01
  -3  -4 -14   71.90    3.17
   3   4 -14   68.34    2.94
  -4   0  14    5.72    0.74
  -4   0 -14    6.08    0.81
   4   0 -14    4.36    0.64
  -4   1 -14   21.41    1.52
   4   1  14   23.17    1.30
  -4  -1  14   19.89    1.37
   4  -1 -14   19.93    1.38
   4   1 -14   20.02    1.20
  -4   1  14   17.93    1.19
   4  -1  14   18.26    1.19
  -4   1  14   22.40    1.33
  -4  -1 -14   19.07    1.47
  -4  -2  14   10.15    1.05
  -4   2 -14    9.86    1.19
   4   2  14   10.68    1.00
   4  -2 -14    8.72    0.98
   4  -2  14    7.79    0.89
  -4  -2 -14    7.99    1.03
  -4   2  14    7.12    0.87
  -4   3 -14    1.39    0.63
   4   3  14    0.92    0.47
  -4  -3  14    1.51    0.62
   4  -3 -14    0.90    0.55
  -4  -3 -14    1.57    0.59
  -4   3  14    1.27    0.51
   4  -3  14    1.52    0.57
  -5   0  14    0.11    0.30
  -5   0 -14   -0.13    0.29
   5   0 -14    0.15    0.32
  -5   1 -14   17.59    1.43
  -5  -1  14   14.50    1.23
   5   1  14   16.34    1.13
   5  -1 -14   13.84    1.16
   5  -1  14   14.75    1.13
  -5   1  14   16.54    1.18
  -5  -1 -14   13.75    1.26
   5   1 -14   15.01    1.12
   5  -2 -14   67.12    2.95
  -5  -2  14   66.03    2.94
   5   2  14   73.55    2.90
  -5   2 -14   68.56    3.20
  -5  -2 -14   65.50    3.03
   5  -2  14   66.03    2.80
  -5   2  14   71.16    2.87
   5  -3 -14   29.61    1.91
   5   3  14   28.69    1.80
  -5  -3  14   29.12    1.89
  -5   3 -14   25.02    1.92
  -5  -3 -14   29.15    1.91
   5  -3  14   29.13    1.85
  -5   3  14   30.01    1.80
  -6   0  14   28.69    1.71
   6   0 -14   27.67    1.65
  -6   0 -14   28.26    1.79
   6  -1 -14   39.02    2.05
  -6   1 -14   36.61    2.12
  -6  -1  14   35.85    2.04
   6   1  14   39.56    1.92
  -6  -1 -14   36.17    2.10
  -6   1  14   41.53    2.03
   6   1 -14   37.52    1.89
  -6   2 -14    5.12    1.01
   6  -2 -14    5.61    0.89
   6   2  14    6.34    0.84
  -6  -2  14    2.94    0.74
   6  -2  14    4.93    0.82
  -6   2  14    5.28    0.96
  -6  -2 -14    5.85    1.03
  -6   2  14    5.87    0.84
  -6  -3  14    5.25    1.00
   6  -3 -14    4.89    0.94
  -6   3 -14    4.18    1.00
   6   3  14    4.22    0.84
  -6  -3 -14    4.74    0.96
  -6   3  14    3.89    0.83
   6  -3  14    5.40    0.90
  -7   0 -14   -0.26    0.33
   7   0 -14   -0.27    0.33
  -7   0  14    0.26    0.39
   7   1  14    3.73    0.73
   7  -1 -14    3.28    0.75
  -7   1 -14    4.06    0.89
  -7  -1  14    4.39    0.94
  -7  -1 -14    3.62    0.83
   7   1 -14    4.12    0.77
  -7   1  14    3.71    0.75
   7   2  14    1.88    0.61
   7  -2 -14    0.62    0.49
  -7   2 -14    1.54    0.65
  -7  -2  14    1.51    0.63
  -7  -2 -14    1.71    0.67
  -7   2  14    2.36    0.65
   7  -2  14    2.60    0.67
  -8   0  14   39.83    2.23
  -8   0 -14   37.58    2.23
   8   0 -14   34.90    2.07
  -8   1 -14   76.14    3.32
  -8  -1  14   79.23    3.43
   8  -1 -14   73.92    3.26
   8   1  14   76.37    3.07
  -8   1  14   74.86    3.19
  -8  -1 -14   70.42    3.24
   8   1 -14   73.01    3.09
   0   0  15    0.05    0.20
   0   0 -15    0.58    0.33
   0   0  15   -0.03    0.24
   0   1  15   -0.16    0.19
   0  -1 -15   -0.15    0.30
   0   1 -15    0.25    0.32
   0  -1  15    0.24    0.29
   0   2  15   -0.08    0.30
   0  -2  15   -0.12    0.28
   0   2 -15    0.24    0.35
   0  -2 -15   -0.08    0.31
   0  -3 -15    0.01    0.35
   0   3 -15    0.20    0.38
   0  -3  15    0.01    0.40
   0   3  15   -0.39    0.28
   0   4  15   -0.10    0.38
   0   4 -15   -0.15    0.39
   0  -4  15    0.02    0.45
   0  -4 -15    0.28    0.43
  -1   0  15    0.45    0.27
  -1   0  15    0.01    0.25
  -1   0 -15   -0.12    0.26
   1   0 -15    0.08    0.28
   1   1  15   30.42    1.52
  -1  -1  15   30.83    1.62
   1  -1 -15   32.43    1.67
  -1   1 -15   29.48    1.74
   1  -1  15   30.44    1.56
  -1  -1 -15   28.59    1.73
  -1   1  15   30.55    1.53
   1   1 -15   28.63    1.68
   1  -2 -15   88.57    3.38
   1   2  15  101.27    3.46
  -1  -2  15   90.04    3.47
  -1   2 -15  102.22    3.82
   1  -2  15   95.90    3.51
   1   2 -15   97.12    3.63
  -1  -2 -15   91.74    3.57
  -1   2  15   96.88    3.44
   1   3  15   64.78    2.78
  -1  -3  15   64.84    2.90
  -1   3 -15   69.07    3.03
   1  -3 -15   62.72    2.72
   1  -3  15   65.59    2.89
  -1   3  15   64.29    2.77
   1   3 -15   63.11    2.85
  -1   4 -15   37.12    2.36
  -1  -4  15   44.49    2.49
   1   4  15   42.71    2.33
   1  -4 -15   46.62    2.33
  -1   4  15   45.88    2.40
   1   4 -15   43.90    2.42
   1  -4  15   50.73    2.62
  -1  -4 -15   42.36    2.35
   2   0 -15   34.18    1.65
  -2   0  15   31.52    1.60
  -2   0  15   32.99    1.53
   2   0 -15   32.92    1.61
  -2   0 -15   35.75    1.89
  -2   1 -15  144.32    4.96
   2  -1 -15  147.00    4.72
   2   1  15  150.96    4.57
   2  -1 -15  142.43    4.58
  -2  -1  15  143.41    4.67
   2   1 -15  157.62    4.81
  -2   1  15  148.64    4.60
   2  -1  15  146.69    4.58
  -2  -1 -15  147.21    4.99
   2   2  15    5.82    0.75
  -2   2 -15    8.38    1.07
  -2  -2  15    6.66    0.86
   2  -2 -15    5.68    0.74
  -2  -2 -15    5.67    0.84
   2  -2  15    6.23    0.79
   2   2 -15    7.48    0.90
  -2   2  15    8.59    0.89
  -2   3 -15    6.64    0.98
   2   3  15    4.81    0.87
  -2  -3  15    6.21    1.05
   2  -3 -15    6.15    0.82
   2   3 -15    5.94    0.86
  -2   3  15    6.15    0.86
   2  -3  15    5.58    0.98
  -2  -3 -15    9.51    1.05
  -3   0  15   -0.01    0.28
  -3   0  15    0.07    0.25
  -3   0 -15    0.28    0.37
   3   0 -15   -0.05    0.24
   3   0 -15    0.02    0.26
  -3  -1  15    6.09    0.76
   3  -1 -15    6.13    0.81
  -3   1 -15    5.40    0.83
   3   1  15    6.69    0.75
   3  -1  15    6.80    0.76
  -3   1  15    6.22    0.76
  -3  -1 -15    6.82    0.95
  -3   2 -15    9.04    1.12
   3  -2 -15   11.70    1.11
  -3  -2  15   10.59    1.04
   3   2  15   10.51    0.97
  -3   2  15   10.89    0.99
  -3  -2 -15    8.85    1.09
   3   2 -15   11.05    1.04
   3  -2  15   10.13    0.97
   3   3  15    6.94    0.94
  -3   3 -15    7.80    1.06
  -3  -3  15    6.34    0.97
  -3  -3 -15    8.29    1.11
   3  -3  15    6.28    0.90
  -3   3  15    5.81    0.83
   3   3 -15    6.20    0.85
  -4   0 -15   68.28    2.94
  -4   0  15   67.28    2.73
   4   0 -15   67.47    2.68
   4   1  15   74.22    2.83
  -4   1 -15   83.11    3.36
   4  -1 -15   78.84    3.08
  -4  -1  15   76.94    3.05
  -4   1  15   79.03    2.94
  -4  -1 -15   69.91    3.17
  -4   1  15   78.63    2.91
   4  -1  15   69.20    2.79
  -4   2 -15   17.19    1.52
   4  -2 -15   15.75    1.31
  -4  -2  15   16.24    1.35
  -4  -2 -15   14.92    1.36
   4  -2  15   18.84    1.34
  -4   2  15   16.84    1.26
   4  -3 -15    6.18    1.08
   4   3  15    6.63    0.91
  -4   3 -15    7.54    1.12
  -4  -3  15    7.27    0.99
  -4   3  15    7.26    0.97
  -4  -3 -15    6.06    0.97
   4  -3  15    5.70    0.87
  -5   0  15    0.24    0.35
  -5   0 -15    0.08    0.37
   5   0 -15    0.10    0.30
  -5  -1  15    1.29    0.56
  -5   1 -15    1.39    0.60
   5   1  15    1.64    0.48
   5  -1 -15    2.58    0.66
  -5   1  15    1.12    0.46
  -5  -1 -15    1.56    0.59
  -5   1  15    2.39    0.60
   5   2  15    2.52    0.64
   5  -2 -15    2.32    0.67
  -5   2 -15    1.75    0.72
  -5  -2  15    2.86    0.70
  -5  -2 -15    1.85    0.64
   5  -2  15    2.36    0.66
  -5   2  15    1.85    0.54
   5   3  15    7.86    1.05
   5  -3 -15    7.77    1.08
  -5   3 -15   10.05    1.30
  -5  -3  15    9.40    1.15
  -5  -3 -15    6.95    1.20
  -5   3  15    8.15    1.02
   5  -3  15    7.90    1.07
   6   0 -15   80.84    3.16
  -6   0 -15   77.94    3.36
  -6   0  15   77.21    3.21
  -6  -1  15   43.40    2.27
   6  -1 -15   40.06    2.16
   6   1  15   37.78    1.95
   6   1 -15   38.63    2.00
  -6   1  15   42.25    2.11
  -6  -2  15   25.60    1.79
  -6   2 -15   25.29    1.86
   6  -2 -15   20.52    1.63
  -6  -2 -15   20.77    1.66
   6  -2  15   22.15    1.56
  -6   2  15   23.87    1.60
  -7   0 -15    0.06    0.40
   7   0 -15    0.21    0.47
  -7   0  15    0.01    0.40
   7  -1 -15   15.18    1.39
  -7   1 -15   20.30    1.61
  -7  -1  15   20.52    1.58
   7   1  15   17.89    1.32
   7   1 -15   19.65    1.45
  -7   1  15   21.14    1.52
  -7  -1 -15   19.19    1.58
   7  -2 -15   28.18    1.96
  -7  -2  15   28.86    1.98
   7   2  15   27.74    1.77
  -7   2 -15   26.84    1.97
  -7   2  15   28.34    1.84
  -7  -2 -15   23.65    1.80
   7  -2  15   24.67    1.87
  -8   0  15    2.70    0.77
   8   0 -15    2.56    0.71
  -8   0 -15    1.05    0.65
   0   0 -16   20.16    1.38
   0   0  16   23.61    1.29
   0   1 -16   61.29    2.69
   0   1  16   57.33    2.36
   0  -1  16   63.97    2.52
   0  -1 -16   63.73    2.69
   0  -2  16    0.92    0.45
   0  -2 -16    2.19    0.58
   0   2  16    2.59    0.64
   0   2 -16    2.39    0.69
   0  -3 -16    6.60    0.95
   0   3  16    9.82    1.07
   0  -3  16    8.76    1.08
   0   3 -16    8.43    1.05
   1   0 -16    0.08    0.27
  -1   0  16    0.08    0.26
  -1   0 -16    0.06    0.32
  -1   0  16    0.13    0.25
   1  -1 -16    1.93    0.55
  -1  -1  16    2.00    0.56
  -1   1 -16    1.69    0.56
   1   1  16    1.61    0.45
   1   1 -16    1.94    0.57
  -1   1  16    1.61    0.48
  -1  -1 -16    1.25    0.53
   1  -1  16    1.32    0.46
   1   2  16    3.90    0.66
  -1  -2  16    3.63    0.73
   1  -2 -16    3.34    0.69
  -1   2 -16    3.69    0.89
   1  -2  16    3.84    0.75
  -1  -2 -16    4.14    0.85
   1   2 -16    4.62    0.88
  -1   2  16    4.32    0.71
   1  -3 -16    0.75    0.48
   1   3  16    0.49    0.44
  -1  -3  16    0.11    0.42
  -1   3 -16    0.09    0.45
   1  -3  16    0.79    0.53
  -1  -3 -16    0.86    0.50
   1   3 -16    0.78    0.51
  -1   3  16    0.65    0.46
   2   0 -16   41.11    1.90
  -2   0 -16   42.07    2.15
   2   0 -16   41.86    1.95
  -2   0  16   44.22    1.85
  -2   0  16   43.58    1.94
  -2  -1  16   48.93    2.21
  -2   1 -16   48.74    2.42
   2   1  16   47.87    2.07
   2  -1 -16   46.27    2.11
   2  -1 -16   50.32    2.26
  -2  -1 -16   50.96    2.47
   2   1 -16   47.95    2.22
   2  -1  16   46.86    2.08
  -2   1  16   47.32    2.10
  -2  -2  16   11.46    1.12
   2  -2 -16   10.43    0.97
  -2   2 -16    8.88    1.12
   2   2  16    8.77    0.91
  -2   2  16    8.70    0.94
  -2  -2 -16    8.87    1.04
   2   2 -16    9.64    1.06
   2  -2  16   10.47    1.03
   2   3  16    2.00    0.63
  -2  -3  16    2.10    0.69
  -2   3 -16    1.59    0.68
   2  -3 -16    1.98    0.58
  -2  -3 -16    1.69    0.64
   2  -3  16    1.88    0.65
   2   3 -16    2.78    0.74
  -2   3  16    2.53    0.68
  -3   0  16   -0.22    0.31
  -3   0  16   -0.17    0.22
  -3   0 -16    0.12    0.32
   3   0 -16   -0.05    0.32
   3  -1 -16   27.09    1.61
  -3   1 -16   26.12    1.76
   3   1  16   24.06    1.43
  -3  -1  16   29.09    1.65
  -3   1  16   28.49    1.54
  -3  -1 -16   27.32    1.81
   3  -1  16   26.77    1.70
   3  -2 -16   78.94    3.23
   3   2  16   78.77    3.03
  -3   2 -16   73.11    3.38
  -3  -2  16   75.24    3.11
   3  -2  16   74.08    3.02
  -3   2  16   76.61    3.02
   3   2 -16   75.00    3.09
  -3  -2 -16   62.13    3.08
  -3   3 -16   42.31    2.53
   3   3  16   48.12    2.37
  -3  -3  16   45.42    2.43
   3  -3  16   42.23    2.34
  -3  -3 -16   45.31    2.50
  -3   3  16   45.34    2.32
   3   3 -16   43.54    2.30
  -4   0  16    9.19    0.86
   4   0 -16    9.95    1.00
  -4   0  16   10.14    0.98
  -4   0 -16   10.51    1.11
  -4  -1  16    8.48    0.95
   4  -1 -16    6.54    0.86
   4   1  16    6.57    0.80
  -4   1 -16    7.63    1.00
  -4   1  16    6.58    0.77
  -4  -1 -16    7.41    1.00
   4  -2 -16    3.95    0.81
   4   2  16    3.05    0.69
  -4   2 -16    4.15    0.96
  -4  -2  16    4.47    0.91
   4  -2  16    3.99    0.77
  -4  -2 -16    1.59    0.63
  -4   2  16    4.17    0.77
   4   3  16    2.63    1.02
  -4  -3  16    1.38    0.61
  -4   3 -16    0.56    0.66
  -4  -3 -16    0.81    0.56
   4  -3  16    1.48    0.59
  -4   3  16    1.15    0.61
  -5   0  16   -0.43    0.33
  -5   0 -16   -0.11    0.31
   5   0 -16   -0.13    0.32
   5   1  16   11.46    1.05
  -5  -1  16   11.31    1.17
   5  -1 -16   14.11    1.25
  -5   1 -16   12.54    1.27
  -5  -1 -16   12.13    1.26
  -5   1  16   12.39    1.10
  -5   1  16   11.84    1.09
   5  -2 -16   28.67    1.86
   5   2  16   26.00    1.65
  -5  -2  16   26.36    1.79
  -5   2 -16   27.61    2.01
  -5   2  16   26.33    1.67
   5  -2  16   25.11    1.66
  -5  -2 -16   24.95    1.85
   6   0 -16   48.10    2.35
  -6   0 -16   48.90    2.57
  -6   0  16   51.01    2.50
  -6   1 -16   26.16    1.82
   6   1  16   20.57    1.40
   6  -1 -16   19.83    1.52
  -6  -1  16   21.37    1.60
  -6   1  16   21.99    1.52
  -6  -1 -16   18.37    1.59
  -6  -2  16   10.87    1.26
   6  -2 -16    7.79    1.09
  -6   2 -16    8.17    1.22
   6   2  16    7.81    0.97
   6  -2  16    7.89    1.11
  -6  -2 -16    9.17    1.20
  -6   2  16   10.62    1.09
  -7   0 -16    0.44    0.49
   7   0 -16    0.20    0.45
  -7   0  16   -0.19    0.40
  -7   1 -16    1.55    0.70
   7   1  16    2.29    0.66
   7  -1 -16    1.45    0.61
  -7  -1  16    1.61    0.70
  -7  -1 -16    1.68    0.73
  -7   1  16    1.54    0.57
   0   0  17    0.05    0.30
   0   0 -17    0.00    0.31
   0  -1  17    0.15    0.32
   0   1  17    0.01    0.29
   0  -1 -17   -0.15    0.35
   0   1 -17    0.46    0.42
   0   2 -17    0.04    0.38
   0  -2 -17    0.06    0.32
   0  -2  17    0.12    0.39
   0   2  17    0.12    0.33
   0  -3 -17    0.27    0.45
   0   3  17    0.22    0.40
   0   3 -17    0.02    0.49
   0  -3  17   -0.16    0.39
  -1   0  17   -0.04    0.24
  -1   0 -17   -0.01    0.30
   1   0 -17    0.50    0.35
   1  -1 -17   28.95    1.71
   1   1  17   29.09    1.57
  -1   1 -17   33.13    1.94
  -1  -1  17   30.31    1.69
   1   1 -17   28.30    1.76
  -1  -1 -17   33.28    1.92
  -1   1  17   30.56    1.61
   1  -1  17   34.66    1.73
   1  -2 -17   56.18    2.57
  -1   2 -17   56.07    2.88
  -1  -2  17   60.02    2.67
   1   2  17   56.87    2.52
  -1  -2 -17   56.17    2.73
  -1   2  17   59.59    2.54
   1  -2  17   60.31    2.63
   1   2 -17   59.29    2.82
  -1  -3  17   65.94    3.04
   1  -3 -17   62.15    2.81
  -1   3 -17   68.57    3.25
   1   3  17   66.59    2.90
  -1   3  17   66.47    2.90
   1   3 -17   63.38    3.03
   1  -3  17   62.40    2.93
  -1  -3 -17   58.97    2.91
   2   0 -17   57.48    2.40
  -2   0 -17   53.66    2.58
   2   0 -17   57.75    2.38
  -2   0  17   52.69    2.19
  -2   1 -17   47.27    2.46
   2  -1 -17   50.20    2.24
   2   1  17   48.32    2.12
  -2  -1  17   50.34    2.29
  -2   1  17   48.68    2.16
  -2  -1 -17   49.10    2.49
   2   1 -17   46.20    2.25
   2   2  17   14.97    1.19
  -2   2 -17   16.93    1.52
  -2  -2  17   14.97    1.27
   2  -2 -17   15.84    1.23
   2  -2  17   15.28    1.26
  -2  -2 -17   15.06    1.37
  -2   2  17   13.13    1.14
   2   2 -17   13.43    1.32
  -2  -3  17    1.86    0.68
  -2   3 -17    1.88    0.80
   2   3  17    2.20    0.77
  -2  -3 -17    2.16    0.70
   2   3 -17    1.82    0.72
  -2   3  17    2.16    0.61
   2  -3  17    2.66    0.78
   3   0 -17    0.08    0.31
  -3   0  17   -0.25    0.21
  -3   0  17   -0.10    0.32
  -3   0 -17    0.08    0.36
   3   1  17    6.14    0.75
   3  -1 -17    4.57    0.76
  -3  -1  17    5.58    0.79
  -3   1 -17    6.62    0.95
  -3   1  17    5.13    0.71
  -3  -1 -17    6.13    1.09
  -3   2 -17   12.38    1.35
  -3  -2  17   11.56    1.19
   3   2  17   12.38    1.14
  -3  -2 -17   10.91    1.28
  -3   2  17   12.55    1.13
   3  -2  17   11.85    1.15
  -3   3 -17    7.15    1.16
   3   3  17    7.93    1.08
  -3  -3  17    8.78    1.11
   3  -3  17    8.85    1.13
  -3  -3 -17    7.73    1.11
  -3   3  17    9.90    1.09
  -4   0  17   66.77    2.80
   4   0 -17   67.43    2.80
  -4   0 -17   65.00    3.00
  -4   0  17   67.33    2.64
  -4  -1  17   82.17    3.28
   4   1  17   77.60    3.01
   4  -1 -17   80.09    3.25
  -4   1 -17   81.43    3.49
  -4  -1 -17   79.66    3.49
  -4   1  17   78.31    3.09
  -4  -2  17   17.79    1.47
   4   2  17   16.05    1.29
  -4   2 -17   18.97    1.65
   4  -2 -17   17.68    1.50
  -4   2  17   16.64    1.34
  -4  -2 -17   16.73    1.52
   4  -2  17   15.31    1.29
  -5   0  17    0.03    0.35
  -5   0 -17    0.17    0.42
  -5   0  17    0.01    0.38
   5   0 -17   -0.19    0.39
  -5   1 -17    0.42    0.48
   5  -1 -17   -0.29    0.40
  -5  -1  17    0.41    0.47
   5   1  17    0.49    0.42
  -5  -1 -17    0.67    0.53
  -5   1  17    0.64    0.42
  -5   2 -17    3.77    0.91
   5   2  17    3.51    0.77
   5  -2 -17    4.19    0.88
  -5  -2  17    3.17    0.78
   5  -2  17    3.79    0.89
  -5   2  17    2.94    1.07
  -5  -2 -17    4.42    0.99
   6   0 -17   25.62    1.72
  -6   0  17   24.03    1.68
  -6  -1  17   38.99    2.26
   6   1  17   39.91    2.06
  -6   1 -17   43.34    2.47
   6  -1 -17   38.70    2.25
  -6  -1 -17   40.52    2.43
  -6   1  17   39.29    2.17
  -6   1  17   40.47    2.15
   0   0 -18   11.90    1.12
   0   1 -18   44.84    2.32
   0  -1 -18   46.62    2.31
   0   1  18   41.46    1.99
   0  -1  18   43.06    2.08
   0  -2 -18    5.11    0.92
   0   2  18    6.29    0.83
   0   2 -18    4.94    0.97
   0  -2  18    5.40    0.87
  -1   0 -18   -0.16    0.35
   1   0 -18   -0.42    0.29
  -1   1 -18    0.62    0.47
  -1  -1  18    0.66    0.42
   1  -1 -18    0.54    0.46
   1   1  18    0.87    0.42
  -1  -1 -18    1.24    0.57
   1   1 -18    0.66    0.42
  -1   1  18    1.27    0.47
   1   2  18    2.90    0.70
  -1  -2  18    3.96    0.83
  -1   2 -18    4.26    0.91
   1  -2 -18    1.87    0.60
  -1  -2 -18    3.45    0.84
  -1   2  18    2.23    0.59
   1  -2  18    2.35    0.66
   1   2 -18    3.89    0.92
  -2   0 -18   15.61    1.35
   2   0 -18   16.73    1.25
  -2   0  18   16.72    1.13
  -2  -1  18   51.12    2.37
   2  -1 -18   50.21    2.30
  -2   1 -18   53.84    2.65
   2   1 -18   47.78    2.33
  -2   1  18   47.20    2.20
  -2  -1 -18   52.52    2.64
  -2   2 -18    8.50    1.21
   2   2  18    8.84    0.99
  -2  -2  18   10.75    1.15
   2   2 -18   10.46    1.20
   2  -2  18    8.81    1.04
  -2   2  18   10.34    1.03
  -2  -2 -18    7.75    1.09
  -3   0  18    0.24    0.39
  -3   0 -18   -0.04    0.38
  -3   0  18    0.56    0.36
   3   1  18   12.50    1.06
  -3   1 -18   12.96    1.30
  -3  -1  18   15.11    1.27
   3  -1 -18   14.02    1.30
  -3   1  18   13.55    1.15
  -3  -1 -18   15.74    1.43
   3   2  18   44.59    2.20
  -3  -2  18   40.31    2.24
  -3   2 -18   36.34    2.37
  -3  -2 -18   41.67    2.45
  -3   2  18   42.88    2.18
   3  -2  18   39.58    2.15
  -4   0  18   12.04    1.16
  -4   0 -18   12.56    1.31
   4   0 -18   12.32    1.16
  -4   0  18    9.95    0.95
   4  -1 -18    0.36    0.47
  -4   1 -18    1.24    0.63
  -4  -1  18    0.85    0.51
   4   1  18    0.68    0.45
  -4   1  18    0.88    0.49
  -4  -1 -18    0.93    0.55
  -4   2 -18    2.70    0.85
  -4  -2  18    2.68    0.74
   4  -2 -18    1.22    0.64
   4   2  18    2.71    0.71
   4  -2  18    1.52    0.82
  -4   2  18    1.21    0.56
  -4  -2 -18    1.76    0.68
  -5   0 -18    0.45    0.47
  -5   0  18   -0.41    0.31
   5   0 -18   -0.46    0.40
  -5   0  18   -0.15    0.39
   5  -1 -18    8.60    1.11
  -5  -1  18    7.39    1.06
   5   1  18    7.66    0.95
  -5   1 -18    7.27    1.08
  -5   1  18    8.00    0.98
  -5  -1 -18    8.70    1.17
   0   0 -19   -0.08    0.35
   0   1 -19    0.19    0.42
   0   1  19   -0.26    0.25
   0  -1 -19    0.48    0.49
   0   2  19    0.02    0.39
   0  -2  19   -0.20    0.36
   0   2 -19    1.23    0.63
   0  -2 -19   -0.33    0.39
   1   0 -19    0.39    0.43
  -1   0 -19    0.63    0.48
   1   1  19   16.31    1.19
  -1  -1  19   15.54    1.27
   1  -1 -19   16.98    1.35
  -1   1 -19   14.91    1.36
  -1   1  19   16.55    1.20
  -1  -1 -19   19.06    1.54
   1   1 -19   17.16    1.38
   1   2  19   39.61    2.07
   1  -2 -19   37.71    2.14
  -1   2 -19   37.60    2.35
  -1  -2  19   41.78    2.21
  -1   2  19   39.82    2.07
   1  -2  19   37.74    2.11
   1   2 -19   36.25    2.27
  -1  -2 -19   40.98    2.32
  -2   0 -19   54.91    2.72
  -2   1 -19   31.61    2.02
   2   1  19   30.56    1.70
  -2  -1  19   31.81    1.89
  -2   1  19   33.29    1.79
   2   1 -19   31.87    1.87
  -2  -1 -19   38.58    2.20
  -2   2 -19   16.33    1.59
  -2  -2  19   13.86    1.32
   2   2  19   13.59    1.19
   2   2 -19   11.20    1.24
  -2  -2 -19   14.61    1.43
   2  -2  19   11.91    1.22
  -2   2  19   13.26    1.19
  -3   0 -19   -0.19    0.35
  -3  -1  19    1.95    0.66
  -3   1 -19    1.34    0.63
   3   1  19    2.14    0.62
  -3  -1 -19    1.11    0.59
  -3   1  19    2.12    0.65
  -4   0  19   37.53    1.94
  -4   0 -19   38.45    2.29
   4  -1 -19   39.37    2.19
  -4  -1  19   34.98    2.08
  -4   1 -19   35.15    2.23
  -4  -1 -19   37.79    2.34
  -4   1  19   35.20    1.93
   0   0 -20   42.23    2.29
   0  -1 -20   70.79    3.14
   0   1 -20   71.25    3.18
   0   1  20   69.19    2.83
   1   0 -20   -0.05    0.38
  -1   0 -20   -0.03    0.40
   1   1  20    5.65    0.81
   1  -1 -20    5.13    0.95
  -1   1 -20    5.70    1.05
  -1  -1 -20    5.09    1.01
  -1   1  20    6.32    0.84
   1   1 -20    6.23    0.97
  -2   0 -20   18.03    1.55
  -2  -1  20   67.84    2.95
  -2   1 -20   66.66    3.19
  -2  -1 -20   70.45    3.25
  -2   1  20   66.97    2.83
  -3   0 -20   -0.27    0.43
   0   0   0    0.00    0.00
;
_shelx_hkl_checksum              77115
_shelx_res_file
;
    pca21.res created by SHELXL-2014/7
TITL pca21_b.res in Pca2(1)
REM Old TITL pca21 in Pca2(1)
REM SHELXT solution in Pca2(1)
REM R1 0.041, Rweak 0.001, Alpha 0.003, Orientation as input
REM Flack x = 0.376 ( 0.025 ) from Parsons' quotients
REM Formula found by SHELXT: C9 O4 Zn
CELL 0.71073 9.6314 4.8612 17.269 90 90 90
ZERR 4 0.0011 0.0006 0.0021 0 0 0
LATT -1
SYMM -X,-Y,0.5+Z
SYMM 0.5+X,-Y,+Z
SYMM 0.5-X,+Y,0.5+Z
SFAC C H O Zn
UNIT 36 24 16 4
L.S. 16
PLAN  20
SIZE 0.11 0.07 0.05
TEMP -100
BOND $H
CONF
fmap 2
acta
TWIN -1 0 0 0 -1 0 0 0 -1 2
REM <olex2.extras>
REM <HklSrc "%.\\pca21new2.hkl">
REM </olex2.extras>
WGHT    0.027400    0.233800
BASF   0.44018
FVAR       0.20455
ZN1   4    0.563308    0.578139    0.736820    11.00000    0.01489    0.01643 =
         0.01308   -0.00207    0.00100   -0.00133
O3    3   -0.010896    0.354453    0.327394    11.00000    0.02168    0.01512 =
         0.01814    0.00015   -0.00136    0.00196
O2    3    0.261597    0.447770    0.712189    11.00000    0.01289    0.02838 =
         0.01565   -0.00130    0.00073    0.00073
O4    3   -0.052362   -0.028600    0.263872    11.00000    0.02858    0.01567 =
         0.01853   -0.00518   -0.00952    0.00175
O1    3    0.456110    0.485832    0.645537    11.00000    0.01682    0.02908 =
         0.01365   -0.00449   -0.00033   -0.00506
C2    1    0.264730    0.313778    0.578172    11.00000    0.01469    0.01703 =
         0.01951   -0.00222    0.00092    0.00270
C5    1    0.155655    0.086217    0.442293    11.00000    0.01623    0.01460 =
         0.02018   -0.00074   -0.00489    0.00573
C1    1    0.328641    0.424167    0.649762    11.00000    0.01346    0.01359 =
         0.01645    0.00227   -0.00216   -0.00067
C6    1    0.248453    0.305733    0.438888    11.00000    0.02273    0.01834 =
         0.01625    0.00103    0.00312   -0.00005
AFIX  43
H6    2    0.273780    0.379793    0.389978    11.00000   -1.20000
AFIX   0
C8    1    0.105696   -0.055170    0.369788    11.00000    0.02478    0.01612 =
         0.02009   -0.00174   -0.00392    0.00222
AFIX  23
H8A   2    0.060009   -0.229047    0.385328    11.00000   -1.20000
H8B   2    0.188279   -0.105084    0.338680    11.00000   -1.20000
AFIX   0
C7    1    0.304110    0.417150    0.505473    11.00000    0.01629    0.01532 =
         0.01862   -0.00045    0.00129   -0.00094
AFIX  43
H7    2    0.369057    0.563758    0.502155    11.00000   -1.20000
AFIX   0
C4    1    0.116890   -0.014739    0.514268    11.00000    0.01609    0.01785 =
         0.02316   -0.00279   -0.00083   -0.00296
AFIX  43
H4    2    0.053130   -0.163447    0.517336    11.00000   -1.20000
AFIX   0
C9    1    0.006712    0.099641    0.317721    11.00000    0.01564    0.01936 =
         0.01344   -0.00091    0.00247   -0.00163
C3    1    0.169960    0.098496    0.581833    11.00000    0.01691    0.01838 =
         0.01601    0.00196    0.00214   -0.00017
AFIX  43
H3    2    0.141462    0.028732    0.630700    11.00000   -1.20000
AFIX   0
HKLF 4
REM  pca21_b.res in Pca2(1)
REM R1 =  0.0193 for    1441 Fo > 4sig(Fo)  and  0.0200 for all    1474 data
REM    128 parameters refined using      1 restraints
END
WGHT      0.0273      0.2329
REM Highest difference peak  0.405,  deepest hole -0.260,  1-sigma level  0.062
Q1    1   0.3138  0.5605  0.7347  11.00000  0.05    0.40
Q2    1   0.5622  0.2733  0.7364  11.00000  0.05    0.26
Q3    1   0.5029  0.4514  0.7388  11.00000  0.05    0.24
Q4    1   0.5200  0.5340  0.6815  11.00000  0.05    0.24
Q5    1  -0.0507 -0.0130  0.2096  11.00000  0.05    0.23
Q6    1   0.0214  0.4960  0.3377  11.00000  0.05    0.21
Q7    1   0.2498  0.3922  0.5461  11.00000  0.05    0.21
Q8    1   0.4575  0.4878  0.5995  11.00000  0.05    0.21
Q9    1   0.4261  0.4452  0.6487  11.00000  0.05    0.20
Q10   1   0.5286  0.5797  0.7889  11.00000  0.05    0.20
Q11   1   0.4488  0.5938  0.7402  11.00000  0.05    0.20
Q12   1   0.2774  0.4109  0.7633  11.00000  0.05    0.20
Q13   1   0.0379 -0.0053  0.5135  11.00000  0.05    0.19
Q14   1   0.1205  0.0160  0.4054  11.00000  0.05    0.18
Q15   1   0.1058  0.0781  0.5522  11.00000  0.05    0.18
Q16   1   0.0341 -0.0030  0.3658  11.00000  0.05    0.18
Q17   1   0.1735  0.2996  0.5825  11.00000  0.05    0.18
Q18   1   0.1435 -0.0217  0.2404  11.00000  0.05    0.18
Q19   1   0.2934  0.5352  0.6568  11.00000  0.05    0.17
Q20   1   0.1703  0.5122  0.6510  11.00000  0.05    0.17
;
_shelx_res_checksum              32202
loop_
_space_group_symop_operation_xyz
'x, y, z'
'-x, -y, z+1/2'
'x+1/2, -y, z'
'-x+1/2, y, z+1/2'
loop_
_atom_site_type_symbol
_atom_site_label
_atom_site_fract_x
_atom_site_fract_y
_atom_site_fract_z
_atom_site_U_iso_or_equiv
_atom_site_adp_type
_atom_site_calc_flag
_atom_site_occupancy
Zn Zn1 0.56331(4) 0.57814(7) 0.73682(2) 0.01480(14) Uani d 1
O O3 -0.0109(3) 0.3545(6) 0.32739(16) 0.0183(6) Uani d 1
O O2 0.2616(3) 0.4478(5) 0.71219(15) 0.0190(7) Uani d 1
O O4 -0.0524(3) -0.0286(6) 0.26387(17) 0.0209(7) Uani d 1
O O1 0.4561(3) 0.4858(7) 0.64554(17) 0.0198(6) Uani d 1
C C2 0.2647(4) 0.3138(8) 0.5782(2) 0.0171(8) Uani d 1
C C5 0.1557(4) 0.0862(7) 0.4423(2) 0.0170(8) Uani d 1
C C1 0.3286(4) 0.4242(7) 0.6498(2) 0.0145(8) Uani d 1
C C6 0.2485(4) 0.3057(8) 0.4389(3) 0.0191(8) Uani d 1
H H6 0.2738 0.3798 0.3900 0.023 Uiso calc 1
C C8 0.1057(5) -0.0552(8) 0.3698(3) 0.0203(9) Uani d 1
H H8A 0.0600 -0.2290 0.3853 0.024 Uiso calc 1
H H8B 0.1883 -0.1051 0.3387 0.024 Uiso calc 1
C C7 0.3041(4) 0.4171(7) 0.5055(2) 0.0167(8) Uani d 1
H H7 0.3691 0.5638 0.5022 0.020 Uiso calc 1
C C4 0.1169(4) -0.0147(8) 0.5143(3) 0.0190(8) Uani d 1
H H4 0.0531 -0.1634 0.5173 0.023 Uiso calc 1
C C9 0.0067(4) 0.0996(8) 0.3177(2) 0.0161(8) Uani d 1
C C3 0.1700(4) 0.0985(7) 0.5818(2) 0.0171(8) Uani d 1
H H3 0.1415 0.0287 0.6307 0.021 Uiso calc 1
loop_
_atom_site_aniso_label
_atom_site_aniso_U_11
_atom_site_aniso_U_22
_atom_site_aniso_U_33
_atom_site_aniso_U_12
_atom_site_aniso_U_13
_atom_site_aniso_U_23
Zn1 0.0149(2) 0.0164(2) 0.0131(2) -0.00133(14) 0.0010(2) -0.0021(2)
O3 0.0217(16) 0.0151(13) 0.0181(14) 0.0020(12) -0.0014(13) 0.0002(11)
O2 0.0129(13) 0.0284(15) 0.0156(15) 0.0007(10) 0.0007(10) -0.0013(11)
O4 0.0286(17) 0.0157(13) 0.0185(15) 0.0017(11) -0.0095(11) -0.0052(11)
O1 0.0168(15) 0.0291(15) 0.0136(15) -0.0051(13) -0.0003(12) -0.0045(14)
C2 0.015(2) 0.0170(19) 0.020(2) 0.0027(15) 0.0009(16) -0.0022(17)
C5 0.0162(19) 0.0146(19) 0.020(2) 0.0057(14) -0.0049(18) -0.0007(16)
C1 0.013(2) 0.0136(19) 0.016(2) -0.0007(14) -0.0022(16) 0.0023(15)
C6 0.023(2) 0.018(2) 0.016(2) -0.0001(18) 0.0031(18) 0.0010(17)
C8 0.025(2) 0.016(2) 0.020(2) 0.0022(16) -0.0039(19) -0.0017(17)
C7 0.016(2) 0.0153(19) 0.019(2) -0.0009(14) 0.0013(15) -0.0004(16)
C4 0.016(2) 0.0178(18) 0.023(2) -0.0030(16) -0.0008(17) -0.0028(17)
C9 0.016(2) 0.019(2) 0.0134(19) -0.0016(15) 0.0025(16) -0.0009(15)
C3 0.017(2) 0.0184(19) 0.016(2) -0.0002(15) 0.0021(16) 0.0020(16)
loop_
_atom_type_symbol
_atom_type_description
_atom_type_scat_dispersion_real
_atom_type_scat_dispersion_imag
_atom_type_scat_source
C C 0.0033 0.0016 'International Tables Vol C Tables 4.2.6.8 and 6.1.1.4'
H H 0.0000 0.0000 'International Tables Vol C Tables 4.2.6.8 and 6.1.1.4'
O O 0.0106 0.0060 'International Tables Vol C Tables 4.2.6.8 and 6.1.1.4'
Zn Zn 0.2839 1.4301 'International Tables Vol C Tables 4.2.6.8 and 6.1.1.4'
loop_
_geom_angle_atom_site_label_1
_geom_angle_atom_site_label_2
_geom_angle_atom_site_label_3
_geom_angle_site_symmetry_1
_geom_angle_site_symmetry_3
_geom_angle
O3 Zn1 O4 4 4_565 109.47(12)
O2 Zn1 O3 3_565 4 112.72(12)
O2 Zn1 O4 3_565 4_565 99.55(11)
O1 Zn1 O3 . 4 112.43(12)
O1 Zn1 O2 . 3_565 109.13(11)
O1 Zn1 O4 . 4_565 112.90(14)
C9 O3 Zn1 . 4_554 118.1(3)
C1 O2 Zn1 . 3_465 132.7(3)
C9 O4 Zn1 . 4_544 132.9(3)
C1 O1 Zn1 . . 121.7(3)
C7 C2 C1 . . 120.3(3)
C3 C2 C1 . . 120.5(4)
C3 C2 C7 . . 119.2(4)
C6 C5 C8 . . 121.3(4)
C4 C5 C6 . . 118.8(4)
C4 C5 C8 . . 119.8(3)
O2 C1 O1 . . 121.6(4)
O2 C1 C2 . . 122.2(3)
O1 C1 C2 . . 116.1(4)
C5 C6 H6 . . 119.5
C7 C6 C5 . . 121.0(4)
C7 C6 H6 . . 119.5
C5 C8 H8A . . 107.8
C5 C8 H8B . . 107.8
C5 C8 C9 . . 117.9(3)
H8A C8 H8B . . 107.2
C9 C8 H8A . . 107.8
C9 C8 H8B . . 107.8
C2 C7 H7 . . 120.0
C6 C7 C2 . . 120.0(4)
C6 C7 H7 . . 120.0
C5 C4 H4 . . 119.5
C5 C4 C3 . . 120.9(4)
C3 C4 H4 . . 119.5
O3 C9 C8 . . 119.7(4)
O4 C9 O3 . . 121.6(4)
O4 C9 C8 . . 118.6(3)
C2 C3 H3 . . 119.9
C4 C3 C2 . . 120.1(4)
C4 C3 H3 . . 119.9
loop_
_geom_bond_atom_site_label_1
_geom_bond_atom_site_label_2
_geom_bond_site_symmetry_2
_geom_bond_distance
Zn1 O3 4 1.971(3)
Zn1 O2 3_565 1.961(3)
Zn1 O4 4_565 1.971(3)
Zn1 O1 . 1.937(3)
O3 Zn1 4_554 1.971(3)
O3 C9 . 1.261(5)
O2 Zn1 3_465 1.961(3)
O2 C1 . 1.262(5)
O4 Zn1 4_544 1.971(3)
O4 C9 . 1.256(5)
O1 C1 . 1.266(5)
C2 C1 . 1.482(6)
C2 C7 . 1.404(6)
C2 C3 . 1.390(6)
C5 C6 . 1.393(5)
C5 C8 . 1.507(6)
C5 C4 . 1.387(6)
C6 H6 . 0.9500
C6 C7 . 1.379(6)
C8 H8A . 0.9900
C8 H8B . 0.9900
C8 C9 . 1.511(6)
C7 H7 . 0.9500
C4 H4 . 0.9500
C4 C3 . 1.388(6)
C3 H3 . 0.9500
loop_
_geom_torsion_atom_site_label_1
_geom_torsion_atom_site_label_2
_geom_torsion_atom_site_label_3
_geom_torsion_atom_site_label_4
_geom_torsion_site_symmetry_1
_geom_torsion
Zn1 O3 C9 O4 4_554 -25.6(5)
Zn1 O3 C9 C8 4_554 151.8(3)
Zn1 O2 C1 O1 3_465 170.3(3)
Zn1 O2 C1 C2 3_465 -12.0(5)
Zn1 O4 C9 O3 4_544 -173.7(3)
Zn1 O4 C9 C8 4_544 8.9(6)
Zn1 O1 C1 O2 . 7.6(5)
Zn1 O1 C1 C2 . -170.3(3)
C5 C6 C7 C2 . -1.6(6)
C5 C8 C9 O3 . 13.3(6)
C5 C8 C9 O4 . -169.2(4)
C5 C4 C3 C2 . -0.8(6)
C1 C2 C7 C6 . 177.3(4)
C1 C2 C3 C4 . -176.1(4)
C6 C5 C8 C9 . -71.1(5)
C6 C5 C4 C3 . -0.5(6)
C8 C5 C6 C7 . -173.7(4)
C8 C5 C4 C3 . 175.0(4)
C7 C2 C1 O2 . 145.3(4)
C7 C2 C1 O1 . -36.9(5)
C7 C2 C3 C4 . 1.0(6)
C4 C5 C6 C7 . 1.7(6)
C4 C5 C8 C9 . 113.6(4)
C3 C2 C1 O2 . -37.7(5)
C3 C2 C1 O1 . 140.2(4)
C3 C2 C7 C6 . 0.2(6)
loop_
_twin_individual_id
_twin_individual_mass_fraction_refined
1 0.560(19)
2 0.440(19)

_cod_database_fobs_code 1552143
