#------------------------------------------------------------------------------
#$Date: 2019-07-13 13:10:44 +0300 (Sat, 13 Jul 2019) $
#$Revision: 217013 $
#$URL: file:///home/coder/svn-repositories/cod/cif/1/55/21/1552104.cif $
#------------------------------------------------------------------------------
#
# This file is available in the Crystallography Open Database (COD),
# http://www.crystallography.net/. The original data for this entry
# were provided by IUCr Journals, http://journals.iucr.org/.
#
# The file may be used within the scientific community so long as
# proper attribution is given to the journal article from which the
# data were obtained.
#
data_1552104
loop_
_publ_author_name
'Shraddha, K. N.'
'Devika, S.'
'Begum, Noor Shahina'
_publ_section_title
;
 Ethyl
 4-(4-chloro-3-fluorophenyl)-6-methyl-2-sulfanylidene-1,2,3,4-tetrahydropyrimidine-5-carboxylate
;
_journal_coeditor_code           HB4301
_journal_issue                   7
_journal_name_full               IUCrData
_journal_page_first              x190960
_journal_paper_doi               10.1107/S241431461900960X
_journal_volume                  4
_journal_year                    2019
_chemical_formula_iupac          'C14 H14 Cl F N2 O2 S'
_chemical_formula_moiety         'C14 H14 Cl F N2 O2 S'
_chemical_formula_sum            'C14 H14 Cl F N2 O2 S'
_chemical_formula_weight         328.78
_chemical_melting_point          696
_chemical_name_systematic
'Ethyl 4-(4-chloro-3-fluorophenyl)-6-methyl-2-sulfanylidene-1,2,3,4-tetrahydropyrimidine-5-carboxylate'
_space_group_crystal_system      triclinic
_space_group_IT_number           2
_space_group_name_Hall           '-P 1'
_space_group_name_H-M_alt        'P -1'
_symmetry_space_group_name_Hall  '-P 1'
_symmetry_space_group_name_H-M   'P -1'
_atom_sites_solution_hydrogens   geom
_atom_sites_solution_primary     direct
_atom_sites_solution_secondary   difmap
_audit_creation_method           SHELXL-2018/3
_cell_angle_alpha                106.149(2)
_cell_angle_beta                 90.236(2)
_cell_angle_gamma                108.939(2)
_cell_formula_units_Z            2
_cell_length_a                   7.2599(5)
_cell_length_b                   9.4979(7)
_cell_length_c                   11.9596(8)
_cell_measurement_reflns_used    2630
_cell_measurement_temperature    446(2)
_cell_measurement_theta_max      25.00
_cell_measurement_theta_min      2.37
_cell_volume                     745.18(9)
_computing_cell_refinement
;
SAINT (Bruker, 1998)
;
_computing_data_collection
;
SMART (Bruker, 1998)
;
_computing_data_reduction
;
SAINT (Bruker, 1998)
;
_computing_molecular_graphics
;
ORTEP-3 (Farrugia, 2012)
;
_computing_publication_material
;
SHELXL2018 (Sheldrick, 2015)
;
_computing_structure_refinement
;
SHELXL2018 (Sheldrick, 2015)
;
_computing_structure_solution
;
SHELXS97 (Sheldrick, 2008)
;
_diffrn_ambient_temperature      446(2)
_diffrn_measured_fraction_theta_full 0.998
_diffrn_measured_fraction_theta_max 0.998
_diffrn_measurement_device_type  'Bruker SMART APEX CCD'
_diffrn_measurement_method       '\w scans'
_diffrn_radiation_type           MoK\a
_diffrn_radiation_wavelength     0.71073
_diffrn_reflns_av_R_equivalents  0.0420
_diffrn_reflns_av_unetI/netI     0.0459
_diffrn_reflns_limit_h_max       8
_diffrn_reflns_limit_h_min       -8
_diffrn_reflns_limit_k_max       11
_diffrn_reflns_limit_k_min       -11
_diffrn_reflns_limit_l_max       14
_diffrn_reflns_limit_l_min       -14
_diffrn_reflns_number            9007
_diffrn_reflns_theta_full        24.997
_diffrn_reflns_theta_max         24.997
_diffrn_reflns_theta_min         2.373
_diffrn_source                   'fine-focus sealed tube'
_exptl_absorpt_coefficient_mu    0.412
_exptl_absorpt_correction_T_max  0.9408
_exptl_absorpt_correction_T_min  0.9295
_exptl_absorpt_correction_type   multi-scan
_exptl_absorpt_process_details
;
(SADABS; Bruker, 1998)
;
_exptl_crystal_colour            colorless
_exptl_crystal_density_diffrn    1.465
_exptl_crystal_density_method    'not measured'
_exptl_crystal_description       block
_exptl_crystal_F_000             340
_exptl_crystal_size_max          0.180
_exptl_crystal_size_mid          0.160
_exptl_crystal_size_min          0.150
_refine_diff_density_max         1.721
_refine_diff_density_min         -0.582
_refine_ls_extinction_method     none
_refine_ls_goodness_of_fit_ref   1.030
_refine_ls_hydrogen_treatment    constr
_refine_ls_matrix_type           full
_refine_ls_number_parameters     192
_refine_ls_number_reflns         2630
_refine_ls_number_restraints     0
_refine_ls_restrained_S_all      1.030
_refine_ls_R_factor_all          0.0727
_refine_ls_R_factor_gt           0.0543
_refine_ls_shift/su_max          0.000
_refine_ls_shift/su_mean         0.000
_refine_ls_structure_factor_coef Fsqd
_refine_ls_weighting_details
'w=1/[\s^2^(Fo^2^)+(0.0909P)^2^+1.0474P] where P=(Fo^2^+2Fc^2^)/3'
_refine_ls_weighting_scheme      calc
_refine_ls_wR_factor_gt          0.1492
_refine_ls_wR_factor_ref         0.1580
_reflns_number_gt                2087
_reflns_number_total             2630
_reflns_threshold_expression     'I > 2\s(I)'
_cod_data_source_file            hb4301sup1.cif
_cod_data_source_block           I
_cod_database_code               1552104
_shelx_space_group_comment
;
The symmetry employed for this shelxl refinement is uniquely defined
by the following loop, which should always be used as a source of
symmetry information in preference to the above space-group names.
They are only intended as comments.
;
_shelx_estimated_absorpt_t_min   0.930
_shelx_estimated_absorpt_t_max   0.941
_shelx_hkl_file
;
  -1   0   0    0.42    0.09
  -1   0   0    0.36    0.09
  -1   0   0    0.43    0.10
   1   0   0    0.42    0.09
   1   0   0    0.24    0.08
   1   0   0    0.53    0.11
  -2   0   0    1.21    0.19
  -2   0   0    1.91    0.29
  -2   0   0    1.54    0.25
  -2   0   0    1.47    0.23
   2   0   0    1.68    0.23
   2   0   0    1.62    0.26
   2   0   0    1.88    0.28
  -3   0   0    7.66    0.75
  -3   0   0    9.40    0.60
  -3   0   0    8.35    0.67
  -3   0   0    9.26    0.66
   3   0   0    8.90    0.63
   3   0   0    8.51    0.64
   3   0   0    9.29    0.86
  -4   0   0   12.88    0.96
  -4   0   0   15.12    0.86
  -4   0   0   13.73    1.00
   4   0   0   14.71    1.06
   4   0   0   13.96    1.02
  -5   0   0    0.55    0.56
  -5   0   0   -0.03    0.47
  -5   0   0   -0.08    0.32
   5   0   0    0.24    0.49
  -6   0   0   31.50    1.46
  -6   0   0   27.14    1.81
  -6   0   0   27.03    1.80
   6   0   0   26.23    1.97
  -7   0   0   23.44    1.95
  -7   0   0   23.23    1.28
   7   0   0   21.97    2.14
  -8   0   0   -0.68    1.22
   8   0   0    0.90    1.17
  -9   0   0   -0.72    1.64
   9   0   0   -1.11    1.46
   9  -1   0    0.71    1.42
  -9   1   0    0.28    1.50
   8  -1   0   -0.32    1.07
   7  -1   0    7.69    1.15
  -7   1   0   10.02    1.40
  -7   1   0    8.27    1.09
   6  -1   0   15.12    1.39
  -6   1   0   13.56    1.12
  -6   1   0   12.46    1.24
   5  -1   0   26.66    1.62
  -5   1   0   24.92    1.49
  -5   1   0   25.47    1.62
   4  -1   0    3.62    0.55
   4  -1   0    3.59    0.51
  -4   1   0    3.93    0.58
  -4   1   0    4.42    0.75
   3  -1   0    0.69    0.20
   3  -1   0    0.78    0.32
   3  -1   0    0.58    0.27
  -3   1   0    1.09    0.32
  -3   1   0    0.83    0.24
  -3   1   0    1.06    0.34
  -3   1   0    0.98    0.29
   2  -1   0   83.51    3.02
   2  -1   0   83.82    3.17
   2  -1   0   87.11    3.26
   2  -1   0   77.91    3.23
  -2   1   0   82.75    3.04
  -2   1   0   83.23    3.17
  -2   1   0   83.19    3.24
  -2   1   0   81.15    3.23
   1  -1   0   -1.41    0.12
   1  -1   0   -1.31    0.04
   1  -1   0   -1.23    0.13
   1  -1   0   -1.26    0.08
  -1   1   0   -1.47    0.11
  -1   1   0   -1.38    0.04
  -1   1   0   -1.28    0.08
  -1   1   0   -1.29    0.12
   0  -1   0    8.50    0.39
   0  -1   0    8.73    0.43
   0  -1   0    9.20    0.43
  -1  -1   0  140.50    5.13
  -2  -1   0    0.29    0.18
  -2  -1   0    0.02    0.12
  -2  -1   0   -0.08    0.21
   2   1   0   -0.08    0.11
   2   1   0    0.31    0.19
   2   1   0    0.06    0.18
  -3  -1   0    0.28    0.29
  -3  -1   0    0.29    0.21
  -3  -1   0    0.61    0.13
  -3  -1   0   -0.15    0.34
   3   1   0    0.57    0.29
   3   1   0    0.16    0.30
  -4  -1   0    0.35    0.16
  -4  -1   0    0.31    0.41
  -4  -1   0    0.75    0.33
   4   1   0    0.39    0.39
  -5  -1   0    3.10    0.35
  -5  -1   0    2.65    0.66
  -5  -1   0    2.00    0.48
   5   1   0    2.21    0.61
  -6  -1   0    5.80    0.48
  -6  -1   0    6.02    0.96
   6   1   0    6.30    1.11
  -7  -1   0   21.28    2.39
   7   1   0   20.42    2.04
  -8  -1   0    1.22    1.38
   8   1   0    1.14    1.98
   9  -2   0    6.07    1.47
  -9   2   0    7.26    1.55
   8  -2   0    3.51    1.17
  -8   2   0    4.89    1.10
  -8   2   0    8.39    1.40
   7  -2   0    0.14    0.72
  -7   2   0   -0.74    0.66
  -7   2   0    0.26    0.65
   6  -2   0    8.65    1.11
  -6   2   0    7.74    1.03
  -6   2   0    8.90    0.99
   5  -2   0   13.59    1.13
   5  -2   0   14.90    0.89
  -5   2   0   14.43    1.18
  -5   2   0   13.95    0.99
   4  -2   0    7.70    0.54
   4  -2   0    6.87    0.70
  -4   2   0    6.72    0.59
  -4   2   0    8.57    1.00
   3  -2   0   71.60    2.65
   3  -2   0   73.18    2.89
  -3   2   0   66.72    3.04
  -3   2   0   71.21    2.69
  -3   2   0   71.78    3.07
  -3   2   0   71.60    2.90
   2  -2   0  967.21   33.74
   2  -2   0  921.96   33.32
   2  -2   0  974.24   33.74
   2  -2   0  951.18   33.46
  -2   2   0  971.85   33.73
  -2   2   0  974.73   33.75
  -2   2   0  929.81   33.32
  -2   2   0  987.20   33.50
   1  -2   0   47.89    1.83
   1  -2   0   47.37    2.03
   1  -2   0   48.65    1.83
  -1   2   0   47.74    2.04
  -1   2   0   47.43    2.03
  -1   2   0   48.35    1.83
  -1   2   0   46.93    1.81
  -1   2   0   48.50    1.83
   0  -2   0   14.89    0.76
   0  -2   0   14.54    0.75
   0  -2   0   15.65    0.72
   0   2   0   15.32    0.78
   0   2   0   14.74    0.78
   0   2   0   14.93    0.71
   0   2   0   15.65    0.77
   0   2   0   15.79    0.71
  -1  -2   0    0.18    0.13
  -1  -2   0   -0.33    0.17
  -1  -2   0    0.10    0.17
   1   2   0   -0.16    0.18
   1   2   0   -0.04    0.16
   1   2   0   -0.17    0.10
  -2  -2   0    5.86    0.63
  -2  -2   0    6.00    0.60
   2   2   0    6.75    0.59
   2   2   0    5.78    0.57
  -3  -2   0   27.91    1.59
   3   2   0   29.17    1.59
  -4  -2   0   36.34    2.06
   4   2   0   35.89    2.04
  -5  -2   0    0.02    0.62
   5   2   0   -0.13    0.57
  -6  -2   0    6.96    1.17
   6   2   0    5.03    1.16
  -7  -2   0    6.78    1.45
   7   2   0    7.48    1.29
  -8  -2   0    4.76    1.69
   8   2   0    1.56    1.47
   9  -3   0   15.87    2.08
  -9   3   0   14.15    1.90
   8  -3   0   18.72    1.96
  -8   3   0   17.14    1.78
  -8   3   0   17.84    1.77
   7  -3   0    8.56    1.27
  -7   3   0    8.48    1.31
  -7   3   0    7.07    0.98
   6  -3   0   -0.04    0.54
  -6   3   0    0.44    0.44
  -6   3   0    0.33    0.63
   5  -3   0    2.68    0.37
   5  -3   0    1.96    0.43
  -5   3   0    2.84    0.42
  -5   3   0    3.70    0.74
   4  -3   0   33.80    1.70
   4  -3   0   35.46    1.46
  -4   3   0   34.16    1.95
  -4   3   0   36.18    1.51
   3  -3   0    2.77    0.42
   3  -3   0    3.02    0.32
  -3   3   0    2.65    0.39
  -3   3   0    2.51    0.56
  -3   3   0    2.46    0.26
   2  -3   0   35.46    1.44
   2  -3   0   35.71    1.49
   2  -3   0   35.22    1.80
  -2   3   0   33.36    1.75
  -2   3   0   36.58    1.52
  -2   3   0   34.68    1.38
  -2   3   0   34.14    1.81
   1  -3   0   15.78    0.77
   1  -3   0   17.14    1.01
   1  -3   0   15.42    0.78
  -1   3   0   16.03    0.78
  -1   3   0   15.42    0.99
  -1   3   0   15.67    0.80
  -1   3   0   14.65    0.97
  -1   3   0   15.58    0.80
   0  -3   0   10.44    0.68
   0  -3   0    9.81    0.60
   0  -3   0    8.42    0.65
   0   3   0    9.34    0.69
   0   3   0    9.57    0.67
   0   3   0   10.84    0.70
   0   3   0   10.40    0.61
   0   3   0   10.91    0.63
  -1  -3   0   25.62    1.18
  -1  -3   0   27.68    1.42
  -1  -3   0   26.12    1.31
   1   3   0   25.37    1.18
   1   3   0   27.70    1.33
   1   3   0   27.25    1.37
   1   3   0   28.00    1.29
   1   3   0   26.95    1.17
  -2  -3   0    6.66    0.80
  -2  -3   0    6.25    0.74
   2   3   0    6.20    0.67
  -3  -3   0    7.00    0.91
   3   3   0    5.59    0.77
  -4  -3   0    2.30    0.66
   4   3   0    2.10    0.58
  -5  -3   0   11.17    1.56
   5   3   0   12.26    1.41
  -6  -3   0   11.84    1.62
   6   3   0   12.64    1.80
  -7  -3   0    0.35    1.39
   7   3   0    2.17    1.24
  -8  -3   0    2.32    1.85
   8   3   0    0.91    1.60
   9  -4   0   -2.43    1.06
  -9   4   0   -1.83    1.13
   8  -4   0    6.93    1.11
  -8   4   0    9.75    1.62
  -8   4   0    8.08    1.07
   7  -4   0   -0.33    0.65
  -7   4   0    0.97    0.80
  -7   4   0    0.81    0.60
   6  -4   0   92.35    4.02
  -6   4   0   91.21    3.73
  -6   4   0   94.96    4.36
   5  -4   0    8.97    0.69
   5  -4   0    8.23    0.84
  -5   4   0    9.25    0.67
  -5   4   0    7.49    1.18
   4  -4   0   49.48    2.29
   4  -4   0   54.22    2.12
  -4   4   0   52.54    2.05
  -4   4   0   53.08    2.77
   3  -4   0   73.32    3.71
   3  -4   0   83.80    3.76
   3  -4   0   90.36    3.22
  -3   4   0   87.93    3.11
  -3   4   0   88.13    3.36
  -3   4   0   77.23    3.71
   2  -4   0    6.70    0.53
   2  -4   0    4.48    0.98
  -2   4   0    6.60    0.46
  -2   4   0    5.84    0.88
  -2   4   0    6.99    0.55
  -2   4   0    6.14    0.53
   1  -4   0    5.89    0.54
   1  -4   0    6.30    0.49
   1  -4   0    5.96    0.68
  -1   4   0    6.16    0.57
  -1   4   0    4.69    0.68
  -1   4   0    5.88    0.74
  -1   4   0    6.01    0.51
  -1   4   0    6.68    0.60
   0  -4   0    1.34    0.34
   0  -4   0    1.54    0.34
   0  -4   0    1.40    0.27
   0   4   0    0.89    0.31
   0   4   0    1.46    0.31
   0   4   0    1.67    0.29
   0   4   0    1.63    0.37
   0   4   0    0.98    0.36
  -1  -4   0  131.55    4.85
  -1  -4   0  120.20    5.01
  -1  -4   0  124.55    4.72
   1   4   0  120.69    4.71
   1   4   0  130.41    4.71
   1   4   0  121.50    4.86
   1   4   0  122.98    4.94
   1   4   0  128.83    4.82
  -2  -4   0   60.44    2.92
   2   4   0   56.85    2.76
   2   4   0   60.55    2.33
   2   4   0   67.38    2.35
  -3  -4   0    8.51    1.10
   3   4   0    6.56    0.98
  -4  -4   0   25.66    2.01
   4   4   0   27.07    1.89
  -6  -4   0   14.22    1.92
   6   4   0   10.51    1.48
  -7  -4   0    2.04    1.59
   7   4   0    1.08    1.48
   9  -5   0    4.07    1.16
  -9   5   0    4.36    1.35
   8  -5   0    0.27    0.83
  -8   5   0    0.86    0.82
  -8   5   0   -0.64    1.68
   7  -5   0    1.09    0.66
  -7   5   0    0.98    0.55
  -7   5   0    1.76    0.98
   6  -5   0    7.65    1.01
   6  -5   0    9.48    0.96
  -6   5   0   10.88    1.56
  -6   5   0    9.43    0.79
   5  -5   0  101.37    3.74
   5  -5   0   91.97    3.92
  -5   5   0   91.23    4.45
  -5   5   0   96.03    3.62
   4  -5   0    0.84    0.28
   4  -5   0    0.57    0.40
  -4   5   0    0.21    0.60
   3  -5   0    1.36    0.42
   3  -5   0    1.10    0.30
   3  -5   0    2.16    0.66
  -3   5   0    1.69    0.68
  -3   5   0    1.31    0.42
  -3   5   0    1.42    0.36
  -3   5   0    1.70    0.25
   2  -5   0   17.92    1.03
   2  -5   0   16.26    1.32
  -2   5   0   19.14    1.07
  -2   5   0   18.10    1.02
  -2   5   0   18.85    1.00
  -2   5   0   17.58    1.35
   1  -5   0   18.16    1.25
   1  -5   0   17.42    1.07
   1  -5   0   16.79    0.98
  -1   5   0   16.29    1.00
  -1   5   0   17.85    1.10
  -1   5   0   16.41    1.30
  -1   5   0   17.89    1.11
  -1   5   0   17.69    1.26
   0  -5   0   15.27    1.10
   0  -5   0   16.42    1.00
   0  -5   0   17.56    1.17
   0   5   0   15.88    1.15
   0   5   0   14.67    1.02
   0   5   0   15.98    1.14
   0   5   0   15.64    1.16
  -1  -5   0  114.80    4.81
  -1  -5   0  119.71    4.52
   1   5   0  117.37    4.47
   1   5   0  113.34    4.47
   1   5   0  111.40    4.63
  -2  -5   0    0.50    0.57
   2   5   0    1.90    0.33
   2   5   0    1.65    0.52
   2   5   0    2.25    0.38
  -3  -5   0    4.78    0.90
   3   5   0    5.86    0.85
  -4  -5   0    0.09    0.86
   4   5   0    1.14    0.72
  -5  -5   0    0.85    1.16
   5   5   0    0.93    0.96
  -6  -5   0   -1.47    1.51
   6   5   0    0.63    1.23
   9  -6   0    4.60    1.16
  -9   6   0    2.91    1.43
   8  -6   0   22.26    1.88
  -8   6   0   19.84    2.29
   7  -6   0    1.94    0.68
  -7   6   0    0.86    1.03
  -7   6   0    1.34    0.56
   6  -6   0    1.92    0.58
  -6   6   0    1.36    0.93
  -6   6   0    1.19    0.39
   5  -6   0    0.26    0.58
   5  -6   0   -0.02    0.42
  -5   6   0    0.70    0.53
  -5   6   0    1.25    0.84
  -5   6   0    0.15    0.24
   4  -6   0    5.90    0.69
   4  -6   0    6.36    0.73
  -4   6   0    6.54    1.10
  -4   6   0    7.07    0.84
  -4   6   0    6.18    0.52
   3  -6   0   12.90    1.34
   3  -6   0   11.04    0.89
  -3   6   0    9.45    1.15
  -3   6   0   11.93    0.75
  -3   6   0   12.44    0.97
   2  -6   0    0.13    0.28
   2  -6   0   -0.20    0.57
  -2   6   0   -0.55    0.54
  -2   6   0    0.56    0.47
   1  -6   0   23.10    1.63
   1  -6   0   26.35    1.45
   1  -6   0   23.08    1.31
  -1   6   0   23.39    1.60
  -1   6   0   24.65    1.46
  -1   6   0   23.55    1.34
   0  -6   0   41.41    2.21
   0  -6   0   41.27    2.03
   0  -6   0   41.96    2.14
   0   6   0   41.95    2.06
   0   6   0   39.21    2.11
   0   6   0   41.70    2.14
  -1  -6   0    4.59    0.75
   1   6   0    4.22    0.67
   1   6   0    4.82    0.76
   1   6   0    3.78    0.65
  -2  -6   0   -0.12    0.67
   2   6   0    0.15    0.52
   2   6   0    0.18    0.33
   2   6   0   -0.17    0.35
  -3  -6   0    5.94    1.07
   3   6   0    6.36    1.01
  -4  -6   0    1.32    1.08
   4   6   0   -0.28    0.85
  -5  -6   0   19.09    2.62
   5   6   0   24.38    2.39
  -6  -6   0    2.50    1.75
   6   6   0    4.24    1.47
   9  -7   0    2.35    1.06
  -9   7   0   -0.61    1.48
   8  -7   0   -0.37    0.81
  -8   7   0    1.18    1.31
   7  -7   0   31.00    1.99
  -7   7   0   34.38    2.21
  -7   7   0   33.56    2.85
   6  -7   0    7.41    1.13
  -6   7   0    8.43    0.74
  -6   7   0    7.06    1.32
   5  -7   0    0.10    0.47
  -5   7   0    0.45    0.63
  -5   7   0    0.03    0.77
   4  -7   0    1.91    0.51
  -4   7   0    1.44    0.75
  -4   7   0    1.54    0.63
   3  -7   0    0.62    0.41
  -3   7   0    0.10    0.59
  -3   7   0    1.37    0.76
  -3   7   0    0.67    0.37
   2  -7   0   37.60    1.89
   2  -7   0   39.95    2.36
   2  -7   0   37.80    1.88
  -2   7   0   35.29    1.87
  -2   7   0   36.68    2.33
   1  -7   0   23.55    1.73
   1  -7   0   22.61    1.46
   1  -7   0   21.63    1.34
  -1   7   0   22.49    1.50
  -1   7   0   21.14    1.33
  -1   7   0   21.49    1.60
   0  -7   0   24.22    1.71
   0   7   0   21.53    1.53
   0   7   0   24.97    1.54
  -1  -7   0    2.63    0.77
   1   7   0    2.40    0.67
   1   7   0    1.59    0.61
   1   7   0    2.19    0.57
  -2  -7   0    0.83    0.85
   2   7   0    0.94    0.71
   2   7   0    0.54    0.46
  -3  -7   0    1.44    1.10
   3   7   0    2.24    0.87
  -4  -7   0    9.57    1.64
   4   7   0    7.82    1.28
  -5  -7   0    3.13    1.65
   5   7   0    1.95    1.45
   9  -8   0   28.68    2.40
  -9   8   0   19.64    2.94
   8  -8   0    0.43    0.90
  -8   8   0   -1.19    1.55
   7  -8   0    3.89    0.89
  -7   8   0    1.91    1.40
   6  -8   0   -0.91    0.62
  -6   8   0    0.01    0.40
  -6   8   0   -0.04    1.09
   5  -8   0   12.80    1.27
  -5   8   0   13.21    1.78
  -5   8   0   13.30    0.85
   4  -8   0   10.05    1.07
  -4   8   0    9.43    0.76
  -4   8   0   10.96    1.66
   3  -8   0   -0.07    0.50
  -3   8   0   -0.31    0.43
  -3   8   0    0.67    0.83
   2  -8   0   39.37    2.04
   2  -8   0   37.50    2.02
  -2   8   0   37.78    2.03
  -2   8   0   39.44    2.06
  -2   8   0   39.22    2.51
   1  -8   0    2.39    0.57
   1  -8   0    3.39    0.74
  -1   8   0    2.66    0.70
  -1   8   0    1.56    0.60
  -1   8   0    2.30    0.76
   0  -8   0   -0.76    0.73
   0   8   0   -1.08    0.57
   0   8   0    0.32    0.64
  -1  -8   0    0.10    0.91
   1   8   0    0.76    0.73
   1   8   0    0.01    0.63
  -2  -8   0    1.13    1.14
   2   8   0    0.41    0.84
  -3  -8   0    8.72    1.47
   3   8   0   10.62    1.47
  -4  -8   0   12.11    1.99
   4   8   0    9.91    1.67
   8  -9   0   17.40    2.06
  -8   9   0   20.61    3.05
   7  -9   0    0.56    0.92
  -7   9   0   -0.82    1.47
  -6   9   0    2.68    1.26
   5  -9   0    0.43    0.68
  -5   9   0    1.23    0.42
  -5   9   0    1.36    1.22
   4  -9   0   22.61    1.63
  -4   9   0   22.51    1.31
  -4   9   0   21.37    2.57
   3  -9   0   20.69    1.53
  -3   9   0   18.79    1.96
  -3   9   0   20.37    1.37
   2  -9   0   62.63    2.97
   2  -9   0   60.37    2.96
  -2   9   0   59.63    2.96
  -2   9   0   62.27    2.97
  -2   9   0   61.90    3.45
   1  -9   0   -0.66    0.73
   1  -9   0   -0.19    0.64
  -1   9   0    0.97    0.85
  -1   9   0    1.30    0.84
  -1   9   0    1.09    0.68
   0  -9   0    5.21    1.11
   0   9   0    4.95    1.02
   0   9   0    4.59    0.93
   0   9   0    4.40    0.86
  -1  -9   0   21.06    2.20
   1   9   0   24.01    2.07
  -2  -9   0    5.83    1.36
   2   9   0    7.68    1.30
  -3  -9   0    0.34    1.63
   3   9   0    1.48    1.22
   7 -10   0    6.34    1.22
  -7  10   0    5.68    1.78
   6 -10   0   10.55    1.66
  -6  10   0   10.68    1.96
   5 -10   0   -0.83    0.80
  -5  10   0    0.63    1.33
   4 -10   0   -1.65    0.74
  -4  10   0    0.72    1.16
  -4  10   0    0.29    0.57
   3 -10   0    0.04    0.73
  -3  10   0    1.55    0.71
  -3  10   0    2.11    1.17
  -3  10   0    1.37    0.78
   2 -10   0   14.86    2.22
  -2  10   0   13.18    1.78
  -2  10   0   13.93    1.61
   1 -10   0   -0.82    0.94
  -1  10   0    0.82    1.01
  -1  10   0    0.29    0.80
  -1  10   0   -0.45    1.03
   0 -10   0   -0.38    1.11
   0  10   0    1.07    1.16
   0  10   0    2.00    0.87
   0  10   0    1.00    0.99
  -1 -10   0   -1.28    1.30
   1  10   0    0.87    1.36
   1  10   0    0.06    1.04
  -2 -10   0   13.98    1.96
   2  10   0   14.68    2.28
   6 -11   0    2.09    1.19
  -6  11   0    2.34    1.80
   5 -11   0   11.33    1.74
  -5  11   0   10.23    1.91
   4 -11   0   17.84    1.78
  -4  11   0   15.10    1.87
  -4  11   0   18.60    2.52
   3 -11   0    0.97    0.90
  -3  11   0    0.59    1.26
  -3  11   0    0.26    0.81
  -3  11   0    1.00    0.93
   2 -11   0    9.98    1.31
  -2  11   0    8.10    1.58
  -2  11   0   10.63    1.39
   1 -11   0    3.35    1.28
  -1  11   0    5.79    1.15
  -1  11   0    4.58    1.33
  -1  11   0    5.71    1.30
   0 -11   0    3.71    1.50
   0  11   0    6.77    2.11
   0  11   0    7.62    1.35
   4 -12   0    3.70    1.26
  -4  12   0    4.06    1.73
  -4  12   0    4.57    1.28
   3 -12   0    1.70    1.19
  -3  12   0    2.71    1.65
  -3  12   0    0.80    1.27
  -2  12   0    0.22    1.26
  -2  12   0   -1.14    1.51
  -2  12  -1   -2.15    1.12
  -2  12  -1    0.73    1.51
  -2  12  -1    2.30    1.27
  -3  12  -1    6.98    1.29
  -3  12  -1    8.41    1.86
   3 -12   1    6.16    1.22
  -4  12  -1    1.73    1.73
  -4  12  -1    1.39    1.15
   4 -12   1    2.18    1.17
  -5  12  -1    8.87    2.02
  -5  12  -1    3.81    1.29
   5 -12   1    4.90    1.26
   1  11  -1    4.33    1.75
   1  11  -1    6.37    1.37
  -1 -11   1    5.00    1.65
   0  11  -1    0.37    1.11
   0  11  -1   -0.70    1.40
   0 -11   1   -0.12    1.28
  -1  11  -1   -0.35    1.22
  -1  11  -1   -0.25    1.15
  -1  11  -1    1.50    0.93
   1 -11   1   -0.23    1.11
  -2  11  -1    8.98    1.21
  -2  11  -1    8.16    1.52
  -2  11  -1    8.43    1.43
  -3  11  -1   28.81    2.10
  -3  11  -1   28.78    2.82
  -3  11  -1   22.61    1.86
   3 -11   1   25.96    1.97
  -4  11  -1    0.56    0.86
  -4  11  -1    0.64    0.75
  -4  11  -1    1.87    1.42
   4 -11   1    1.56    0.88
  -5  11  -1   -0.86    1.56
   5 -11   1    0.71    0.92
  -6  11  -1   -1.36    1.74
   6 -11   1    1.22    1.08
  -7  11  -1    8.57    2.03
   7 -11   1    7.68    1.33
   2  10  -1    1.49    1.56
   2  10  -1   -0.36    1.22
  -2 -10   1   -2.57    1.54
   1  10  -1    0.98    1.29
   1  10  -1    0.68    1.04
  -1 -10   1    0.64    1.26
   0  10  -1   18.47    2.25
   0  10  -1   19.88    1.83
   0  10  -1   18.62    1.93
   0 -10   1   19.48    2.11
  -1  10  -1   -1.01    0.74
  -1  10  -1    0.22    0.94
  -1  10  -1    1.65    1.01
   1 -10   1    0.42    0.92
  -2  10  -1    6.43    1.35
  -2  10  -1    8.85    1.32
  -2  10  -1    6.71    1.11
   2 -10   1   11.02    1.29
  -3  10  -1    1.82    0.66
  -3  10  -1    1.99    0.69
  -3  10  -1    0.53    2.03
   3 -10   1    1.77    0.74
  -4  10  -1    0.43    1.16
  -4  10  -1    0.69    0.59
   4 -10   1    0.60    0.70
  -5  10  -1   -0.72    1.28
  -5  10  -1    0.13    0.55
   5 -10   1    0.70    0.76
  -6  10  -1    3.33    1.38
   6 -10   1    3.21    0.97
  -7  10  -1    5.27    1.86
   7 -10   1    7.41    1.21
  -8  10  -1   -1.52    2.03
   8 -10   1    1.70    1.20
   3   9  -1   -2.04    1.13
  -3  -9   1    0.72    1.51
   2   9  -1    4.45    1.15
  -2  -9   1    3.84    1.39
   1   9  -1    0.94    1.12
   1   9  -1    1.06    0.82
  -1  -9   1    0.90    1.10
   0   9  -1    8.67    1.28
   0   9  -1   10.28    1.47
   0   9  -1   10.87    1.65
   0  -9   1    9.05    1.24
  -1   9  -1   85.52    3.86
  -1   9  -1   87.49    4.09
  -1   9  -1   82.48    4.19
   1  -9   1   91.40    4.30
   1  -9   1   88.07    4.02
  -2   9  -1   10.14    1.14
  -2   9  -1    8.63    1.29
  -2   9  -1    9.39    1.37
   2  -9   1    8.47    1.08
   2  -9   1   12.13    1.76
  -3   9  -1    1.27    0.55
  -3   9  -1    1.98    0.59
  -3   9  -1    0.74    1.02
   3  -9   1    2.17    0.58
   3  -9   1    1.78    1.07
  -4   9  -1    0.09    1.01
  -4   9  -1    0.58    0.44
   4  -9   1   -0.46    1.15
   4  -9   1    1.22    0.59
  -5   9  -1   15.31    1.05
  -5   9  -1   15.40    2.19
   5  -9   1   16.15    1.41
  -6   9  -1    7.62    0.96
  -6   9  -1    6.65    1.42
   6  -9   1    6.85    0.99
  -7   9  -1    4.88    1.61
   7  -9   1    4.35    0.94
  -8   9  -1   14.04    2.26
   8  -9   1   15.47    1.92
   4   8  -1    2.03    1.24
  -4  -8   1    0.38    1.51
   3   8  -1   -1.70    0.97
  -3  -8   1   -1.68    1.22
   2   8  -1    4.90    0.95
  -2  -8   1    4.01    1.22
   1   8  -1    8.63    1.20
   1   8  -1    7.45    1.04
  -1  -8   1    8.48    1.25
   0   8  -1    7.73    1.05
   0   8  -1    9.39    1.41
   0   8  -1    8.37    1.03
   0  -8   1    8.59    1.24
   0  -8   1    8.96    1.19
  -1   8  -1    1.03    0.64
  -1   8  -1    1.34    0.78
  -1   8  -1    0.64    0.47
   1  -8   1    0.83    0.45
   1  -8   1    0.64    0.75
   1  -8   1    1.12    0.60
  -2   8  -1    4.52    0.66
  -2   8  -1    4.64    0.98
  -2   8  -1    3.83    0.72
   2  -8   1    4.86    0.62
   2  -8   1    4.99    1.03
  -3   8  -1   20.26    1.31
  -3   8  -1   22.82    2.00
   3  -8   1   21.88    2.04
   3  -8   1   19.86    1.36
  -4   8  -1   19.07    1.13
  -4   8  -1   19.80    2.11
   4  -8   1   22.89    2.17
   4  -8   1   18.59    1.33
  -5   8  -1    0.03    0.37
  -5   8  -1   -0.36    0.98
   5  -8   1    0.73    0.55
  -6   8  -1    1.60    1.21
  -6   8  -1    0.35    0.43
   6  -8   1    0.00    0.63
  -7   8  -1    6.89    1.44
   7  -8   1   11.16    1.36
  -8   8  -1    0.05    1.49
   8  -8   1   -0.03    0.89
  -9   8  -1    5.86    1.78
   9  -8   1    5.84    1.24
   5   7  -1   -1.03    1.29
  -5  -7   1   -1.46    1.54
   4   7  -1   20.44    2.06
  -4  -7   1   16.18    1.95
   3   7  -1    0.79    0.89
  -3  -7   1    1.99    1.02
   2   7  -1   -0.32    0.49
   2   7  -1    1.22    0.64
  -2  -7   1   -0.74    0.79
   1   7  -1    4.27    0.72
   1   7  -1    3.99    0.70
   1   7  -1    6.55    0.99
  -1  -7   1    4.53    0.91
  -1  -7   1    4.32    0.75
   0   7  -1    7.15    1.09
   0   7  -1    9.70    1.14
   0   7  -1    5.72    0.85
   0  -7   1    6.17    0.91
   0  -7   1    6.47    0.96
  -1   7  -1    1.36    0.39
  -1   7  -1    1.16    0.59
  -1   7  -1    1.41    0.50
   1  -7   1    0.83    0.39
   1  -7   1    0.87    0.48
   1  -7   1    0.76    0.61
  -2   7  -1    1.96    0.68
  -2   7  -1    0.92    0.46
   2  -7   1    1.16    0.64
   2  -7   1    1.92    0.39
  -3   7  -1    3.87    0.93
  -3   7  -1    3.11    0.51
   3  -7   1    3.99    0.92
   3  -7   1    2.99    0.49
  -4   7  -1   48.72    2.44
  -4   7  -1   45.09    2.01
  -4   7  -1   46.70    2.99
   4  -7   1   48.42    3.04
   4  -7   1   47.03    2.22
  -5   7  -1    6.51    0.61
  -5   7  -1    6.45    1.22
   5  -7   1    5.63    0.88
   5  -7   1    6.10    1.21
  -6   7  -1    4.11    0.54
  -6   7  -1    4.80    1.20
   6  -7   1    4.91    0.72
  -7   7  -1   10.12    1.57
  -7   7  -1    8.26    1.02
   7  -7   1   11.30    1.29
  -8   7  -1    5.58    1.47
   8  -7   1    5.50    0.98
  -9   7  -1   10.56    1.97
   9  -7   1   11.71    1.41
   6   6  -1    2.36    1.47
  -6  -6   1    5.13    1.78
   5   6  -1    0.55    1.09
  -5  -6   1   -1.48    1.31
   4   6  -1    1.27    0.91
  -4  -6   1    0.49    1.04
   3   6  -1    2.42    0.73
  -3  -6   1    5.77    1.09
   2   6  -1    4.11    0.56
   2   6  -1    5.24    0.56
   2   6  -1    4.34    0.72
  -2  -6   1    4.14    0.90
  -2  -6   1    3.42    0.57
   1   6  -1   -0.39    0.41
   1   6  -1    0.49    0.47
   1   6  -1    0.35    0.46
  -1  -6   1   -0.10    0.45
  -1  -6   1    0.49    0.56
   0   6  -1    0.60    0.55
   0   6  -1   -0.46    0.31
   0   6  -1   -0.74    0.45
   0  -6   1    0.35    0.44
   0  -6   1    0.63    0.47
  -1   6  -1    2.76    0.65
  -1   6  -1    3.25    0.56
  -1   6  -1    3.41    0.52
   1  -6   1    3.24    0.59
   1  -6   1    3.38    0.54
   1  -6   1    2.61    0.41
  -2   6  -1   28.75    1.56
  -2   6  -1   27.48    1.44
  -2   6  -1   27.88    1.88
  -2   6  -1   26.92    1.37
   2  -6   1   26.01    1.80
   2  -6   1   26.59    1.36
  -3   6  -1   28.81    1.95
  -3   6  -1   30.83    1.61
  -3   6  -1   26.31    1.51
   3  -6   1   30.60    1.50
   3  -6   1   28.54    1.94
  -4   6  -1   10.08    1.26
  -4   6  -1    8.20    0.92
  -4   6  -1    9.21    0.64
   4  -6   1    7.66    0.96
   4  -6   1    7.96    1.31
   4  -6   1    7.98    0.78
  -5   6  -1   12.16    1.59
  -5   6  -1   10.60    0.76
   5  -6   1   11.92    0.96
   5  -6   1   10.26    1.14
   5  -6   1   12.40    1.66
  -6   6  -1    7.66    0.76
  -6   6  -1    8.33    1.33
   6  -6   1    8.44    0.97
  -7   6  -1    1.87    0.55
  -7   6  -1    0.03    1.07
   7  -6   1    0.10    0.63
  -8   6  -1   10.63    1.57
  -8   6  -1   13.44    1.47
   8  -6   1   11.10    1.52
  -9   6  -1   -1.01    1.47
   9  -6   1    1.77    1.10
   7   5  -1    0.16    1.52
  -7  -5   1    4.13    1.86
   6   5  -1    6.09    1.41
  -6  -5   1    3.43    1.57
   5   5  -1   58.20    3.42
  -5  -5   1   58.35    3.60
   4   5  -1    1.11    0.70
  -4  -5   1    0.06    0.83
   3   5  -1    5.46    0.82
  -3  -5   1    5.66    1.01
   2   5  -1   16.15    0.97
   2   5  -1   17.68    0.83
   2   5  -1   15.23    1.22
  -2  -5   1   15.16    0.98
  -2  -5   1   16.31    1.38
   1   5  -1   17.65    1.04
   1   5  -1   15.06    1.08
  -1  -5   1   17.51    1.11
  -1  -5   1   15.30    1.24
   0   5  -1    2.09    0.57
   0   5  -1    2.06    0.51
   0   5  -1    2.62    0.39
   0   5  -1    2.56    0.40
   0  -5   1    2.17    0.48
   0  -5   1    3.27    0.56
  -1   5  -1   11.33    0.91
  -1   5  -1   11.91    0.73
  -1   5  -1    9.96    1.00
  -1   5  -1   10.14    0.71
   1  -5   1    8.33    0.96
   1  -5   1   10.99    0.70
  -2   5  -1  175.96    6.43
  -2   5  -1  162.05    6.83
  -2   5  -1  175.86    6.35
  -2   5  -1  174.68    6.30
   2  -5   1  160.53    6.83
   2  -5   1  175.40    6.30
  -3   5  -1    1.88    0.40
  -3   5  -1    1.91    0.29
  -3   5  -1    1.63    0.38
  -3   5  -1    1.40    0.56
   3  -5   1    1.97    0.42
   3  -5   1    1.55    0.38
   3  -5   1    1.09    0.56
  -4   5  -1   29.75    1.30
  -4   5  -1   28.13    1.93
   4  -5   1   29.21    1.96
   4  -5   1   28.88    1.46
   4  -5   1   29.33    1.48
  -5   5  -1   32.02    1.52
  -5   5  -1   30.76    2.25
   5  -5   1   35.74    2.36
   5  -5   1   34.82    1.74
   5  -5   1   35.55    1.66
  -6   5  -1   26.92    2.03
  -6   5  -1   22.73    1.31
   6  -5   1   24.69    1.59
  -7   5  -1    8.65    1.03
  -7   5  -1    7.59    1.37
   7  -5   1    9.75    1.15
  -8   5  -1    4.90    0.94
  -8   5  -1    4.03    1.26
   8  -5   1    5.53    0.96
  -9   5  -1    7.71    1.40
   9  -5   1    6.02    1.22
   7   4  -1    1.87    1.28
  -7  -4   1    0.95    1.60
   6   4  -1    4.29    1.13
  -6  -4   1    5.52    1.39
   5   4  -1   -0.18    0.75
  -5  -4   1   -0.19    0.92
   4   4  -1   87.05    4.04
  -4  -4   1   88.99    4.23
   3   4  -1   21.90    1.55
  -3  -4   1   25.01    1.71
   2   4  -1    2.94    0.47
   2   4  -1    2.94    0.27
  -2  -4   1    2.19    0.36
  -2  -4   1    2.82    0.58
   1   4  -1   20.23    1.11
   1   4  -1   18.91    1.25
   1   4  -1   18.90    1.13
   1   4  -1   21.13    1.04
  -1  -4   1   19.09    1.11
  -1  -4   1   20.37    1.26
  -1  -4   1   20.83    1.13
   0   4  -1   74.67    2.90
   0   4  -1   71.79    2.85
   0   4  -1   71.84    3.01
   0   4  -1   73.19    3.04
   0  -4   1   72.04    3.07
   0  -4   1   73.82    3.06
   0  -4   1   71.91    2.88
  -1   4  -1  150.45    5.34
  -1   4  -1  149.25    5.50
  -1   4  -1  149.39    5.51
  -1   4  -1  142.60    5.69
   1  -4   1  144.35    5.74
   1  -4   1  144.27    5.34
   1  -4   1  141.38    5.45
  -2   4  -1  127.21    5.29
  -2   4  -1  131.19    4.86
  -2   4  -1  128.74    4.91
  -2   4  -1  135.85    4.87
   2  -4   1  131.53    4.94
   2  -4   1  133.92    4.86
  -3   4  -1   40.16    2.26
  -3   4  -1   37.31    2.22
  -3   4  -1   43.64    1.71
  -3   4  -1   41.96    1.87
   3  -4   1   43.73    1.82
   3  -4   1   41.06    2.26
   3  -4   1   45.28    1.80
  -4   4  -1  109.43    4.95
  -4   4  -1  113.35    4.53
  -4   4  -1  118.50    4.27
   4  -4   1  114.75    5.00
   4  -4   1  118.69    4.31
   4  -4   1  111.80    4.44
  -5   4  -1   30.67    2.08
  -5   4  -1   32.55    1.53
   5  -4   1   33.10    1.74
   5  -4   1   34.38    2.14
   5  -4   1   34.39    1.55
  -6   4  -1   18.50    1.72
  -6   4  -1   15.38    1.12
   6  -4   1   18.17    1.28
  -7   4  -1    7.27    0.89
  -7   4  -1    9.03    1.50
   7  -4   1    6.45    0.97
  -8   4  -1   11.95    1.56
  -8   4  -1    9.58    1.34
   8  -4   1   10.60    1.66
  -9   4  -1    3.04    1.52
   9  -4   1    1.06    1.13
   8   3  -1    0.29    1.52
  -8  -3   1    2.46    1.78
   7   3  -1   17.40    2.33
  -7  -3   1   19.75    2.47
   6   3  -1    6.40    1.17
  -6  -3   1    7.92    1.49
   5   3  -1   17.97    1.63
  -5  -3   1   19.50    1.81
   4   3  -1    0.75    0.55
  -4  -3   1    0.41    0.58
   3   3  -1    0.27    0.38
  -3  -3   1   -0.15    0.21
  -3  -3   1   -0.57    0.43
   2   3  -1   22.61    0.86
   2   3  -1   19.89    1.22
   2   3  -1   20.69    1.26
  -2  -3   1   21.63    0.99
  -2  -3   1   20.82    1.21
  -2  -3   1   20.05    1.31
   1   3  -1  157.67    5.89
   1   3  -1  162.19    5.73
   1   3  -1  160.96    6.00
  -1  -3   1  155.53    6.03
  -1  -3   1  161.10    5.87
  -1  -3   1  152.93    5.82
   0   3  -1   57.02    2.20
   0   3  -1   55.22    2.34
   0   3  -1   55.58    2.34
   0   3  -1   57.58    2.23
   0  -3   1   56.34    2.38
   0  -3   1   57.40    2.37
   0  -3   1   55.35    2.21
   0  -3   1   58.68    2.22
  -1   3  -1    3.91    0.49
  -1   3  -1    4.35    0.40
  -1   3  -1    4.21    0.31
  -1   3  -1    4.30    0.40
   1  -3   1    3.91    0.42
   1  -3   1    4.34    0.54
   1  -3   1    4.16    0.31
  -2   3  -1   97.60    3.61
  -2   3  -1   92.14    3.93
  -2   3  -1   99.54    3.56
   2  -3   1   95.78    3.99
   2  -3   1   97.25    3.59
   2  -3   1   97.58    3.61
  -3   3  -1    1.19    0.42
  -3   3  -1    1.35    0.30
  -3   3  -1    1.21    0.20
  -3   3  -1    1.98    0.50
   3  -3   1    1.52    0.24
   3  -3   1    0.91    0.42
   3  -3   1    1.63    0.31
  -4   3  -1    0.89    0.48
  -4   3  -1    0.77    0.22
  -4   3  -1    0.61    0.41
  -4   3  -1    0.13    0.55
   4  -3   1    0.15    0.29
   4  -3   1    0.76    0.44
   4  -3   1    0.47    0.23
  -5   3  -1    1.53    0.38
  -5   3  -1    0.89    0.53
   5  -3   1    1.84    0.47
  -6   3  -1   70.46    3.50
  -6   3  -1   73.29    3.19
   6  -3   1   78.73    3.45
  -7   3  -1    3.89    0.91
  -7   3  -1    3.54    0.69
   7  -3   1    3.53    0.80
  -8   3  -1   -0.01    0.89
  -8   3  -1   -0.75    0.91
   8  -3   1   -0.67    0.90
  -9   3  -1   -0.11    1.21
   9  -3   1   -0.27    1.31
   8   2  -1    2.42    1.39
  -8  -2   1    2.92    1.56
   7   2  -1    3.83    1.24
  -7  -2   1    8.53    1.50
   6   2  -1   13.50    1.60
  -6  -2   1   11.22    1.63
   5   2  -1   -0.63    0.55
  -5  -2   1    0.41    0.19
  -5  -2   1    1.07    0.44
  -5  -2   1    0.94    0.64
   4   2  -1   14.20    0.84
   4   2  -1   14.63    1.21
  -4  -2   1   14.76    1.23
  -4  -2   1   16.50    0.89
  -4  -2   1   14.66    0.67
   3   2  -1   52.04    2.59
   3   2  -1   62.00    2.25
  -3  -2   1   57.87    2.69
  -3  -2   1   59.35    2.16
   2   2  -1   18.24    1.06
   2   2  -1   17.68    1.03
   2   2  -1   19.35    0.77
  -2  -2   1   18.53    1.06
  -2  -2   1   17.85    1.11
  -2  -2   1   19.30    0.80
   1   2  -1  250.07    9.10
   1   2  -1  261.87    8.86
   1   2  -1  250.15    9.03
  -1  -2   1  240.67    8.91
  -1  -2   1  254.77    9.14
  -1  -2   1  252.89    9.01
   0   2  -1   16.99    0.74
   0   2  -1   17.23    0.84
   0   2  -1   17.40    0.73
   0   2  -1   17.39    0.85
   0  -2   1   15.73    0.84
   0  -2   1   17.01    0.84
   0  -2   1   17.00    0.73
  -1   2  -1  266.78    9.45
  -1   2  -1  270.33    9.51
   1  -2   1  273.69    9.76
   1  -2   1  259.81    9.44
   1  -2   1  277.36    9.53
  -2   2  -1  249.54    9.05
  -2   2  -1  255.21    8.82
  -2   2  -1  235.15    8.70
   2  -2   1  249.88    9.08
   2  -2   1  246.90    8.78
   2  -2   1  242.71    8.71
  -3   2  -1   28.39    1.35
  -3   2  -1   26.15    1.47
  -3   2  -1   26.40    1.19
  -3   2  -1   26.74    1.48
   3  -2   1   26.75    1.31
   3  -2   1   26.60    1.49
   3  -2   1   27.79    1.17
  -4   2  -1   56.17    2.60
  -4   2  -1   52.56    2.43
  -4   2  -1   52.35    2.56
   4  -2   1   56.20    2.60
   4  -2   1   50.92    2.41
   4  -2   1   58.58    2.23
  -5   2  -1   77.81    3.53
  -5   2  -1   79.67    3.35
  -5   2  -1   79.09    3.59
   5  -2   1   85.44    3.57
  -6   2  -1    9.65    1.13
  -6   2  -1    8.70    1.06
   6  -2   1    9.96    1.15
  -7   2  -1   19.22    1.68
  -7   2  -1   21.88    1.55
   7  -2   1   20.73    1.89
  -8   2  -1   -1.11    1.03
  -8   2  -1    1.58    0.99
   8  -2   1   -0.12    0.94
  -9   2  -1    7.96    1.54
   9  -2   1    6.45    1.51
   8   1  -1   23.43    2.58
  -8  -1   1   27.29    2.79
   7   1  -1    0.34    0.96
  -7  -1   1    0.10    0.96
   6   1  -1    0.07    0.66
  -6  -1   1   -0.36    0.27
  -6  -1   1    0.28    0.73
   5   1  -1    3.38    0.70
  -5  -1   1    5.82    0.90
  -5  -1   1    4.32    0.43
  -5  -1   1    2.56    0.61
   4   1  -1   75.83    3.50
   4   1  -1   77.25    3.20
  -4  -1   1   78.04    3.47
  -4  -1   1   87.01    3.03
  -4  -1   1   81.67    3.23
   3   1  -1  150.57    5.69
   3   1  -1  149.32    5.54
   3   1  -1  144.88    5.82
  -3  -1   1  157.58    5.41
  -3  -1   1  151.18    5.79
   2   1  -1    0.48    0.21
   2   1  -1    1.11    0.18
   2   1  -1    0.89    0.23
  -2  -1   1    1.18    0.26
  -2  -1   1    0.71    0.24
  -2  -1   1    0.93    0.14
   1   1  -1    5.80    0.33
   1   1  -1    7.23    0.45
   1   1  -1    6.62    0.41
  -1  -1   1    6.67    0.32
  -1  -1   1    6.62    0.42
   0  -1   1   71.07    2.61
  -1   1  -1   -0.15    0.13
  -1   1  -1   -0.18    0.07
  -1   1  -1   -0.10    0.06
   1  -1   1    0.01    0.08
   1  -1   1   -0.03    0.07
   1  -1   1    0.04    0.12
  -2   1  -1  163.78    5.84
  -2   1  -1  155.37    5.74
  -2   1  -1  159.62    5.91
   2  -1   1  162.71    5.84
   2  -1   1  164.59    5.73
   2  -1   1  153.94    5.91
  -3   1  -1    6.16    0.64
  -3   1  -1    5.96    0.58
  -3   1  -1    5.56    0.49
   3  -1   1    5.74    0.46
   3  -1   1    6.28    0.60
   3  -1   1    6.18    0.56
  -4   1  -1   12.54    0.88
  -4   1  -1   12.77    0.94
  -4   1  -1   14.71    1.02
   4  -1   1   13.77    0.84
   4  -1   1   13.33    1.01
  -5   1  -1    8.15    1.03
  -5   1  -1    8.56    0.88
  -5   1  -1    7.83    0.85
   5  -1   1    7.08    0.98
  -6   1  -1    0.66    0.77
  -6   1  -1    1.09    0.56
  -6   1  -1    1.59    0.52
   6  -1   1    1.66    0.66
  -7   1  -1    0.40    0.73
  -7   1  -1    1.01    0.63
   7  -1   1    0.95    0.88
  -8   1  -1    3.80    1.14
   8  -1   1    5.34    1.19
  -9   1  -1    9.38    1.66
   9  -1   1    8.96    1.73
  -9   0   1    9.76    1.95
   8   0  -1    0.51    1.09
  -8   0   1   -1.62    1.14
   7   0  -1   13.57    1.67
  -7   0   1   10.73    0.95
  -7   0   1   11.56    1.47
   6   0  -1   35.42    2.16
  -6   0   1   31.29    2.01
  -6   0   1   29.26    2.07
  -6   0   1   37.21    1.68
   5   0  -1   23.85    1.64
   5   0  -1   21.32    1.53
  -5   0   1   27.63    1.32
  -5   0   1   24.74    1.63
  -5   0   1   25.02    1.57
   4   0  -1   13.31    0.90
   4   0  -1   14.64    1.09
   4   0  -1   11.98    1.01
  -4   0   1   14.80    0.87
  -4   0   1   15.03    1.02
  -4   0   1   14.60    1.09
   3   0  -1  227.76    8.13
   3   0  -1  222.16    8.21
  -3   0   1  220.10    8.20
  -3   0   1  228.63    8.10
  -3   0   1  225.12    8.31
   2   0  -1    3.58    0.35
   2   0  -1    3.75    0.37
   2   0  -1    4.06    0.34
  -2   0   1    3.14    0.30
  -2   0   1    3.52    0.34
  -2   0   1    4.04    0.42
   1   0  -1  353.87   12.20
   1   0  -1  339.49   12.18
   1   0  -1  347.15   12.14
  -1   0   1  333.83   12.15
  -1   0   1  362.34   12.21
  -1   0  -1   60.56    2.17
  -1   0  -1   61.46    2.23
  -1   0  -1   55.67    2.20
   1   0   1   57.68    2.23
   1   0   1   60.16    2.20
   1   0   1   59.73    2.19
  -2   0  -1  500.56   17.48
  -2   0  -1  515.26   17.60
  -2   0  -1  493.86   17.47
  -2   0  -1  497.07   17.55
   2   0   1  492.83   17.47
   2   0   1  490.05   17.60
  -3   0  -1   32.89    1.50
  -3   0  -1   35.93    1.67
  -3   0  -1   33.34    1.49
   3   0   1   35.95    1.56
  -4   0  -1    1.55    0.31
  -4   0  -1    0.59    0.36
  -4   0  -1    1.46    0.38
   4   0   1    1.90    0.47
  -5   0  -1   15.13    0.91
  -5   0  -1   11.92    1.02
  -5   0  -1   12.03    1.13
   5   0   1   13.54    1.20
  -6   0  -1    1.60    0.66
  -6   0  -1    1.24    0.44
  -6   0  -1   -0.08    0.64
   6   0   1    1.48    0.68
  -7   0  -1   18.60    1.85
   7   0   1   17.69    1.93
  -8   0  -1   18.53    2.18
   8   0   1   20.14    2.31
  -9   0  -1    6.34    1.73
   9   0   1    8.99    1.73
   9  -1  -1    5.14    1.47
  -9   1   1    8.98    1.75
   8  -1  -1   -1.30    1.04
  -8   1   1    1.41    1.12
   7  -1  -1    0.40    0.87
  -7   1   1    0.42    0.54
  -7   1   1    0.13    0.77
   6  -1  -1   22.04    1.69
  -6   1   1   23.36    1.63
  -6   1   1   25.63    1.50
   5  -1  -1   70.53    3.15
   5  -1  -1   63.30    3.12
  -5   1   1   67.21    2.92
  -5   1   1   67.35    3.17
  -5   1   1   66.83    2.94
   4  -1  -1    0.29    0.45
   4  -1  -1    0.92    0.27
   4  -1  -1    0.94    0.34
  -4   1   1    1.06    0.36
  -4   1   1    0.69    0.51
  -4   1   1    1.58    0.31
   3  -1  -1   53.50    2.03
   3  -1  -1   49.68    2.29
   3  -1  -1   52.35    2.25
  -3   1   1   53.76    2.34
  -3   1   1   50.85    2.23
  -3   1   1   51.93    2.26
  -3   1   1   50.90    2.10
   2  -1  -1   36.96    1.57
   2  -1  -1   35.76    1.65
   2  -1  -1   36.74    1.39
  -2   1   1   34.88    1.61
  -2   1   1   37.79    1.58
  -2   1   1   37.38    1.43
   1  -1  -1   39.24    1.54
   1  -1  -1   36.94    1.63
  -1   1   1   40.60    1.63
  -1   1   1   42.03    1.56
   0  -1  -1    0.84    0.13
   0  -1  -1    0.92    0.16
   0  -1  -1    0.91    0.14
   0   1   1    1.22    0.15
   0   1   1    0.61    0.11
  -1  -1  -1   77.62    3.01
  -1  -1  -1   80.12    3.01
  -1  -1  -1   85.55    2.83
   1   1   1   76.36    3.00
   1   1   1   81.42    3.00
   1   1   1   74.11    2.78
  -2  -1  -1    2.54    0.37
  -2  -1  -1    3.31    0.43
   2   1   1    3.81    0.45
   2   1   1    3.60    0.41
  -3  -1  -1   14.95    1.05
  -3  -1  -1   14.63    1.02
  -3  -1  -1   15.76    0.65
  -3  -1  -1   16.39    0.67
   3   1   1   14.59    1.01
   3   1   1   15.83    0.96
  -4  -1  -1   49.42    1.94
  -4  -1  -1   45.05    2.35
  -4  -1  -1   51.88    1.82
   4   1   1   45.34    2.37
  -5  -1  -1    2.47    0.31
  -5  -1  -1    3.29    0.52
  -5  -1  -1    2.76    0.68
   5   1   1    2.94    0.63
  -6  -1  -1    0.92    0.76
   6   1   1    0.42    0.70
  -7  -1  -1   12.59    1.60
   7   1   1   13.01    1.82
  -8  -1  -1    2.74    1.47
   8   1   1    1.33    1.26
   9  -2  -1   -0.70    1.24
  -9   2   1    1.05    1.35
   8  -2  -1    5.83    1.17
  -8   2   1    4.96    0.92
  -8   2   1    7.30    1.21
   7  -2  -1   12.59    1.48
  -7   2   1   14.37    1.34
  -7   2   1   10.37    1.41
   6  -2  -1    2.36    0.67
  -6   2   1    2.31    0.61
  -6   2   1    2.28    0.59
   5  -2  -1    4.81    0.56
   5  -2  -1    5.09    0.72
  -5   2   1    5.34    0.79
  -5   2   1    4.76    0.59
   4  -2  -1    4.96    0.42
   4  -2  -1    5.40    0.87
   4  -2  -1    4.08    0.59
  -4   2   1    4.50    0.75
  -4   2   1    4.37    0.70
  -4   2   1    5.62    0.53
   3  -2  -1    0.47    0.23
   3  -2  -1    0.34    0.12
   3  -2  -1   -0.38    0.38
  -3   2   1    0.44    0.32
  -3   2   1    0.30    0.15
  -3   2   1    0.23    0.43
  -3   2   1    0.47    0.31
   2  -2  -1    1.40    0.33
   2  -2  -1    1.29    0.22
   2  -2  -1    1.54    0.15
  -2   2   1    1.48    0.13
  -2   2   1    2.34    0.43
  -2   2   1    1.31    0.29
  -2   2   1    2.31    0.34
   1  -2  -1   51.35    1.94
   1  -2  -1   54.33    2.05
  -1   2   1   50.03    2.18
  -1   2   1   52.13    1.95
  -1   2   1   54.19    2.05
   0  -2  -1  135.68    5.08
   0  -2  -1  136.76    5.04
   0  -2  -1  133.93    5.05
   0   2   1  142.89    5.04
   0   2   1  141.04    5.04
   0   2   1  137.25    5.05
   0   2   1  137.04    5.05
   0   2   1  141.84    5.10
  -1  -2  -1  152.44    5.69
   1   2   1  154.42    5.67
   1   2   1  150.63    5.50
   1   2   1  153.21    5.71
   1   2   1  160.89    5.72
   1   2   1  154.05    5.45
  -2  -2  -1   64.76    2.87
  -2  -2  -1   72.71    2.84
   2   2   1   69.38    2.83
   2   2   1   65.15    2.85
  -3  -2  -1    8.45    0.83
   3   2   1    8.24    0.81
  -4  -2  -1    4.23    0.67
   4   2   1    6.01    0.86
  -5  -2  -1   10.48    1.37
   5   2   1   13.78    1.33
  -6  -2  -1   25.67    2.12
   6   2   1   21.69    3.00
  -7  -2  -1    0.95    1.25
   7   2   1    1.95    1.03
  -8  -2  -1    0.16    1.63
   8   2   1    0.42    1.45
   9  -3  -1    1.05    1.22
  -9   3   1    0.17    1.07
   8  -3  -1   -0.24    0.93
  -8   3   1    1.12    0.81
  -8   3   1   -0.53    0.95
   7  -3  -1   28.44    1.99
  -7   3   1   29.57    1.84
  -7   3   1   31.60    2.11
   6  -3  -1    7.95    1.01
   6  -3  -1    8.19    0.93
  -6   3   1    6.76    0.91
  -6   3   1   10.03    1.16
   5  -3  -1   -0.30    0.38
  -5   3   1    0.48    0.51
  -5   3   1    0.27    0.33
   4  -3  -1    1.57    0.37
   4  -3  -1    1.18    0.21
  -4   3   1    1.36    0.46
  -4   3   1    2.32    0.35
   3  -3  -1    0.61    0.45
   3  -3  -1    0.15    0.15
   3  -3  -1   -0.15    0.23
  -3   3   1   -0.13    0.48
  -3   3   1    0.18    0.31
  -3   3   1   -0.07    0.36
  -3   3   1    0.09    0.11
   2  -3  -1    9.13    0.83
   2  -3  -1   10.20    0.65
  -2   3   1    9.75    0.66
  -2   3   1   10.28    0.87
  -2   3   1   10.63    0.83
  -2   3   1   10.08    0.53
  -2   3   1   10.68    0.48
   1  -3  -1    8.14    0.53
   1  -3  -1    8.96    0.56
   1  -3  -1    9.36    0.75
  -1   3   1    8.18    0.53
  -1   3   1    9.26    0.77
  -1   3   1    8.30    0.70
  -1   3   1    8.60    0.57
   0  -3  -1   28.37    1.33
   0  -3  -1   28.39    1.41
   0  -3  -1   30.39    1.40
   0   3   1   29.60    1.35
   0   3   1   29.19    1.37
   0   3   1   28.50    1.35
   0   3   1   30.59    1.42
   0   3   1   28.32    1.32
  -1  -3  -1    7.65    0.66
  -1  -3  -1    9.05    0.74
   1   3   1    8.23    0.70
   1   3   1    8.32    0.51
   1   3   1    8.23    0.57
   1   3   1    9.55    0.68
  -2  -3  -1   27.18    1.55
   2   3   1   26.23    1.48
  -3  -3  -1   13.42    1.21
   3   3   1   14.28    1.13
  -4  -3  -1    3.40    0.74
   4   3   1    4.16    0.77
  -5  -3  -1    6.35    1.07
   5   3   1    4.12    0.88
  -6  -3  -1    1.02    1.09
   6   3   1   -0.41    0.90
  -7  -3  -1   -0.52    1.38
   7   3   1    0.09    1.26
  -9   4   1   12.67    1.99
   8  -4  -1    7.74    1.17
  -8   4   1   10.29    1.51
  -8   4   1    8.05    1.27
   7  -4  -1   10.46    1.35
  -7   4   1   11.20    1.46
  -7   4   1    9.10    1.17
   6  -4  -1   36.46    1.70
   6  -4  -1   41.40    2.15
  -6   4   1   39.37    1.96
  -6   4   1   39.39    2.41
   5  -4  -1   22.79    1.07
   5  -4  -1   22.17    1.36
  -5   4   1   21.33    1.69
  -5   4   1   23.14    1.12
   4  -4  -1   80.02    2.83
   4  -4  -1   70.44    3.09
  -4   4   1   71.18    3.50
  -4   4   1   75.22    2.77
   3  -4  -1   14.00    0.89
   3  -4  -1   14.93    0.79
  -3   4   1   15.07    1.20
  -3   4   1   16.61    0.79
  -3   4   1   15.80    1.01
  -3   4   1   15.59    0.67
   2  -4  -1   16.24    1.21
   2  -4  -1   15.50    1.02
  -2   4   1   17.62    0.86
  -2   4   1   15.17    1.19
  -2   4   1   16.51    1.20
  -2   4   1   16.80    0.96
  -2   4   1   16.68    0.82
   1  -4  -1   51.49    2.14
   1  -4  -1   47.72    2.37
  -1   4   1   52.27    2.14
  -1   4   1   52.29    2.13
  -1   4   1   49.57    2.37
  -1   4   1   47.97    2.31
   0  -4  -1   74.57    3.06
   0  -4  -1   70.08    2.95
   0   4   1   74.90    3.00
   0   4   1   66.73    2.94
   0   4   1   71.57    3.04
   0   4   1   73.21    2.97
   0   4   1   75.07    2.95
  -1  -4  -1   22.96    1.41
   1   4   1   24.01    1.13
   1   4   1   22.04    1.30
   1   4   1   22.70    1.17
  -2  -4  -1    6.07    0.93
   2   4   1    6.49    0.80
  -3  -4  -1   13.53    1.30
   3   4   1   11.77    1.19
  -4  -4  -1   37.23    2.40
   4   4   1   34.96    2.25
  -5  -4  -1    0.65    1.00
   5   4   1    2.63    0.88
  -6  -4  -1    4.91    1.37
   6   4   1   -0.51    1.01
  -7  -4  -1   -0.99    1.63
   7   4   1   -0.70    1.46
   9  -5  -1   -0.92    1.06
  -9   5   1   -0.98    1.24
   8  -5  -1    8.14    1.20
  -8   5   1    8.38    1.35
   7  -5  -1   -0.17    0.60
  -7   5   1    0.38    0.87
  -7   5   1    1.48    0.63
   6  -5  -1   13.09    1.19
   6  -5  -1   14.41    1.04
  -6   5   1   15.38    0.99
  -6   5   1   13.96    1.64
   5  -5  -1    9.36    0.91
   5  -5  -1    8.38    0.79
  -5   5   1    9.58    0.62
  -5   5   1   10.60    1.35
   4  -5  -1    2.68    0.41
   4  -5  -1    2.50    0.42
  -4   5   1    1.43    0.63
  -4   5   1    2.28    0.30
  -4   5   1    2.50    0.38
   3  -5  -1   92.20    3.77
  -3   5   1   92.72    4.25
  -3   5   1   96.50    3.59
  -3   5   1   94.72    3.48
   2  -5  -1    0.29    0.27
   2  -5  -1    0.38    0.26
  -2   5   1    0.45    0.48
  -2   5   1    0.82    0.28
  -2   5   1    0.42    0.34
   1  -5  -1   16.47    1.01
   1  -5  -1   18.32    1.08
  -1   5   1   18.77    1.09
  -1   5   1   15.32    1.16
  -1   5   1   15.93    1.31
   0  -5  -1    1.69    0.35
   0  -5  -1    1.81    0.43
   0   5   1    2.15    0.43
   0   5   1    1.50    0.46
   0   5   1    2.09    0.55
   0   5   1    1.61    0.43
  -1  -5  -1    5.92    0.89
   1   5   1    5.89    0.74
   1   5   1    6.82    0.66
   1   5   1    6.59    0.79
  -2  -5  -1   53.99    2.83
   2   5   1   57.72    2.14
   2   5   1   51.45    2.67
   2   5   1   55.55    2.09
  -3  -5  -1   92.08    4.37
   3   5   1   91.82    4.23
  -4  -5  -1   14.75    2.00
   4   5   1   16.74    1.73
  -5  -5  -1    1.86    1.14
   5   5   1    4.44    1.14
  -6  -5  -1    0.47    1.58
   6   5   1    0.88    1.24
   9  -6  -1   -2.26    1.00
  -9   6   1    0.30    1.27
   8  -6  -1    0.57    0.87
  -8   6   1    1.21    1.08
   7  -6  -1    4.54    0.77
  -7   6   1    2.50    1.18
  -7   6   1    4.72    0.88
   6  -6  -1   12.49    1.22
  -6   6   1   13.54    0.88
  -6   6   1   12.67    1.52
   5  -6  -1   11.07    1.00
   5  -6  -1   10.30    1.03
  -5   6   1   12.18    1.55
  -5   6   1   11.85    0.66
  -5   6   1   11.91    0.92
   4  -6  -1   15.46    1.13
  -4   6   1   15.24    1.46
  -4   6   1   17.67    1.03
  -4   6   1   16.97    0.80
   3  -6  -1    0.83    0.37
  -3   6   1    0.63    0.64
  -3   6   1    1.09    0.42
  -3   6   1    1.20    0.29
   2  -6  -1   31.58    1.52
   2  -6  -1   29.96    1.59
  -2   6   1   30.46    1.59
  -2   6   1   29.18    1.90
  -2   6   1   30.23    1.53
   1  -6  -1    5.21    0.70
   1  -6  -1    4.86    0.65
  -1   6   1    4.56    0.75
  -1   6   1    6.02    0.73
  -1   6   1    6.09    0.89
   0  -6  -1    7.69    0.85
   0  -6  -1    7.68    0.93
   0   6   1    7.80    1.10
   0   6   1    8.49    0.90
   0   6   1    6.52    0.86
  -1  -6  -1   -0.48    0.55
   1   6   1   -0.46    0.52
   1   6   1    0.14    0.47
   1   6   1    0.92    0.40
  -2  -6  -1   62.31    3.30
   2   6   1   63.49    2.47
   2   6   1   63.25    2.41
   2   6   1   58.72    3.06
  -3  -6  -1   11.96    1.64
   3   6   1   12.25    1.62
  -4  -6  -1    7.88    1.43
   4   6   1    9.17    1.33
  -5  -6  -1   13.19    1.96
   5   6   1    9.27    1.57
  -6  -6  -1    0.28    1.95
   6   6   1    1.73    1.61
   9  -7  -1    0.71    1.14
  -9   7   1    2.50    1.56
   8  -7  -1    0.54    0.87
  -8   7   1    0.08    1.37
   7  -7  -1    0.17    0.76
  -7   7   1   -0.06    1.12
   6  -7  -1    0.53    0.61
  -6   7   1    1.74    0.39
   5  -7  -1   20.38    1.47
  -5   7   1   19.12    0.95
  -5   7   1   19.31    1.82
   4  -7  -1    0.32    0.43
  -4   7   1   -0.53    0.68
  -4   7   1   -0.12    0.27
  -4   7   1   -0.24    0.52
   3  -7  -1   18.16    1.28
  -3   7   1   18.78    1.28
  -3   7   1   19.36    1.71
   2  -7  -1   -0.08    0.44
   2  -7  -1   -0.24    0.40
  -2   7   1   -0.24    0.61
  -2   7   1    0.47    0.45
   1  -7  -1    3.98    0.71
   1  -7  -1    5.31    0.79
  -1   7   1    5.26    0.79
  -1   7   1    4.29    0.74
  -1   7   1    5.31    0.85
   0  -7  -1   46.26    2.46
   0   7   1   44.29    2.31
   0   7   1   41.10    2.25
  -1  -7  -1   41.91    2.52
   1   7   1   42.97    2.23
   1   7   1   42.12    2.34
   1   7   1   42.22    2.12
  -2  -7  -1    1.80    0.94
   2   7   1    0.93    0.40
   2   7   1    1.15    0.77
  -3  -7  -1    4.75    1.14
   3   7   1    3.35    1.06
  -4  -7  -1    4.48    1.50
   4   7   1    1.29    1.12
  -5  -7  -1    5.54    1.77
   5   7   1    3.05    1.50
   8  -8  -1    2.16    0.98
  -8   8   1    0.46    1.47
   7  -8  -1   15.34    1.64
  -7   8   1   18.95    2.24
   6  -8  -1   15.66    1.47
  -6   8   1   15.64    2.18
   5  -8  -1    2.05    0.64
  -5   8   1    1.79    0.37
   4  -8  -1    2.08    0.57
  -4   8   1    2.66    0.96
  -4   8   1    1.30    0.38
   3  -8  -1    1.07    0.54
  -3   8   1    1.13    0.74
  -3   8   1    0.94    0.49
   2  -8  -1   40.77    2.31
   2  -8  -1   38.92    2.13
  -2   8   1   38.34    2.13
  -2   8   1   36.59    2.07
  -2   8   1   42.95    2.56
   1  -8  -1    2.52    0.68
   1  -8  -1    1.41    0.61
  -1   8   1    3.55    0.67
  -1   8   1    2.60    0.78
  -1   8   1    2.86    0.77
   0  -8  -1   52.40    2.91
   0   8   1   52.03    2.66
   0   8   1   52.01    2.75
  -1  -8  -1    4.09    1.07
   1   8   1    2.99    0.89
   1   8   1    3.47    0.70
  -2  -8  -1   -2.15    1.09
   2   8   1   -1.37    0.87
  -3  -8  -1   -1.04    1.33
   3   8   1    0.06    1.06
  -4  -8  -1    7.19    1.74
   4   8   1    4.78    1.47
   8  -9  -1    1.68    1.14
  -8   9   1    0.38    1.67
   7  -9  -1   -0.54    0.90
  -7   9   1    1.93    1.57
   6  -9  -1    3.35    0.94
  -6   9   1    2.70    1.17
   5  -9  -1   26.18    2.08
  -5   9   1   22.37    2.60
   4  -9  -1    6.61    0.90
  -4   9   1    6.27    0.82
  -4   9   1    6.96    1.56
   3  -9  -1    0.44    0.63
  -3   9   1    0.11    0.58
  -3   9   1    1.76    0.96
   2  -9  -1   30.99    1.86
   2  -9  -1   31.09    1.92
  -2   9   1   26.58    1.91
  -2   9   1   29.51    1.92
  -2   9   1   30.32    2.30
   1  -9  -1   14.93    1.46
   1  -9  -1   11.48    1.57
  -1   9   1   13.42    1.62
  -1   9   1   11.55    1.47
  -1   9   1   13.98    1.57
   0  -9  -1    2.33    0.96
   0   9   1    2.75    0.84
   0   9   1    1.75    0.82
  -1  -9  -1    1.64    1.20
   1   9   1    0.02    0.96
  -2  -9  -1    0.23    1.41
   2   9   1    1.48    1.15
  -3  -9  -1    1.14    1.68
   3   9   1   -0.31    1.36
   7 -10  -1   -0.10    1.17
  -7  10   1   -2.32    1.68
   6 -10  -1   -0.66    0.96
  -6  10   1   -0.16    1.47
   5 -10  -1    0.35    0.87
  -5  10   1    0.17    1.30
   4 -10  -1   10.76    1.42
  -4  10   1   10.24    1.67
   3 -10  -1    1.96    0.82
  -3  10   1    1.11    0.85
  -3  10   1    2.01    0.77
  -3  10   1    2.29    1.15
   2 -10  -1    0.61    0.86
   2 -10  -1    0.44    0.77
  -2  10   1    0.73    0.94
  -2  10   1    2.40    0.82
  -2  10   1    0.27    1.05
   1 -10  -1   10.82    1.39
  -1  10   1   10.12    1.73
  -1  10   1   15.47    1.70
  -1  10   1   12.94    1.56
   0 -10  -1   -0.81    1.14
   0  10   1    2.25    1.01
   0  10   1    1.50    1.23
  -1 -10  -1   -0.46    1.44
   1  10   1    0.46    1.17
  -2 -10  -1   11.72    2.13
   2  10   1   20.00    2.67
   6 -11  -1    4.25    1.23
  -6  11   1    5.02    2.05
   5 -11  -1    0.70    1.01
  -5  11   1    0.72    1.64
   4 -11  -1    0.57    1.00
  -4  11   1    2.06    1.41
  -4  11   1    1.67    1.05
   3 -11  -1   -0.27    1.06
  -3  11   1    0.35    1.31
  -3  11   1    2.06    1.03
   2 -11  -1    0.33    1.02
  -2  11   1    0.54    1.28
  -2  11   1    1.17    1.05
  -2  11   1    2.31    1.33
   1 -11  -1    5.92    1.42
  -1  11   1    3.74    1.26
  -1  11   1    6.67    1.50
   0 -11  -1    9.50    1.67
   0  11   1    5.99    1.67
   0  11   1    4.26    1.39
  -1  12  -2    1.37    1.48
  -1  12  -2    1.41    1.16
  -2  12  -2    0.03    1.58
  -2  12  -2    1.26    1.04
  -2  12  -2   -1.15    1.15
  -3  12  -2    3.80    1.10
  -3  12  -2    1.58    1.03
  -3  12  -2    3.11    1.78
  -4  12  -2    8.04    1.27
  -4  12  -2    7.97    1.82
   4 -12   2   11.30    1.72
  -5  12  -2    4.45    1.38
  -5  12  -2    6.46    1.91
   1  11  -2   -1.29    1.19
   1  11  -2   -2.27    1.58
  -1 -11   2   -0.31    1.51
   0  11  -2    2.16    1.37
   0  11  -2    3.00    1.05
   0 -11   2    0.73    1.29
  -1  11  -2    0.03    1.13
  -1  11  -2   -0.55    0.90
  -1  11  -2    0.04    1.24
   1 -11   2    1.14    1.08
  -2  11  -2    1.22    0.92
  -2  11  -2    0.68    1.40
  -2  11  -2   -0.04    0.96
  -3  11  -2    1.63    1.41
  -3  11  -2    0.71    0.82
  -3  11  -2    0.09    0.77
   3 -11   2    0.54    0.81
   3 -11   2   -0.50    1.47
  -4  11  -2    8.38    1.08
  -4  11  -2    7.34    1.62
  -4  11  -2   10.22    1.27
   4 -11   2    7.08    1.07
  -5  11  -2    5.61    1.74
   5 -11   2    7.07    1.13
  -6  11  -2    5.49    1.96
   6 -11   2    7.44    1.19
  -7  11  -2    2.58    2.06
   2  10  -2    3.08    1.56
   2  10  -2    3.03    1.23
  -2 -10   2    2.11    1.49
   1  10  -2    1.05    0.95
   1  10  -2    2.42    1.23
  -1 -10   2    0.17    1.21
   0  10  -2    7.29    1.07
   0  10  -2    7.98    1.46
   0  10  -2    7.79    1.30
   0 -10   2    7.62    1.28
   0 -10   2    8.64    1.27
  -1  10  -2    3.65    0.98
  -1  10  -2    2.89    0.76
  -1  10  -2    2.33    1.08
   1 -10   2    2.01    0.94
   1 -10   2    3.23    1.13
  -2  10  -2    7.75    1.02
  -2  10  -2    6.91    1.34
  -2  10  -2    8.01    1.07
   2 -10   2    7.86    1.15
   2 -10   2    7.33    1.51
  -3  10  -2    4.07    0.77
  -3  10  -2    5.61    0.79
   3 -10   2    4.60    0.77
  -4  10  -2    3.63    1.27
  -4  10  -2    2.60    0.61
   4 -10   2    2.73    1.46
   4 -10   2    2.29    0.71
  -5  10  -2    0.64    0.57
  -5  10  -2    0.34    1.42
   5 -10   2    2.96    1.54
   5 -10   2    1.51    0.75
  -6  10  -2    1.08    1.56
   6 -10   2    0.13    0.85
  -7  10  -2    6.29    1.81
   7 -10   2    6.03    1.09
  -8  10  -2    1.95    2.05
   8 -10   2    0.81    1.20
   4   9  -2    2.42    1.48
  -4  -9   2   -1.61    1.83
   3   9  -2    6.70    1.30
  -3  -9   2    6.50    1.66
   2   9  -2    8.77    1.22
  -2  -9   2    8.10    1.49
   1   9  -2    2.28    0.83
   1   9  -2    1.90    0.89
   1   9  -2    3.28    1.14
  -1  -9   2    3.21    1.04
  -1  -9   2    2.74    1.00
   0   9  -2    1.72    0.65
   0   9  -2    1.47    0.86
   0   9  -2    2.31    0.94
   0  -9   2    2.05    0.92
   0  -9   2    0.99    0.88
  -1   9  -2   17.49    1.39
  -1   9  -2   19.53    1.97
  -1   9  -2   14.62    1.67
   1  -9   2   19.23    2.03
   1  -9   2   19.75    1.60
  -2   9  -2   21.32    1.47
  -2   9  -2   21.72    1.56
  -2   9  -2   24.68    2.09
   2  -9   2   20.75    1.42
   2  -9   2   22.61    2.14
  -3   9  -2    8.31    1.30
  -3   9  -2    6.29    0.83
  -3   9  -2    5.64    0.73
   3  -9   2    7.06    0.92
   3  -9   2    8.92    1.57
  -4   9  -2    4.75    1.27
  -4   9  -2    3.10    0.59
   4  -9   2    3.69    0.64
   4  -9   2    2.90    1.19
  -5   9  -2    0.57    1.26
  -5   9  -2    1.08    0.48
   5  -9   2   -0.01    1.25
   5  -9   2   -0.02    0.62
  -6   9  -2    0.68    1.34
  -6   9  -2    0.14    0.54
   6  -9   2    1.95    0.72
  -7   9  -2   -1.07    1.50
   7  -9   2   -0.27    0.82
  -8   9  -2    4.64    1.74
   8  -9   2    7.32    1.17
   5   8  -2    8.06    1.68
  -5  -8   2    4.51    2.11
   4   8  -2    0.65    1.16
  -4  -8   2    2.64    1.59
   3   8  -2   -0.64    0.94
  -3  -8   2    0.91    1.24
   2   8  -2    6.35    0.89
   2   8  -2    6.40    1.02
  -2  -8   2    6.74    1.30
  -2  -8   2    7.93    1.26
   1   8  -2    8.30    1.20
   1   8  -2   13.64    1.40
   1   8  -2   10.13    1.42
  -1  -8   2    9.20    1.31
  -1  -8   2   10.75    1.59
   0   8  -2   13.22    1.48
   0   8  -2   19.23    1.61
   0   8  -2   16.86    1.32
   0  -8   2   18.66    1.61
   0  -8   2   16.49    1.57
  -1   8  -2   40.04    2.31
  -1   8  -2   38.19    2.47
  -1   8  -2   40.03    2.02
   1  -8   2   41.08    2.23
   1  -8   2   39.39    2.46
  -2   8  -2    0.94    0.77
  -2   8  -2    3.33    0.64
  -2   8  -2    2.65    0.48
   2  -8   2    2.81    0.90
   2  -8   2    2.16    0.47
  -3   8  -2    3.96    1.05
  -3   8  -2    3.79    0.58
   3  -8   2    4.67    0.70
   3  -8   2    1.97    0.93
  -4   8  -2    1.50    0.41
  -4   8  -2    2.84    1.02
   4  -8   2    1.86    0.48
   4  -8   2    1.00    0.99
  -5   8  -2   30.86    2.71
  -5   8  -2   30.47    1.55
   5  -8   2   29.02    2.69
   5  -8   2   31.43    1.77
  -6   8  -2    2.30    1.24
  -6   8  -2    3.25    0.59
   6  -8   2    4.31    0.75
   6  -8   2    3.04    1.38
  -7   8  -2    5.58    0.75
  -7   8  -2    4.79    1.48
   7  -8   2    4.75    0.83
  -8   8  -2   -0.67    1.54
   8  -8   2    1.44    0.88
  -9   8  -2   -1.09    1.81
   9  -8   2    1.94    1.18
   5   7  -2   14.72    2.21
  -5  -7   2   13.10    1.96
   4   7  -2    2.55    1.06
  -4  -7   2    0.07    1.21
   3   7  -2    1.26    0.79
  -3  -7   2    1.69    0.98
   2   7  -2   16.62    1.26
   2   7  -2   12.65    1.40
  -2  -7   2   13.58    1.62
  -2  -7   2   12.99    1.27
   1   7  -2   16.63    1.41
   1   7  -2   17.52    1.34
   1   7  -2   19.46    1.31
  -1  -7   2   16.88    1.41
  -1  -7   2   18.10    1.54
   0   7  -2   10.55    1.23
   0   7  -2   11.56    1.22
   0   7  -2   11.48    0.96
   0  -7   2    9.94    1.17
   0  -7   2   10.41    1.26
  -1   7  -2    9.63    1.04
  -1   7  -2    9.18    0.84
  -1   7  -2   10.34    1.22
   1  -7   2    9.08    1.01
   1  -7   2    9.34    1.29
   1  -7   2    9.14    0.82
  -2   7  -2   30.92    1.57
  -2   7  -2   34.02    2.24
  -2   7  -2   32.29    1.74
   2  -7   2   30.71    1.54
   2  -7   2   33.26    2.18
  -3   7  -2    1.75    0.42
  -3   7  -2    0.74    0.79
   3  -7   2    2.50    0.44
   3  -7   2    2.63    0.84
  -4   7  -2    9.25    0.74
  -4   7  -2    6.51    1.15
   4  -7   2    8.09    1.31
   4  -7   2    8.92    0.84
  -5   7  -2    8.55    0.74
  -5   7  -2   10.15    1.64
   5  -7   2    8.07    1.38
   5  -7   2    8.23    0.94
  -6   7  -2   -0.65    0.92
  -6   7  -2    0.00    0.41
   6  -7   2   -0.04    0.51
   6  -7   2    1.81    1.09
  -7   7  -2   11.87    1.66
  -7   7  -2   10.73    1.09
   7  -7   2   12.29    1.27
  -8   7  -2    4.29    1.46
  -8   7  -2    4.64    0.86
   8  -7   2    4.99    0.93
  -9   7  -2    8.20    1.76
   9  -7   2    5.45    1.19
   6   6  -2    2.17    1.43
  -6  -6   2    4.55    1.68
   5   6  -2    1.09    1.02
  -5  -6   2    0.41    1.31
   4   6  -2   20.16    2.05
  -4  -6   2   15.73    1.98
   3   6  -2   -0.22    0.64
   3   6  -2    0.63    0.44
  -3  -6   2   -0.04    0.79
  -3  -6   2   -0.02    0.46
   2   6  -2    1.29    0.52
   2   6  -2    1.61    0.36
  -2  -6   2    1.09    0.64
  -2  -6   2    2.04    0.55
   1   6  -2   18.36    1.25
   1   6  -2   21.94    1.24
  -1  -6   2   17.04    1.58
  -1  -6   2   19.75    1.53
   0   6  -2    0.65    0.51
   0   6  -2   -0.16    0.52
   0   6  -2   -0.09    0.30
   0  -6   2   -0.19    0.44
   0  -6   2    0.34    0.54
  -1   6  -2    4.38    0.66
  -1   6  -2    4.70    0.55
  -1   6  -2    4.40    0.62
   1  -6   2    5.03    0.82
   1  -6   2    4.49    0.67
   1  -6   2    5.37    0.55
  -2   6  -2    0.09    0.28
  -2   6  -2    1.23    0.34
  -2   6  -2    0.39    0.58
   2  -6   2    0.19    0.29
   2  -6   2    0.09    0.57
  -3   6  -2   44.61    1.98
  -3   6  -2   40.69    2.55
  -3   6  -2   42.64    1.90
  -3   6  -2   43.96    2.10
   3  -6   2   44.37    1.91
   3  -6   2   41.73    2.57
   3  -6   2   41.73    2.09
  -4   6  -2    0.38    0.63
  -4   6  -2    0.96    0.29
   4  -6   2    0.99    0.32
   4  -6   2    1.05    0.62
  -5   6  -2   91.53    3.56
  -5   6  -2   91.49    4.55
   5  -6   2   90.02    3.71
   5  -6   2   87.96    4.53
  -6   6  -2   33.96    1.71
  -6   6  -2   33.49    2.61
   6  -6   2   34.23    1.87
   6  -6   2   38.56    2.66
  -7   6  -2    2.55    0.57
  -7   6  -2    3.53    1.08
   7  -6   2    3.01    0.71
  -8   6  -2    0.05    0.76
  -8   6  -2    0.39    1.25
   8  -6   2   -1.05    0.78
  -9   6  -2    4.34    1.53
   9  -6   2    5.64    1.17
   7   5  -2   10.31    1.80
  -7  -5   2   10.84    2.06
   6   5  -2   -2.56    1.14
  -6  -5   2    0.11    1.37
   5   5  -2   10.38    1.62
  -5  -5   2    7.98    1.30
   4   5  -2   49.36    2.78
  -4  -5   2   52.69    3.13
   3   5  -2   44.21    2.34
   3   5  -2   43.45    1.71
  -3  -5   2   45.23    2.56
  -3  -5   2   42.34    1.94
   2   5  -2   19.11    0.91
   2   5  -2   18.11    1.25
  -2  -5   2   17.29    1.15
  -2  -5   2   16.50    1.38
   1   5  -2    0.78    0.41
   1   5  -2    0.38    0.29
   1   5  -2    0.52    0.33
  -1  -5   2   -0.17    0.42
  -1  -5   2    0.10    0.43
  -1  -5   2   -0.10    0.41
   0   5  -2    1.30    0.31
   0   5  -2    0.85    0.44
   0   5  -2    1.49    0.31
   0   5  -2    1.35    0.40
   0  -5   2    1.59    0.46
   0  -5   2    1.01    0.36
  -1   5  -2    4.50    0.66
  -1   5  -2    3.39    0.44
  -1   5  -2    4.12    0.58
  -1   5  -2    4.25    0.58
  -1   5  -2    3.81    0.43
   1  -5   2    3.22    0.59
   1  -5   2    4.84    0.44
   1  -5   2    3.05    0.44
  -2   5  -2   42.68    1.74
  -2   5  -2   41.28    1.93
   2  -5   2   42.35    1.73
   2  -5   2   41.49    1.96
   2  -5   2   36.15    2.20
  -3   5  -2   45.01    2.64
  -3   5  -2   51.94    2.15
   3  -5   2   52.45    2.26
   3  -5   2   48.19    2.70
   3  -5   2   51.47    2.10
  -4   5  -2    0.11    0.46
  -4   5  -2    0.45    0.24
  -4   5  -2    0.12    0.56
   4  -5   2    0.70    0.54
   4  -5   2    0.74    0.42
   4  -5   2   -0.04    0.28
  -5   5  -2    9.88    0.74
  -5   5  -2   10.58    1.40
   5  -5   2    9.75    0.86
   5  -5   2    9.62    1.32
  -6   5  -2   11.96    1.77
  -6   5  -2   14.05    1.01
   6  -5   2   15.19    1.75
   6  -5   2   15.29    1.17
  -7   5  -2    2.34    0.61
  -7   5  -2    2.34    1.05
   7  -5   2    1.24    0.70
  -8   5  -2   -0.43    1.09
  -8   5  -2   -0.36    0.79
   8  -5   2   -0.82    0.80
  -9   5  -2    2.83    1.20
  -9   5  -2    0.37    1.38
   9  -5   2    1.78    1.20
   7   4  -2    1.26    1.31
  -7  -4   2    5.26    1.63
   6   4  -2    8.94    1.44
  -6  -4   2    7.04    1.47
   5   4  -2    0.42    0.79
  -5  -4   2   -0.78    0.95
   4   4  -2   20.98    1.03
   4   4  -2   21.87    1.61
  -4  -4   2   18.91    1.04
  -4  -4   2   21.98    1.77
   3   4  -2   37.01    2.05
   3   4  -2   37.53    1.53
  -3  -4   2   39.55    1.72
  -3  -4   2   39.16    2.21
   2   4  -2   -0.10    0.31
   2   4  -2    0.00    0.17
  -2  -4   2    0.03    0.42
  -2  -4   2    0.02    0.31
   1   4  -2  144.50    5.50
   1   4  -2  137.96    5.66
   1   4  -2  150.69    5.39
   1   4  -2  149.35    5.44
  -1  -4   2  136.85    5.69
  -1  -4   2  142.23    5.55
  -1  -4   2  153.18    5.49
   0   4  -2    6.52    0.50
   0   4  -2    7.04    0.67
   0   4  -2    6.65    0.52
   0   4  -2    5.88    0.69
   0   4  -2    7.15    0.70
   0  -4   2    7.22    0.68
   0  -4   2    7.56    0.70
  -1   4  -2   16.49    0.77
  -1   4  -2   15.75    0.77
  -1   4  -2   15.37    0.96
  -1   4  -2   16.81    0.97
  -1   4  -2   16.06    1.13
   1  -4   2   15.84    1.14
   1  -4   2   15.96    0.77
   1  -4   2   13.87    0.98
  -2   4  -2    8.85    0.97
  -2   4  -2    9.52    0.58
  -2   4  -2    8.78    0.60
   2  -4   2    7.55    1.08
   2  -4   2    9.46    0.71
   2  -4   2    9.09    0.53
  -3   4  -2  435.21   15.44
  -3   4  -2  420.67   16.04
  -3   4  -2  450.87   15.54
   3  -4   2  414.91   16.09
   3  -4   2  457.97   15.55
   3  -4   2  443.87   15.47
  -4   4  -2  145.26    5.39
  -4   4  -2  147.38    5.57
  -4   4  -2  140.24    6.04
   4  -4   2  141.70    6.05
   4  -4   2  145.62    5.49
   4  -4   2  150.54    5.43
  -5   4  -2   40.88    1.85
  -5   4  -2   41.61    2.42
   5  -4   2   38.19    1.92
   5  -4   2   41.15    2.42
  -6   4  -2   45.74    2.75
  -6   4  -2   49.08    2.28
   6  -4   2   51.61    2.83
   6  -4   2   47.98    2.43
  -7   4  -2   -0.36    0.57
  -7   4  -2    0.49    0.91
   7  -4   2   -0.22    0.68
  -8   4  -2    3.91    1.11
  -8   4  -2    2.27    0.91
   8  -4   2    1.00    0.92
   9  -4   2   -0.43    1.21
   8   3  -2    0.97    1.49
  -8  -3   2   -0.38    1.83
   7   3  -2   -1.40    1.09
  -7  -3   2    0.16    1.32
   6   3  -2   -0.76    0.79
  -6  -3   2    0.65    1.17
   5   3  -2   14.07    1.52
   5   3  -2   13.81    1.04
  -5  -3   2   16.55    1.27
  -5  -3   2   17.51    0.89
  -5  -3   2   16.98    1.71
   4   3  -2   64.49    2.59
   4   3  -2   63.03    3.11
  -4  -3   2   66.04    2.53
  -4  -3   2   64.66    3.21
   3   3  -2   40.59    1.63
   3   3  -2   37.29    2.03
  -3  -3   2   43.52    1.70
  -3  -3   2   38.38    2.13
   2   3  -2    1.63    0.45
   2   3  -2    0.43    0.28
   2   3  -2    0.73    0.16
  -2  -3   2   -0.07    0.33
  -2  -3   2    0.50    0.31
  -2  -3   2    0.91    0.25
   1   3  -2    1.09    0.35
   1   3  -2    0.60    0.21
   1   3  -2    1.37    0.23
  -1  -3   2    0.67    0.26
  -1  -3   2    0.83    0.27
  -1  -3   2    0.73    0.27
   0   3  -2   52.04    2.20
   0   3  -2   51.07    2.14
   0   3  -2   51.75    1.98
   0   3  -2   52.25    1.96
   0   3  -2   51.04    2.18
   0  -3   2   49.97    2.20
   0  -3   2   48.20    2.14
   0  -3   2   50.39    1.96
  -1   3  -2  238.99    8.74
  -1   3  -2  233.36    8.52
  -1   3  -2  234.90    8.55
  -1   3  -2  242.49    8.34
   1  -3   2  230.32    8.33
   1  -3   2  231.34    8.78
   1  -3   2  247.28    8.58
  -2   3  -2   34.91    1.79
  -2   3  -2   36.15    1.50
  -2   3  -2   36.21    1.48
   2  -3   2   37.10    1.56
   2  -3   2   35.53    1.86
   2  -3   2   35.78    1.45
  -3   3  -2  133.82    4.86
  -3   3  -2  126.34    5.18
  -3   3  -2  133.61    4.78
   3  -3   2  125.02    5.54
   3  -3   2  127.80    4.77
   3  -3   2  127.21    4.81
  -4   3  -2   31.75    1.51
  -4   3  -2   31.56    1.87
  -4   3  -2   32.09    1.90
  -4   3  -2   36.59    1.69
   4  -3   2   33.37    1.92
   4  -3   2   31.88    1.61
   4  -3   2   34.61    1.50
  -5   3  -2    0.89    0.34
  -5   3  -2    1.05    0.60
   5  -3   2    1.01    0.43
   5  -3   2    0.82    0.53
  -6   3  -2   44.68    2.52
  -6   3  -2   47.68    2.31
   6  -3   2   49.30    2.51
  -7   3  -2    6.98    1.01
  -7   3  -2    7.61    1.03
   7  -3   2    5.24    1.05
  -8   3  -2    6.05    1.11
  -8   3  -2    4.98    1.07
   8  -3   2    5.83    1.18
  -9   3  -2    0.29    1.25
   9  -3   2    0.68    1.29
   8   2  -2    0.53    1.32
  -8  -2   2    2.03    1.65
   7   2  -2    2.06    1.05
  -7  -2   2    0.42    1.21
   6   2  -2    0.84    0.75
  -6  -2   2    0.56    0.87
  -6  -2   2    0.61    0.29
   5   2  -2    0.57    0.55
   5   2  -2    0.55    0.57
  -5  -2   2   -0.03    0.68
  -5  -2   2    1.06    0.62
  -5  -2   2    0.61    0.23
   4   2  -2    3.12    0.60
   4   2  -2    3.09    0.47
  -4  -2   2    3.02    0.33
  -4  -2   2    3.43    0.69
   3   2  -2   21.73    1.34
   3   2  -2   22.52    1.06
   3   2  -2   23.76    1.47
  -3  -2   2   20.67    1.36
  -3  -2   2   22.79    0.98
   2   2  -2   10.35    0.76
   2   2  -2    9.72    0.81
   2   2  -2   12.58    0.59
  -2  -2   2   12.13    0.60
  -2  -2   2   11.53    0.86
  -2  -2   2   11.67    0.79
   1   2  -2   16.97    0.95
   1   2  -2   18.09    0.77
   1   2  -2   17.61    0.87
  -1  -2   2   16.71    0.95
  -1  -2   2   17.47    0.82
  -1  -2   2   16.26    0.85
   0   2  -2   28.09    1.11
   0   2  -2   29.33    1.25
   0   2  -2   27.56    1.26
   0   2  -2   29.46    1.28
   0  -2   2   27.52    1.10
   0  -2   2   27.52    1.25
   0  -2   2   29.44    1.29
   0  -2   2   28.03    1.28
  -1   2  -2  376.39   13.10
  -1   2  -2  363.69   13.23
  -1   2  -2  394.48   13.45
   1  -2   2  384.91   13.48
   1  -2   2  348.65   13.09
   1  -2   2  390.83   13.28
  -2   2  -2  184.77    6.69
  -2   2  -2  196.46    6.72
  -2   2  -2  188.79    6.98
   2  -2   2  185.69    6.70
   2  -2   2  180.92    7.01
   2  -2   2  183.85    6.69
  -3   2  -2    1.10    0.39
  -3   2  -2    0.97    0.26
  -3   2  -2    1.02    0.22
   3  -2   2    0.77    0.25
   3  -2   2    0.83    0.20
   3  -2   2    0.12    0.31
  -4   2  -2   12.14    1.00
  -4   2  -2    8.75    0.69
  -4   2  -2    9.21    0.84
  -4   2  -2    9.09    0.94
   4  -2   2    9.71    0.93
   4  -2   2    9.18    0.78
   4  -2   2    9.03    0.66
  -5   2  -2    0.49    0.51
  -5   2  -2    0.17    0.64
  -5   2  -2    0.16    0.37
   5  -2   2    0.46    0.48
   5  -2   2    0.25    0.46
  -6   2  -2   10.75    1.23
  -6   2  -2   10.76    1.12
   6  -2   2    9.83    1.16
  -7   2  -2   20.07    1.66
  -7   2  -2   17.69    1.55
   7  -2   2   19.53    1.83
  -8   2  -2    0.41    0.98
   8  -2   2   -0.97    1.07
  -9   2  -2   -1.57    1.32
   9  -2   2   -0.91    1.40
   8   1  -2    6.08    1.36
  -8  -1   2    5.77    1.52
   7   1  -2    5.88    1.14
  -7  -1   2    8.00    1.36
   6   1  -2   36.11    2.36
   6   1  -2   41.69    2.72
  -6  -1   2   40.61    2.43
  -6  -1   2   34.98    1.68
   5   1  -2   28.92    1.85
   5   1  -2   27.82    1.67
  -5  -1   2   31.34    1.85
  -5  -1   2   30.24    1.35
  -5  -1   2   26.86    1.76
   4   1  -2    0.19    0.38
   4   1  -2    0.24    0.39
  -4  -1   2    0.18    0.19
  -4  -1   2   -0.29    0.40
   3   1  -2    2.37    0.40
   3   1  -2    2.03    0.41
   3   1  -2    3.02    0.45
  -3  -1   2    2.50    0.44
  -3  -1   2    2.36    0.44
  -3  -1   2    3.04    0.29
   2   1  -2   40.78    1.79
   2   1  -2   42.29    1.67
   2   1  -2   42.97    1.84
  -2  -1   2   39.79    1.81
  -2  -1   2   42.01    1.82
  -2  -1   2   41.32    1.63
   1   1  -2  204.20    7.30
   1   1  -2  202.53    7.22
   1   1  -2  208.36    7.34
  -1  -1   2  210.85    7.30
  -1  -1   2  198.60    7.33
  -1  -1   2  198.47    7.21
   0   1  -2    0.34    0.10
   0   1  -2    0.49    0.08
   0   1  -2    0.34    0.10
   0  -1   2    0.23    0.09
   0  -1   2    0.31    0.07
   0  -1   2    0.11    0.10
  -1   1  -2   55.72    2.11
  -1   1  -2   58.46    2.07
  -1   1  -2   56.49    2.20
   1  -1   2   58.28    2.12
   1  -1   2   54.90    2.07
   1  -1   2   54.36    2.23
  -2   1  -2   26.56    1.16
  -2   1  -2   26.00    1.22
  -2   1  -2   23.87    1.11
   2  -1   2   26.30    1.17
   2  -1   2   26.05    1.12
   2  -1   2   24.53    1.23
  -3   1  -2    9.10    0.65
  -3   1  -2    8.41    0.72
  -3   1  -2    9.69    0.73
   3  -1   2    9.52    0.72
   3  -1   2    9.20    0.61
   3  -1   2    8.72    0.73
  -4   1  -2   18.27    1.15
  -4   1  -2   17.30    1.16
  -4   1  -2   19.26    1.17
   4  -1   2   21.93    1.22
   4  -1   2   20.59    1.25
  -5   1  -2   40.04    2.09
  -5   1  -2   44.16    2.10
  -5   1  -2   44.15    2.20
   5  -1   2   43.05    2.24
  -6   1  -2    1.45    0.65
  -6   1  -2    0.88    0.75
  -6   1  -2    1.61    0.58
   6  -1   2    1.67    0.70
  -7   1  -2   -0.07    0.61
   7  -1   2    0.01    0.90
  -8   1  -2    4.65    1.19
   8  -1   2    2.93    1.21
  -9   1  -2    0.72    1.51
   9  -1   2   -0.37    1.48
   9   0  -2    8.75    1.70
  -9   0   2    7.11    1.82
   8   0  -2    5.01    1.26
   7   0  -2   -1.31    0.79
  -7   0   2   -0.38    0.46
  -7   0   2    0.49    0.93
   6   0  -2    0.13    0.64
  -6   0   2   -0.02    0.38
  -6   0   2    0.38    0.68
   5   0  -2   -0.60    0.63
   5   0  -2    0.31    0.51
  -5   0   2    0.05    0.70
  -5   0   2    0.56    0.30
  -5   0   2    0.49    0.45
   4   0  -2    0.18    0.36
   4   0  -2    0.52    0.44
  -4   0   2    0.34    0.27
   3   0  -2  102.69    4.10
   3   0  -2   88.97    4.30
   3   0  -2  109.10    3.99
  -3   0   2  109.41    4.20
  -3   0   2  109.82    3.99
  -3   0   2  109.15    4.07
   2   0  -2   18.05    0.87
   2   0  -2   19.00    0.97
   2   0  -2   18.71    0.94
  -2   0   2   18.43    0.98
  -2   0   2   18.94    0.89
  -2   0   2   19.38    0.91
   1   0  -2  254.04    8.93
   1   0  -2  227.38    8.91
   1   0  -2  260.43    8.87
   1   0  -2  255.54    8.92
  -1   0   2  259.47    8.94
  -1   0   2  253.71    8.91
  -1   0   2  253.18    8.85
   0   0  -2    8.66    0.41
   0   0  -2    8.15    0.39
   0   0  -2    8.47    0.42
   0   0   2    8.42    0.40
   0   0   2    8.05    0.44
   0   0   2    8.36    0.42
  -1   0  -2   10.11    0.53
  -1   0  -2   10.05    0.46
   1   0   2    9.25    0.49
   1   0   2    9.26    0.51
   1   0   2   10.00    0.52
   1   0   2    9.52    0.49
  -2   0  -2   12.69    0.60
  -2   0  -2   11.23    0.69
  -2   0  -2   12.55    0.72
   2   0   2   10.64    0.69
   2   0   2   11.18    0.65
  -3   0  -2   36.22    1.77
  -3   0  -2   38.03    1.80
  -3   0  -2   40.87    1.62
   3   0   2   36.66    1.83
   3   0   2   37.73    1.66
   3   0   2   39.46    1.72
  -4   0  -2   12.85    0.81
  -4   0  -2   10.50    0.92
  -4   0  -2   11.98    0.81
   4   0   2   11.73    0.97
  -5   0  -2   23.92    1.60
  -5   0  -2   26.36    1.36
  -5   0  -2   26.02    1.34
   5   0   2   24.82    1.71
  -6   0  -2    3.08    0.79
  -6   0  -2    5.02    0.74
   6   0   2    3.72    0.78
  -7   0  -2   -0.27    0.94
   7   0   2   -0.28    0.92
  -8   0  -2    3.24    1.27
   8   0   2    1.02    1.17
   9  -1  -2    4.09    1.40
  -9   1   2    3.46    1.65
   8  -1  -2   15.70    1.95
  -8   1   2   18.45    2.09
  -8   1   2   14.58    1.38
  -7   1   2   24.83    1.90
  -7   1   2   26.18    1.55
   6  -1  -2    5.06    0.89
  -6   1   2    5.53    0.84
  -6   1   2    6.76    0.88
   5  -1  -2   -0.36    0.45
   5  -1  -2   -0.10    0.36
  -5   1   2   -0.22    0.40
  -5   1   2    0.32    0.39
   4  -1  -2    1.80    0.30
   4  -1  -2    0.31    0.49
   4  -1  -2    0.76    0.37
  -4   1   2    1.76    0.35
  -4   1   2    1.35    0.37
   3  -1  -2   64.82    2.42
   3  -1  -2   61.60    2.75
  -3   1   2   64.13    2.70
  -3   1   2   65.62    2.50
  -3   1   2   62.15    2.65
   2  -1  -2  122.03    4.62
   2  -1  -2  123.39    4.40
  -2   1   2  121.02    4.67
  -2   1   2  125.97    4.43
  -2   1   2  128.05    4.66
   1  -1  -2  133.83    4.97
   1  -1  -2  131.65    4.87
  -1   1   2  132.09    4.93
  -1   1   2  135.20    4.70
  -1   1   2  140.33    4.90
   0  -1  -2  714.63   25.09
   0  -1  -2  720.10   25.10
   0  -1  -2  706.07   25.04
   0   1   2  745.80   25.10
   0   1   2  701.76   25.05
   0   1   2  724.77   25.03
  -1  -1  -2  173.88    6.36
  -1  -1  -2  174.37    6.19
  -1  -1  -2  178.95    6.36
   1   1   2  169.99    6.16
   1   1   2  178.74    6.32
   1   1   2  182.40    6.35
   1   1   2  166.97    6.36
  -2  -1  -2   16.16    0.97
  -2  -1  -2   17.43    0.95
  -2  -1  -2   16.17    0.65
   2   1   2   16.22    0.91
   2   1   2   16.17    0.95
   2   1   2   16.38    0.73
  -3  -1  -2  200.80    6.53
  -3  -1  -2  182.54    6.60
  -3  -1  -2  177.68    7.06
   3   1   2  176.26    7.07
   3   1   2  192.87    6.61
  -4  -1  -2    0.74    0.21
  -4  -1  -2    1.05    0.42
   4   1   2    0.84    0.40
  -5  -1  -2    4.32    0.77
   5   1   2    2.13    0.68
  -6  -1  -2    1.66    0.78
   6   1   2    3.33    0.85
  -7  -1  -2   22.84    2.25
   7   1   2   28.36    2.34
  -8  -1  -2    1.30    1.39
   8   1   2    2.38    1.34
   9  -2  -2   -1.50    1.26
   8  -2  -2    0.48    0.96
  -8   2   2   -0.41    0.75
   7  -2  -2    1.20    0.74
  -7   2   2    0.78    0.77
  -7   2   2    0.07    0.67
   6  -2  -2    3.92    0.78
  -6   2   2    3.84    0.66
  -6   2   2    4.25    0.72
   5  -2  -2   16.04    0.88
   5  -2  -2   16.13    1.21
  -5   2   2   15.06    1.18
  -5   2   2   18.05    1.10
   4  -2  -2   62.47    2.83
   4  -2  -2   69.02    2.48
  -4   2   2   62.96    2.92
  -4   2   2   68.10    2.61
   3  -2  -2   23.90    1.30
   3  -2  -2   27.81    1.04
   3  -2  -2   25.33    1.54
  -3   2   2   27.26    1.09
  -3   2   2   28.58    1.43
   2  -2  -2   32.27    1.68
   2  -2  -2   34.30    1.50
  -2   2   2   34.22    1.63
  -2   2   2   35.43    1.54
   1  -2  -2   33.60    1.30
   1  -2  -2   32.61    1.42
   1  -2  -2   33.14    1.57
  -1   2   2   32.35    1.51
  -1   2   2   34.30    1.27
   0  -2  -2    0.20    0.14
   0  -2  -2    0.16    0.15
   0  -2  -2    0.20    0.19
   0   2   2    0.36    0.18
   0   2   2    0.01    0.13
   0   2   2    0.22    0.16
  -1  -2  -2   61.07    2.35
  -1  -2  -2   57.33    2.51
  -1  -2  -2   64.82    2.52
   1   2   2   60.85    2.53
   1   2   2   61.06    2.25
   1   2   2   61.37    2.47
   1   2   2   61.78    2.48
  -2  -2  -2   13.72    0.98
  -2  -2  -2   16.01    1.01
   2   2   2   14.21    0.97
   2   2   2   15.62    0.95
   2   2   2   15.01    0.95
  -3  -2  -2   40.16    2.06
   3   2   2   38.56    2.00
  -4  -2  -2   10.75    1.13
   4   2   2   12.57    1.17
  -5  -2  -2   -0.77    0.65
   5   2   2   -0.42    0.63
  -6  -2  -2    0.03    0.91
   6   2   2   -0.56    0.85
  -7  -2  -2    0.36    1.19
  -8  -2  -2   13.36    2.05
   8   2   2   14.60    1.98
   9  -3  -2    0.19    1.19
  -9   3   2    0.39    0.95
   8  -3  -2   10.24    1.32
  -8   3   2   13.31    1.77
  -8   3   2   10.09    1.57
   7  -3  -2    3.40    0.85
  -7   3   2    6.21    0.99
  -7   3   2    4.97    0.82
   6  -3  -2    0.62    0.35
   6  -3  -2    0.18    0.59
  -6   3   2    1.20    0.63
  -6   3   2    0.76    0.58
   5  -3  -2   51.04    2.49
   5  -3  -2   54.40    2.07
  -5   3   2   51.26    2.67
  -5   3   2   56.01    2.25
   4  -3  -2   38.10    1.87
   4  -3  -2   39.68    1.49
  -4   3   2   36.01    2.06
  -4   3   2   41.06    1.58
   3  -3  -2   17.96    1.35
   3  -3  -2   18.00    1.02
  -3   3   2   19.27    1.43
  -3   3   2   17.66    1.25
  -3   3   2   19.73    1.11
   2  -3  -2   30.06    1.59
   2  -3  -2   31.16    1.71
  -2   3   2   31.86    1.87
  -2   3   2   32.92    1.21
  -2   3   2   34.75    1.23
   1  -3  -2    0.17    0.17
   1  -3  -2    0.38    0.19
   1  -3  -2    0.42    0.32
  -1   3   2   -0.02    0.35
  -1   3   2    0.22    0.17
  -1   3   2    0.10    0.24
  -1   3   2    0.38    0.22
   0  -3  -2   11.23    0.74
   0  -3  -2   11.89    0.82
   0  -3  -2   10.94    0.74
   0   3   2   11.96    0.77
   0   3   2   11.64    0.71
   0   3   2   11.42    0.85
   0   3   2   11.69    0.76
   0   3   2   11.65    0.72
  -1  -3  -2   74.92    3.08
  -1  -3  -2   69.61    3.15
  -1  -3  -2   75.46    2.95
   1   3   2   77.66    3.08
   1   3   2   79.37    2.82
   1   3   2   77.51    2.96
   1   3   2   73.30    3.04
   1   3   2   71.89    3.10
  -2  -3  -2   25.66    1.50
   2   3   2   23.40    1.41
  -3  -3  -2    8.08    0.97
   3   3   2    6.90    0.91
  -4  -3  -2   22.29    1.67
   4   3   2   19.58    1.55
  -5  -3  -2    7.07    1.14
   5   3   2    6.98    1.11
  -6  -3  -2    4.27    1.12
   6   3   2    5.30    1.10
  -7  -3  -2   10.22    1.73
   7   3   2    6.43    1.57
   9  -4  -2    1.11    1.10
  -9   4   2   -0.29    1.15
   8  -4  -2    1.20    0.93
   7  -4  -2    1.82    0.67
  -7   4   2    2.33    0.82
  -7   4   2    1.78    0.67
   6  -4  -2   93.33    4.18
   6  -4  -2   95.89    3.62
  -6   4   2  102.14    3.81
  -6   4   2   93.53    4.40
   5  -4  -2   16.46    0.81
   5  -4  -2   14.05    1.11
  -5   4   2   17.37    0.89
  -5   4   2   13.28    1.39
   4  -4  -2    1.62    0.38
  -4   4   2    1.43    0.55
  -4   4   2    1.48    0.21
  -4   4   2    1.35    0.24
   3  -4  -2    6.37    0.62
  -3   4   2    5.50    0.85
   2  -4  -2   33.58    1.38
   2  -4  -2   33.37    1.60
   2  -4  -2   30.98    1.90
  -2   4   2   31.15    1.77
  -2   4   2   35.93    1.40
  -2   4   2   31.35    1.60
  -2   4   2   35.28    1.40
  -2   4   2   35.77    1.99
   1  -4  -2   37.16    2.00
   1  -4  -2   37.68    1.77
   1  -4  -2   38.12    1.72
  -1   4   2   38.39    1.94
  -1   4   2   42.82    1.72
  -1   4   2   38.05    1.77
  -1   4   2   38.95    2.03
   0  -4  -2   20.18    1.18
   0  -4  -2   19.47    1.24
   0  -4  -2   17.89    1.10
   0   4   2   21.44    1.15
   0   4   2   18.89    1.11
   0   4   2   18.91    1.23
   0   4   2   20.31    1.12
  -1  -4  -2   46.73    2.24
   1   4   2   43.47    1.99
   1   4   2   47.38    1.88
   1   4   2   42.61    2.15
  -2  -4  -2    1.40    0.55
   2   4   2    1.44    0.47
   2   4   2    2.05    0.20
  -3  -4  -2    1.02    0.65
   3   4   2    1.59    0.59
  -4  -4  -2    2.51    0.87
   4   4   2    4.23    0.85
  -5  -4  -2    1.78    1.02
   5   4   2    1.62    0.92
  -6  -4  -2   -2.06    1.29
   6   4   2   -1.16    1.15
  -7  -4  -2   15.66    2.19
   7   4   2   15.00    1.93
   9  -5  -2    1.19    1.15
   8  -5  -2   14.53    1.57
  -8   5   2   11.40    1.84
  -7   5   2    0.59    0.96
  -7   5   2    0.10    0.66
   6  -5  -2   68.84    3.29
  -6   5   2   76.41    2.87
  -6   5   2   70.23    3.70
   5  -5  -2    3.38    0.55
   5  -5  -2    2.91    0.39
  -5   5   2    1.96    0.68
  -5   5   2    4.25    0.46
  -5   5   2    4.09    0.52
   4  -5  -2    0.63    0.35
  -4   5   2    0.64    0.61
  -4   5   2    0.06    0.24
   3  -5  -2   90.83    3.88
  -3   5   2  100.64    3.59
  -3   5   2  101.34    3.51
  -3   5   2   91.18    4.26
   2  -5  -2   58.71    2.33
   2  -5  -2   57.07    2.52
  -2   5   2   59.34    2.33
  -2   5   2   52.78    2.73
  -2   5   2   57.44    2.34
   1  -5  -2   44.88    2.43
   1  -5  -2   49.80    2.16
   1  -5  -2   46.66    2.18
  -1   5   2   42.74    2.40
  -1   5   2   46.29    2.31
  -1   5   2   52.27    2.13
   0  -5  -2   26.47    1.50
   0  -5  -2   26.92    1.62
   0   5   2   26.73    1.52
   0   5   2   28.39    1.66
   0   5   2   29.90    1.52
  -1  -5  -2    7.30    0.98
   1   5   2    7.63    0.88
   1   5   2    8.02    0.89
   1   5   2    7.06    0.65
  -2  -5  -2   38.17    2.27
   2   5   2   39.75    1.46
   2   5   2   35.35    2.10
   2   5   2   37.51    1.61
  -3  -5  -2   -0.05    0.75
   3   5   2    1.02    0.63
  -4  -5  -2   46.92    2.99
   4   5   2   46.84    2.84
  -5  -5  -2    9.63    1.56
   5   5   2    9.56    1.36
  -6  -5  -2    0.63    1.67
   6   5   2    1.51    1.38
   9  -6  -2   -0.56    1.10
  -9   6   2    0.31    1.37
   8  -6  -2   17.07    1.76
  -8   6   2   15.02    2.11
   7  -6  -2    2.96    0.78
  -7   6   2    3.60    1.06
   6  -6  -2   12.29    1.22
  -6   6   2   11.70    1.51
   5  -6  -2   10.32    1.06
  -5   6   2    9.49    1.35
   4  -6  -2   35.33    1.88
  -4   6   2   35.85    1.39
  -4   6   2   36.27    2.36
  -4   6   2   36.14    1.53
   3  -6  -2   32.31    1.77
  -3   6   2   31.60    2.04
  -3   6   2   34.40    1.47
  -3   6   2   34.97    1.55
   2  -6  -2   70.40    3.09
   2  -6  -2   71.41    2.92
  -2   6   2   74.01    2.93
  -2   6   2   70.98    2.93
  -2   6   2   66.79    3.32
   1  -6  -2    2.52    0.46
   1  -6  -2    3.13    0.59
  -1   6   2    2.62    0.58
  -1   6   2    4.68    0.70
  -1   6   2    2.37    0.49
   0  -6  -2    0.33    0.53
   0  -6  -2    0.33    0.43
   0   6   2    0.77    0.46
   0   6   2    0.78    0.44
   0   6   2   -0.08    0.70
  -1  -6  -2   51.95    2.82
   1   6   2   57.60    2.36
   1   6   2   50.16    2.48
   1   6   2   52.99    2.68
  -2  -6  -2    0.58    0.87
   2   6   2    0.34    0.22
   2   6   2   -0.32    0.60
  -3  -6  -2   -0.11    1.08
   3   6   2    2.35    1.00
  -4  -6  -2   -0.65    1.17
   4   6   2   -0.79    0.99
  -5  -6  -2   21.80    2.84
   5   6   2   28.06    2.49
   9  -7  -2   -0.35    1.26
  -9   7   2   -1.83    1.61
   8  -7  -2   16.29    1.86
  -8   7   2   22.62    2.51
   7  -7  -2    0.99    0.76
  -7   7   2   -0.13    1.13
   6  -7  -2    0.44    0.63
  -6   7   2    0.47    0.98
   5  -7  -2   13.25    1.22
  -5   7   2   14.05    1.75
   4  -7  -2    0.59    0.56
  -4   7   2    1.97    0.29
  -4   7   2    2.03    0.75
  -4   7   2    0.86    0.46
   3  -7  -2   26.85    1.62
  -3   7   2   25.82    1.34
  -3   7   2   25.55    1.44
  -3   7   2   27.09    1.96
   2  -7  -2    1.70    0.53
   2  -7  -2    1.16    0.46
  -2   7   2    1.92    0.70
  -2   7   2    3.54    0.63
  -2   7   2    2.72    0.55
   1  -7  -2   17.59    1.31
   1  -7  -2   15.79    1.37
  -1   7   2   15.84    1.36
  -1   7   2   17.39    1.30
   0  -7  -2    5.19    0.81
   0  -7  -2    7.12    0.93
   0   7   2    5.76    0.92
   0   7   2    4.95    0.83
  -1  -7  -2    3.82    0.97
   1   7   2    3.73    0.74
   1   7   2    5.43    0.80
  -2  -7  -2    4.22    1.09
   2   7   2    3.07    0.94
  -3  -7  -2   22.81    2.38
   3   7   2   24.97    2.24
  -4  -7  -2   -0.49    1.47
   4   7   2   -1.17    1.24
  -5  -7  -2   -3.08    1.89
   5   7   2    2.00    1.56
   8  -8  -2    2.21    1.09
  -8   8   2    0.91    1.53
   7  -8  -2    0.98    0.88
  -7   8   2    2.93    1.40
   6  -8  -2    4.92    0.97
  -6   8   2    5.13    1.22
   5  -8  -2   26.70    1.88
  -5   8   2   29.34    2.54
   4  -8  -2   21.50    1.63
  -4   8   2   21.15    1.10
  -4   8   2   22.38    2.01
   3  -8  -2    4.77    0.77
  -3   8   2    4.15    0.59
  -3   8   2    4.55    1.00
   2  -8  -2    0.41    0.55
   2  -8  -2    0.00    0.54
  -2   8   2    0.49    0.62
  -2   8   2    0.38    0.74
  -2   8   2    0.59    0.58
   1  -8  -2    7.97    1.14
   1  -8  -2    7.28    1.02
  -1   8   2    8.00    1.22
  -1   8   2    8.70    1.23
   0  -8  -2    1.91    0.85
   0   8   2    0.99    0.73
   0   8   2    0.30    0.62
  -1  -8  -2    3.78    1.09
   1   8   2    4.88    1.00
   1   8   2    4.75    0.70
  -2  -8  -2    1.21    1.21
   2   8   2   -0.54    0.97
  -3  -8  -2    2.01    1.52
   3   8   2   -0.66    1.19
  -4  -8  -2    0.61    1.84
   4   8   2   -0.18    1.50
   8  -9  -2    1.48    1.16
  -8   9   2    1.36    1.79
   7  -9  -2    7.10    1.16
  -7   9   2    6.38    1.54
   6  -9  -2   -0.06    0.91
  -6   9   2   -0.89    1.23
   5  -9  -2    0.12    0.74
  -5   9   2   -2.02    1.20
   4  -9  -2    2.87    0.85
  -4   9   2    1.14    1.09
  -3   9   2   15.21    1.98
  -3   9   2   16.51    1.33
   2  -9  -2   15.48    2.38
   2  -9  -2   15.22    1.41
  -2   9   2   18.29    1.49
  -2   9   2   14.55    1.75
  -2   9   2   13.44    2.08
   1  -9  -2    7.37    1.11
   1  -9  -2    8.02    1.10
  -1   9   2    9.93    1.38
  -1   9   2   12.37    1.64
  -1   9   2    6.56    1.11
   0  -9  -2    3.67    1.17
   0   9   2    3.44    0.98
   0   9   2    5.04    0.92
  -1  -9  -2    6.89    1.45
   1   9   2    7.93    1.29
  -2  -9  -2    0.31    1.47
   2   9   2    0.91    1.20
  -3  -9  -2    3.56    1.84
   3   9   2    3.11    1.57
   7 -10  -2    8.74    1.39
  -7  10   2    5.61    1.86
   6 -10  -2    5.96    1.12
  -6  10   2    2.87    1.55
   5 -10  -2    7.19    1.15
  -5  10   2    7.93    1.66
   4 -10  -2   -1.13    0.85
  -4  10   2    0.18    1.19
   3 -10  -2    0.36    0.88
  -3  10   2   -0.52    0.92
  -3  10   2   -0.52    1.03
   2 -10  -2    1.84    0.84
   2 -10  -2    3.11    0.91
  -2  10   2    3.47    0.94
  -2  10   2    0.68    0.99
   1 -10  -2   31.53    2.50
  -1  10   2   35.52    2.41
  -1  10   2   31.36    2.36
  -1  10   2   29.70    2.57
   0 -10  -2   -0.58    1.32
   0  10   2    4.73    1.14
   0  10   2    2.58    1.41
  -1 -10  -2   -0.44    1.54
   1  10   2   -0.02    1.30
   5 -11  -2    0.17    1.20
  -5  11   2   -1.56    1.56
   4 -11  -2    3.41    1.13
  -4  11   2    1.51    1.10
  -4  11   2    4.08    1.58
   3 -11  -2    5.55    1.21
  -3  11   2    6.15    1.40
  -3  11   2    5.06    1.24
   2 -11  -2    0.02    1.16
  -2  11   2    1.01    1.26
  -2  11   2    0.41    1.23
   1 -11  -2   -0.24    1.46
  -1  11   2   -2.22    1.21
  -1  11   2    0.02    1.47
  -1  12  -3   15.28    2.08
  -1  12  -3   13.70    1.81
  -1  12  -3   17.71    2.72
  -2  12  -3    2.85    1.19
  -2  12  -3    1.19    1.06
  -2  12  -3    2.99    1.70
   2 -12   3    4.69    1.85
  -3  12  -3   -1.39    0.94
  -3  12  -3    0.67    1.26
  -3  12  -3   -3.21    1.58
   3 -12   3    1.71    1.73
  -4  12  -3    5.30    1.95
  -4  12  -3    4.66    0.98
   4 -12   3    8.40    1.95
  -5  12  -3   -0.83    1.79
   1  11  -3    2.39    1.18
   1  11  -3    4.24    1.61
  -1 -11   3    1.45    1.39
   0  11  -3    4.94    1.13
   0  11  -3    1.92    1.40
   0  11  -3    4.86    1.64
   0 -11   3    3.81    1.30
  -1  11  -3    0.09    0.84
  -1  11  -3   -1.02    1.14
  -2  11  -3    2.03    1.46
  -2  11  -3   -0.42    0.77
  -2  11  -3    0.49    0.94
   2 -11   3    1.44    1.53
  -3  11  -3    2.06    1.41
  -3  11  -3   -1.25    0.75
   3 -11   3   -1.02    1.54
   3 -11   3   -0.42    1.04
  -4  11  -3   -0.08    0.73
  -4  11  -3   -1.96    1.40
  -4  11  -3    0.25    0.70
   4 -11   3    0.13    1.62
   4 -11   3   -0.28    0.77
  -5  11  -3   -1.07    1.49
  -5  11  -3    0.96    0.72
   5 -11   3   -0.29    0.83
   5 -11   3   -0.14    1.51
  -6  11  -3    0.44    1.73
   6 -11   3    0.91    1.89
  -7  11  -3    1.28    1.92
   3  10  -3    9.79    1.72
  -3 -10   3   11.99    2.02
   2  10  -3    0.82    1.51
   2  10  -3   -0.39    1.10
  -2 -10   3   -0.12    1.40
   1  10  -3    8.20    1.14
   1  10  -3    5.25    1.35
  -1 -10   3    3.88    1.32
   0  10  -3    0.19    0.76
   0  10  -3    0.54    1.03
   0  10  -3    1.53    1.10
   0 -10   3   -1.01    1.16
   0 -10   3    0.23    0.98
  -1  10  -3    1.84    0.71
  -1  10  -3    1.89    1.11
   1 -10   3    1.32    1.17
  -2  10  -3    5.39    0.91
  -2  10  -3    5.40    1.26
  -2  10  -3    7.09    1.04
   2 -10   3    5.47    1.35
  -3  10  -3   -1.12    0.64
  -3  10  -3    2.61    1.57
  -3  10  -3    0.29    0.59
   3 -10   3   -0.22    0.59
  -4  10  -3    4.73    0.75
  -4  10  -3    5.63    1.47
  -4  10  -3    4.23    0.69
   4 -10   3    3.73    1.42
  -5  10  -3   12.82    1.22
  -5  10  -3   16.07    2.55
   5 -10   3   16.87    1.40
   5 -10   3   15.04    2.22
  -6  10  -3    5.48    0.77
  -6  10  -3    4.60    1.73
   6 -10   3    6.46    1.84
   6 -10   3    4.91    1.05
  -7  10  -3    1.98    1.66
   7 -10   3    1.21    0.96
  -8  10  -3    6.91    2.10
   4   9  -3   -0.93    1.44
  -4  -9   3    1.52    1.71
   3   9  -3    2.05    1.12
   3   9  -3    3.29    1.52
  -3  -9   3   -1.50    1.36
   2   9  -3   20.31    2.40
   2   9  -3   15.48    1.86
  -2  -9   3   19.14    2.24
   1   9  -3    2.56    1.01
   1   9  -3    3.70    0.86
   1   9  -3    4.46    1.20
  -1  -9   3    4.49    1.10
  -1  -9   3    3.62    1.04
   0   9  -3    0.72    0.61
   0   9  -3    0.16    0.91
   0   9  -3    1.00    0.89
   0  -9   3    0.75    0.94
   0  -9   3    0.55    0.75
  -1   9  -3    8.80    1.03
  -1   9  -3   10.02    1.57
  -1   9  -3   10.11    1.29
   1  -9   3    7.25    1.26
   1  -9   3    6.99    1.04
  -2   9  -3    1.12    0.62
  -2   9  -3    0.92    1.00
  -2   9  -3    0.24    0.49
   2  -9   3    1.41    1.04
   2  -9   3    1.03    0.50
  -3   9  -3    0.79    1.00
  -3   9  -3    2.43    0.62
  -3   9  -3    0.78    0.45
   3  -9   3    2.03    1.09
   3  -9   3    1.87    0.49
  -4   9  -3    0.16    0.47
  -4   9  -3   -0.98    1.02
   4  -9   3   -0.50    1.09
   4  -9   3   -0.34    0.47
  -5   9  -3    2.10    1.15
  -5   9  -3    2.18    0.50
   5  -9   3    2.14    0.61
   5  -9   3    0.65    1.08
  -6   9  -3   14.43    1.15
  -6   9  -3    9.14    1.72
   6  -9   3   14.75    1.39
   6  -9   3   11.49    2.01
  -7   9  -3    8.27    0.98
  -7   9  -3    7.20    1.81
   7  -9   3    8.74    1.99
   7  -9   3    8.07    1.10
  -8   9  -3    2.23    1.73
   8  -9   3    2.92    1.06
   5   8  -3   31.60    3.08
  -5  -8   3   30.06    3.32
   4   8  -3   -0.87    1.13
  -4  -8   3   -0.22    1.41
   3   8  -3    0.51    0.95
  -3  -8   3    0.44    1.12
   2   8  -3    1.23    0.78
   2   8  -3    3.69    1.15
   2   8  -3    1.13    0.79
  -2  -8   3    1.66    0.85
  -2  -8   3    2.25    1.02
   1   8  -3   15.40    1.39
   1   8  -3   14.50    1.66
  -1  -8   3   13.27    1.59
  -1  -8   3   12.82    1.57
   0   8  -3   10.79    1.06
   0   8  -3   13.15    1.43
   0  -8   3   11.42    1.30
   0  -8   3    9.12    1.28
  -1   8  -3   39.65    2.03
  -1   8  -3   44.29    2.37
   1  -8   3   44.31    2.35
   1  -8   3   41.41    2.70
  -2   8  -3   27.35    2.20
  -2   8  -3   29.67    1.55
  -2   8  -3   29.48    1.76
   2  -8   3   30.02    2.30
   2  -8   3   31.04    1.54
  -3   8  -3    3.24    0.52
  -3   8  -3    3.09    1.06
   3  -8   3    3.23    0.99
   3  -8   3    3.64    0.50
  -4   8  -3   29.09    1.58
  -4   8  -3   27.40    2.43
   4  -8   3   34.17    2.60
   4  -8   3   30.17    1.58
  -5   8  -3    1.89    0.45
  -5   8  -3    2.71    1.07
   5  -8   3    3.23    0.58
   5  -8   3    2.16    1.09
  -6   8  -3    4.14    1.39
  -6   8  -3    2.36    0.59
   6  -8   3    2.34    0.63
   6  -8   3    4.00    1.33
  -7   8  -3   12.58    1.23
  -7   8  -3   11.07    1.95
   7  -8   3   14.83    2.14
   7  -8   3   11.78    1.41
  -8   8  -3   65.07    4.26
  -8   8  -3   65.64    3.22
   8  -8   3   65.42    3.21
  -9   8  -3    0.57    1.86
   9  -8   3    1.19    1.19
   5   7  -3    0.75    1.28
  -5  -7   3   -1.93    1.48
   4   7  -3    7.19    1.31
  -4  -7   3    6.77    1.39
   3   7  -3   30.72    2.14
  -3  -7   3   33.78    2.46
  -3  -7   3   30.55    2.44
   2   7  -3    9.29    1.21
   2   7  -3   11.21    0.90
  -2  -7   3   10.27    1.29
  -2  -7   3   11.42    1.48
   1   7  -3    2.96    0.63
   1   7  -3    4.41    0.87
  -1  -7   3    2.91    0.71
  -1  -7   3    1.84    0.71
   0   7  -3    7.62    1.06
   0   7  -3    6.02    0.76
   0  -7   3    4.89    0.93
   0  -7   3    6.15    0.96
  -1   7  -3   10.92    1.09
  -1   7  -3    8.96    0.82
  -1   7  -3   10.68    0.82
   1  -7   3   12.82    1.32
   1  -7   3   11.79    1.08
  -2   7  -3   85.32    3.56
  -2   7  -3   80.14    3.29
  -2   7  -3   86.30    3.30
   2  -7   3   84.01    4.11
   2  -7   3   81.21    3.29
  -3   7  -3   -0.08    0.44
  -3   7  -3   -0.42    0.33
   3  -7   3   -0.29    0.78
   3  -7   3    0.55    0.29
  -4   7  -3    8.25    1.35
  -4   7  -3   10.17    0.82
   4  -7   3    9.62    0.81
   4  -7   3    9.75    1.60
  -5   7  -3    9.88    1.70
  -5   7  -3   12.00    0.89
   5  -7   3   14.07    1.00
   5  -7   3   12.03    1.75
  -6   7  -3    7.45    0.84
  -6   7  -3    7.82    1.42
   6  -7   3    8.20    1.49
   6  -7   3    8.38    1.01
  -7   7  -3    0.26    0.58
  -7   7  -3   -0.83    1.20
   7  -7   3    0.58    0.63
   7  -7   3    1.25    1.31
  -8   7  -3    1.30    0.81
  -8   7  -3    0.24    1.43
  -9   7  -3    9.69    1.91
   9  -7   3    6.45    1.20
   6   6  -3    1.10    1.40
  -6  -6   3    2.98    1.72
   5   6  -3   -0.24    1.02
  -5  -6   3    0.46    1.29
   4   6  -3    8.69    1.24
  -4  -6   3    9.60    1.42
   3   6  -3    0.18    0.47
   3   6  -3    0.32    0.62
  -3  -6   3   -0.34    0.59
  -3  -6   3    0.14    0.80
   2   6  -3    7.47    0.68
   2   6  -3    6.49    0.90
  -2  -6   3    6.73    1.04
  -2  -6   3    6.93    1.08
   1   6  -3   13.91    1.30
   1   6  -3   14.65    1.05
   1   6  -3   12.43    1.03
  -1  -6   3   14.55    1.26
  -1  -6   3   12.14    1.25
   0   6  -3    9.22    0.80
   0   6  -3   11.76    1.07
   0   6  -3   10.54    0.78
   0  -6   3   10.67    1.19
   0  -6   3    8.95    0.96
  -1   6  -3    0.78    0.29
  -1   6  -3    0.65    0.28
  -1   6  -3    1.14    0.45
   1  -6   3    1.15    0.31
   1  -6   3    0.69    0.61
  -2   6  -3   58.58    2.29
  -2   6  -3   54.47    2.48
   2  -6   3   54.04    2.95
   2  -6   3   56.58    2.26
  -3   6  -3    1.29    0.36
  -3   6  -3    0.98    0.30
   3  -6   3    0.94    0.28
   3  -6   3    1.01    0.59
  -4   6  -3    3.52    0.88
  -4   6  -3    2.69    0.54
  -4   6  -3    3.96    0.53
   4  -6   3    2.81    0.88
   4  -6   3    4.37    0.57
  -5   6  -3   57.27    3.31
  -5   6  -3   56.71    2.47
   5  -6   3   56.90    2.50
   5  -6   3   59.24    3.34
  -6   6  -3   30.53    2.51
  -6   6  -3   31.41    1.64
   6  -6   3   29.15    2.49
   6  -6   3   30.09    1.68
  -7   6  -3   34.45    1.89
  -7   6  -3   33.86    2.80
   7  -6   3   34.78    1.97
   7  -6   3   33.93    2.87
  -8   6  -3    1.67    0.82
  -8   6  -3    1.60    1.41
  -9   6  -3    0.67    1.63
  -9   6  -3    3.67    1.17
   9  -6   3    3.02    1.13
   7   5  -3    0.32    1.52
   6   5  -3    4.10    1.21
  -6  -5   3    2.96    1.42
   5   5  -3   25.49    2.24
  -5  -5   3   27.42    2.45
   4   5  -3    3.06    0.78
  -4  -5   3    2.46    0.90
  -4  -5   3    2.49    0.57
   3   5  -3    0.00    0.53
   3   5  -3    0.73    0.28
  -3  -5   3   -0.02    0.49
  -3  -5   3    0.03    0.61
   2   5  -3    5.71    0.54
   2   5  -3    6.74    0.84
  -2  -5   3    5.07    0.83
  -2  -5   3    4.49    0.74
   1   5  -3   17.58    1.11
   1   5  -3   18.97    1.09
   1   5  -3   21.27    1.11
   1   5  -3   17.53    1.35
  -1  -5   3   17.38    1.14
  -1  -5   3   17.48    1.33
  -1  -5   3   19.59    1.29
   0   5  -3  154.58    5.50
   0   5  -3  152.21    5.43
   0   5  -3  139.52    5.78
   0   5  -3  156.49    5.73
   0  -5   3  139.13    5.89
   0  -5   3  138.10    5.73
  -1   5  -3   36.70    1.84
  -1   5  -3   39.79    1.60
  -1   5  -3   37.31    2.00
  -1   5  -3   40.23    1.57
  -1   5  -3   36.23    1.90
   1  -5   3   33.75    2.02
   1  -5   3   39.51    1.59
  -2   5  -3    1.33    0.28
  -2   5  -3    1.43    0.41
  -2   5  -3    0.92    0.24
   2  -5   3    2.04    0.31
   2  -5   3    1.07    0.52
   2  -5   3    1.13    0.45
  -3   5  -3    3.62    0.53
  -3   5  -3    3.93    0.45
   3  -5   3    2.86    0.76
   3  -5   3    2.51    0.51
   3  -5   3    2.41    0.34
  -4   5  -3    2.66    0.50
  -4   5  -3    3.09    0.45
   4  -5   3    1.64    0.77
  -5   5  -3   -0.79    0.74
  -5   5  -3    0.21    0.31
   5  -5   3   -0.01    0.35
   5  -5   3    0.69    0.71
  -6   5  -3    2.69    0.52
  -6   5  -3    4.75    1.07
   6  -5   3    3.87    1.01
   6  -5   3    2.90    0.62
  -7   5  -3    0.63    0.58
  -7   5  -3   -1.11    0.98
   7  -5   3   -0.41    0.65
   7  -5   3    0.81    1.02
  -8   5  -3   17.40    2.16
  -8   5  -3   19.77    1.76
   8  -5   3   15.59    2.00
  -9   5  -3    0.34    1.42
  -9   5  -3   -1.33    1.13
   9  -5   3   -1.64    1.17
   7   4  -3    7.82    1.63
  -7  -4   3   10.71    1.83
   6   4  -3    2.58    1.05
  -6  -4   3    5.58    1.34
   5   4  -3   19.09    1.80
  -5  -4   3   21.66    1.35
  -5  -4   3   21.36    1.98
   4   4  -3   22.64    1.18
   4   4  -3   19.61    1.63
  -4  -4   3   22.14    1.78
  -4  -4   3   22.64    1.26
   3   4  -3    6.70    0.89
   3   4  -3    9.06    0.59
  -3  -4   3    6.93    1.08
  -3  -4   3    7.35    0.76
   2   4  -3   92.04    3.96
   2   4  -3  102.73    3.67
  -2  -4   3   98.25    3.90
  -2  -4   3  103.73    4.36
  -2  -4   3   90.88    4.15
   1   4  -3  131.40    4.73
   1   4  -3  130.72    4.82
  -1  -4   3  126.92    4.92
  -1  -4   3  111.78    4.96
  -1  -4   3  125.57    4.75
   0   4  -3    0.30    0.18
   0   4  -3    0.28    0.29
   0   4  -3    0.54    0.17
   0   4  -3   -0.17    0.34
   0   4  -3    0.18    0.30
   0  -4   3   -0.26    0.32
   0  -4   3    0.07    0.25
   0  -4   3    0.47    0.19
  -1   4  -3    2.73    0.41
  -1   4  -3    2.39    0.26
  -1   4  -3    2.10    0.25
  -1   4  -3    1.66    0.37
  -1   4  -3    2.35    0.39
   1  -4   3    2.08    0.40
   1  -4   3    2.11    0.25
   1  -4   3    1.62    0.41
  -2   4  -3   72.19    2.68
  -2   4  -3   72.88    3.21
  -2   4  -3   72.04    2.83
   2  -4   3   71.68    2.93
   2  -4   3   74.63    2.65
   2  -4   3   62.17    3.19
  -3   4  -3  131.36    4.75
  -3   4  -3  123.15    4.74
   3  -4   3  128.62    4.84
   3  -4   3  132.33    4.70
   3  -4   3  118.72    5.31
  -4   4  -3    3.21    0.45
  -4   4  -3    3.32    0.50
   4  -4   3    4.10    0.79
   4  -4   3    3.09    0.51
  -5   4  -3  133.84    5.76
  -5   4  -3  132.46    5.12
   5  -4   3  133.80    5.76
   5  -4   3  132.01    5.20
  -6   4  -3    3.49    0.91
  -6   4  -3    3.24    0.60
   6  -4   3    4.51    0.92
   6  -4   3    3.34    0.65
  -7   4  -3   -0.90    0.62
  -7   4  -3    0.01    0.90
   7  -4   3   -1.03    0.69
  -8   4  -3   -0.10    0.91
  -8   4  -3   -0.03    1.10
   8  -4   3   -0.77    0.97
  -9   4  -3    0.75    1.22
   9  -4   3   -0.07    1.33
   8   3  -3   -1.69    1.55
  -8  -3   3   -0.66    1.71
   7   3  -3    1.94    1.20
  -7  -3   3    0.68    1.34
   6   3  -3    9.47    1.37
  -6  -3   3   14.12    1.86
   5   3  -3   -0.05    0.61
   5   3  -3   -0.32    0.65
  -5  -3   3    0.52    0.36
  -5  -3   3    0.47    0.73
   4   3  -3   23.62    1.30
   4   3  -3   23.65    1.64
  -4  -3   3   26.07    1.21
  -4  -3   3   22.90    1.73
   3   3  -3   58.37    2.33
   3   3  -3   56.77    2.71
  -3  -3   3   56.28    2.79
  -3  -3   3   63.19    2.41
   2   3  -3  148.38    5.89
   2   3  -3  155.31    5.51
  -2  -3   3  154.98    5.76
  -2  -3   3  154.71    5.64
  -2  -3   3  144.52    5.92
   1   3  -3  252.47    8.72
   1   3  -3  244.27    8.78
   1   3  -3  241.88    9.00
   1   3  -3  239.60    8.98
  -1  -3   3  236.60    8.84
  -1  -3   3  248.64    8.76
  -1  -3   3  239.23    8.98
   0   3  -3   16.80    0.92
   0   3  -3   17.56    0.98
   0   3  -3   17.42    0.75
   0   3  -3   15.82    0.97
   0   3  -3   18.14    0.78
   0  -3   3   15.54    1.00
   0  -3   3   17.07    0.76
   0  -3   3   16.06    0.93
   0  -3   3   16.41    0.97
  -1   3  -3   14.10    0.55
  -1   3  -3   13.54    0.55
  -1   3  -3   13.68    0.91
   1  -3   3   12.21    0.93
   1  -3   3   13.37    0.55
   1  -3   3   14.70    0.84
  -2   3  -3   66.18    2.50
  -2   3  -3   64.04    2.39
  -2   3  -3   64.26    2.81
   2  -3   3   62.46    2.35
   2  -3   3   61.50    2.53
   2  -3   3   60.87    2.85
  -3   3  -3  109.46    4.02
  -3   3  -3   96.58    4.12
  -3   3  -3  108.52    4.37
   3  -3   3  110.62    4.03
   3  -3   3  108.44    3.99
   3  -3   3   98.75    4.47
  -4   3  -3   11.50    0.78
  -4   3  -3   11.85    0.88
  -4   3  -3   12.27    1.34
   4  -3   3   10.76    1.09
   4  -3   3   10.50    0.93
  -5   3  -3    2.05    0.41
  -5   3  -3    2.41    0.69
   5  -3   3    2.25    0.51
   5  -3   3    3.32    0.63
  -6   3  -3   22.82    1.44
  -6   3  -3   21.94    1.75
   6  -3   3   21.90    1.58
   6  -3   3   22.40    1.77
  -7   3  -3    5.84    1.00
  -7   3  -3    7.87    1.15
   7  -3   3    3.77    0.88
  -8   3  -3   15.28    1.85
  -8   3  -3   14.59    1.87
   8  -3   3   14.86    1.95
  -9   3  -3   -1.28    1.25
   9  -3   3   -0.66    1.41
   8   2  -3    1.75    1.32
  -8  -2   3    0.48    1.57
   7   2  -3    1.94    1.06
  -7  -2   3    2.11    1.27
   6   2  -3   11.16    1.45
  -6  -2   3   10.51    0.76
  -6  -2   3    9.66    1.34
   5   2  -3   -0.70    0.60
   5   2  -3    0.04    0.61
  -5  -2   3   -0.19    0.25
  -5  -2   3    0.04    0.66
   4   2  -3   13.44    1.01
   4   2  -3   14.61    1.21
  -4  -2   3   15.56    0.80
  -4  -2   3   15.19    1.25
   3   2  -3    2.11    0.43
   3   2  -3    1.37    0.47
   3   2  -3    2.59    0.36
  -3  -2   3    1.94    0.31
  -3  -2   3    2.42    0.49
   2   2  -3   15.32    1.03
   2   2  -3   17.25    0.82
   2   2  -3   17.06    0.98
  -2  -2   3   15.88    0.81
  -2  -2   3   17.94    1.07
  -2  -2   3   15.21    0.97
   1   2  -3    0.20    0.24
   1   2  -3   -0.03    0.16
   1   2  -3    0.05    0.12
   1   2  -3   -0.13    0.22
  -1  -2   3    0.00    0.14
  -1  -2   3   -0.22    0.16
  -1  -2   3   -0.15    0.20
   0   2  -3  127.52    4.60
   0   2  -3  130.46    4.83
   0   2  -3  126.70    4.81
   0   2  -3  135.24    4.80
   0  -2   3  131.19    4.60
   0  -2   3  129.99    4.84
   0  -2   3  127.65    4.85
  -1   2  -3    0.22    0.13
  -1   2  -3    0.21    0.20
   1  -2   3    0.61    0.18
   1  -2   3    0.22    0.21
  -2   2  -3    2.91    0.43
  -2   2  -3    2.30    0.29
  -2   2  -3    2.71    0.30
   2  -2   3    2.31    0.33
   2  -2   3    2.59    0.43
   2  -2   3    2.58    0.29
  -3   2  -3   39.81    1.91
  -3   2  -3   39.84    1.72
  -3   2  -3   37.27    1.69
   3  -2   3   40.07    1.98
   3  -2   3   38.02    1.66
   3  -2   3   37.54    1.71
  -4   2  -3   19.05    1.20
  -4   2  -3   19.57    1.12
  -4   2  -3   20.22    1.32
   4  -2   3   18.50    1.20
  -5   2  -3    0.94    0.40
  -5   2  -3    0.06    0.63
  -5   2  -3   -0.03    0.53
   5  -2   3    0.18    0.49
   5  -2   3    0.89    0.53
  -6   2  -3    2.55    0.67
  -6   2  -3    1.00    0.70
   6  -2   3    2.20    0.67
   6  -2   3    2.87    0.69
  -7   2  -3    2.09    0.81
  -7   2  -3    0.85    0.78
   7  -2   3    2.85    0.91
  -8   2  -3    8.69    1.30
   8  -2   3    4.65    1.22
  -9   2  -3    5.73    1.56
   9  -2   3    3.83    1.56
   8   1  -3    0.19    1.14
  -8  -1   3   -1.44    1.40
   7   1  -3    1.45    0.91
  -7  -1   3    3.61    1.21
  -7  -1   3    4.42    0.56
   6   1  -3   10.34    1.40
  -6  -1   3    9.44    0.77
  -6  -1   3    9.36    1.36
   5   1  -3   -0.07    0.55
   5   1  -3   -0.97    0.61
  -5  -1   3    0.19    0.25
  -5  -1   3    0.13    0.56
   4   1  -3   56.53    2.74
   4   1  -3   58.62    2.58
  -4  -1   3   60.40    2.36
  -4  -1   3   55.34    2.65
   3   1  -3   96.99    3.88
   3   1  -3   96.57    4.05
   3   1  -3   98.09    3.93
  -3  -1   3  102.08    4.05
  -3  -1   3  103.18    3.78
  -3  -1   3  105.12    4.04
   2   1  -3    0.56    0.20
   2   1  -3    0.43    0.24
   2   1  -3    0.42    0.23
  -2  -1   3    0.35    0.13
  -2  -1   3    0.59    0.24
  -2  -1   3    0.53    0.27
   1   1  -3   22.56    1.05
   1   1  -3   24.83    1.06
   1   1  -3   24.28    1.10
   1   1  -3   24.63    1.12
  -1  -1   3   24.59    1.05
  -1  -1   3   24.05    1.09
  -1  -1   3   23.87    1.07
   0   1  -3    2.72    0.24
   0   1  -3    2.69    0.19
   0   1  -3    2.63    0.25
   0  -1   3    3.00    0.30
   0  -1   3    2.66    0.27
   0  -1   3    2.85    0.21
  -1   1  -3    7.08    0.45
  -1   1  -3    6.51    0.36
  -1   1  -3    6.93    0.41
   1  -1   3    6.82    0.36
   1  -1   3    6.43    0.48
   1  -1   3    6.58    0.37
  -2   1  -3  136.85    5.08
  -2   1  -3  142.92    5.04
  -2   1  -3  137.27    5.04
   2  -1   3  134.22    5.04
   2  -1   3  135.58    5.18
   2  -1   3  133.10    5.00
  -3   1  -3    7.74    0.66
  -3   1  -3    6.92    0.60
  -3   1  -3    6.84    0.65
   3  -1   3    7.14    0.69
   3  -1   3    7.86    0.63
   3  -1   3    6.66    0.56
  -4   1  -3    0.02    0.39
  -4   1  -3    0.63    0.34
   4  -1   3    0.04    0.35
   4  -1   3    1.00    0.41
  -5   1  -3    2.16    0.58
  -5   1  -3    2.73    0.62
  -5   1  -3    1.30    0.54
   5  -1   3    2.10    0.55
   5  -1   3    1.64    0.61
  -6   1  -3   27.16    1.69
  -6   1  -3   28.27    1.88
  -6   1  -3   30.92    1.80
   6  -1   3   29.72    2.03
  -7   1  -3   14.81    2.02
  -8   1  -3    7.38    1.34
   8  -1   3   10.56    1.61
  -9   1  -3    0.07    1.58
   9  -1   3   -1.13    1.56
   9   0  -3    1.22    1.45
  -9   0   3    1.10    1.75
   8   0  -3    0.62    1.18
  -8   0   3    1.88    1.32
   7   0  -3    4.22    1.03
  -7   0   3    5.23    1.11
  -7   0   3    4.13    0.63
   6   0  -3    0.74    0.67
  -6   0   3    1.67    0.73
  -6   0   3    0.66    0.41
   5   0  -3    5.19    0.80
  -5   0   3    6.42    0.94
  -5   0   3    5.92    0.65
   4   0  -3    7.28    0.68
   4   0  -3    6.43    0.78
   4   0  -3    6.88    0.90
  -4   0   3    6.64    0.79
  -4   0   3    6.75    0.61
   3   0  -3    2.15    0.31
   3   0  -3    2.01    0.41
   3   0  -3    2.16    0.40
  -3   0   3    2.06    0.35
  -3   0   3    2.08    0.35
  -3   0   3    1.39    0.38
   2   0  -3  146.98    5.33
   2   0  -3  143.27    5.43
   2   0  -3  143.83    5.42
   2   0  -3  146.83    5.33
  -2   0   3  148.41    5.37
  -2   0   3  147.85    5.46
  -2   0   3  145.87    5.32
   1   0  -3  420.06   14.64
   1   0  -3  409.21   14.58
   1   0  -3  406.18   14.51
   1   0  -3  415.73   14.54
  -1   0   3  417.60   14.61
  -1   0   3  422.87   14.55
  -1   0   3  413.04   14.60
   0   0  -3   34.14    1.38
   0   0  -3   35.69    1.42
   0   0  -3   34.38    1.36
   0   0   3   36.96    1.42
   0   0   3   35.07    1.37
   0   0   3   34.19    1.38
  -1   0  -3   24.66    1.08
  -1   0  -3   25.24    1.03
  -1   0  -3   25.55    1.10
   1   0   3   22.93    1.05
   1   0   3   25.88    1.07
   1   0   3   22.87    1.08
   1   0   3   24.26    1.07
  -2   0  -3   11.72    0.72
  -2   0  -3   11.12    0.58
  -2   0  -3   11.86    0.72
   2   0   3   12.05    0.68
   2   0   3   11.23    0.69
   2   0   3   11.18    0.72
  -3   0  -3    0.17    0.35
  -3   0  -3    0.34    0.20
  -3   0  -3    0.02    0.27
   3   0   3    0.53    0.28
   3   0   3    0.06    0.30
  -4   0  -3    0.54    0.35
  -4   0  -3    0.55    0.36
  -4   0  -3    0.76    0.29
   4   0   3    0.67    0.35
   4   0   3    0.09    0.39
  -5   0  -3    0.72    0.36
  -5   0  -3   -0.51    0.48
  -5   0  -3    0.29    0.42
   5   0   3    0.38    0.55
  -6   0  -3    2.51    0.51
  -6   0  -3    3.30    0.88
   6   0   3    1.13    0.82
  -7   0  -3    8.03    1.30
   7   0   3    6.10    1.31
  -8   0  -3    0.98    1.29
   8   0   3   -0.30    1.35
   9  -1  -3    3.63    1.44
   8  -1  -3    8.09    1.38
  -8   1   3    7.84    1.36
  -8   1   3    9.25    1.26
   7  -1  -3   73.16    3.84
  -7   1   3   79.11    3.41
  -7   1   3   76.74    3.69
   6  -1  -3   25.51    1.78
  -6   1   3   24.70    1.71
  -6   1   3   26.16    1.53
   5  -1  -3   16.39    1.30
   5  -1  -3   17.48    1.01
  -5   1   3   16.44    1.14
  -5   1   3   14.51    1.30
   4  -1  -3   24.98    1.45
   4  -1  -3   26.17    1.80
   4  -1  -3   26.64    1.21
  -4   1   3   23.66    1.35
  -4   1   3   26.51    1.31
   3  -1  -3   54.28    2.48
   3  -1  -3   56.28    2.09
   3  -1  -3   49.87    2.32
  -3   1   3   54.66    2.40
  -3   1   3   55.36    2.13
   2  -1  -3   16.24    0.68
   2  -1  -3   17.14    0.90
   2  -1  -3   15.50    0.69
   2  -1  -3   16.12    0.99
  -2   1   3   17.15    0.92
  -2   1   3   17.10    0.92
   1  -1  -3   22.74    1.05
   1  -1  -3   22.48    1.13
   1  -1  -3   23.34    0.89
  -1   1   3   22.82    1.07
  -1   1   3   24.30    1.07
   0  -1  -3  969.53   33.19
   0  -1  -3  950.35   33.19
   0  -1  -3  910.31   33.10
   0   1   3 1000.00   33.19
   0   1   3  930.19   33.07
   0   1   3  947.36   33.13
  -1  -1  -3   52.84    2.22
  -1  -1  -3   58.92    2.24
  -1  -1  -3   56.47    2.14
  -1  -1  -3   50.99    2.19
   1   1   3   54.38    2.06
   1   1   3   54.05    2.16
   1   1   3   54.00    2.24
   1   1   3   54.19    2.19
  -2  -1  -3   14.31    0.91
  -2  -1  -3   15.16    0.66
  -2  -1  -3   14.68    0.92
   2   1   3   15.26    0.89
   2   1   3   14.83    0.94
   2   1   3   14.19    0.73
  -3  -1  -3    3.73    0.28
  -3  -1  -3    3.50    0.57
   3   1   3    2.65    0.46
   3   1   3    4.10    0.46
  -4  -1  -3   17.07    0.85
  -4  -1  -3   16.89    1.32
  -4  -1  -3   18.02    0.74
   4   1   3   18.07    1.33
  -5  -1  -3   69.31    3.40
   5   1   3   67.38    3.36
  -6  -1  -3   77.36    4.28
   6   1   3   83.06    4.11
  -7  -1  -3    3.58    1.24
   7   1   3    2.83    1.30
  -8  -1  -3    2.75    1.61
   8   1   3    3.09    1.51
   9  -2  -3    2.62    1.27
   8  -2  -3   -0.70    0.93
  -8   2   3    1.28    0.78
  -8   2   3    2.02    1.12
  -7   2   3   10.35    1.46
  -7   2   3   13.02    1.24
   6  -2  -3    6.58    0.73
   6  -2  -3    4.87    0.81
  -6   2   3    7.87    1.02
  -6   2   3    6.17    1.03
   5  -2  -3    2.46    0.55
   5  -2  -3    2.61    0.34
  -5   2   3    2.91    0.53
  -5   2   3    3.17    0.49
   4  -2  -3   66.79    2.94
   4  -2  -3   67.57    2.51
  -4   2   3   63.44    2.99
  -4   2   3   73.37    2.65
   3  -2  -3    9.33    0.96
   3  -2  -3   10.36    0.72
  -3   2   3    9.25    0.83
  -3   2   3   10.67    0.82
   2  -2  -3   53.04    2.49
   2  -2  -3   56.16    2.31
  -2   2   3   57.53    2.43
  -2   2   3   56.80    2.35
   1  -2  -3   19.83    1.01
   1  -2  -3   20.89    1.14
   1  -2  -3   19.65    0.85
  -1   2   3   19.88    1.04
  -1   2   3   19.39    0.80
   0  -2  -3  111.08    4.31
   0  -2  -3  113.41    4.24
   0  -2  -3  115.23    4.32
   0   2   3  116.65    4.18
   0   2   3  110.33    4.21
   0   2   3  115.14    4.29
  -1  -2  -3    0.86    0.23
  -1  -2  -3    0.37    0.25
  -1  -2  -3    0.38    0.26
   1   2   3    0.64    0.27
   1   2   3    0.31    0.12
   1   2   3    0.43    0.24
   1   2   3    0.27    0.29
  -2  -2  -3    4.62    0.41
  -2  -2  -3    4.45    0.60
   2   2   3    4.85    0.62
   2   2   3    4.50    0.34
  -3  -2  -3   11.79    1.04
   3   2   3   13.30    1.06
  -4  -2  -3    0.19    0.56
   4   2   3   -0.32    0.53
  -5  -2  -3   20.00    1.70
   5   2   3   19.14    1.70
  -6  -2  -3   11.94    1.59
   6   2   3   13.80    1.74
  -7  -2  -3    0.86    1.27
   7   2   3    1.02    1.19
   8   2   3    2.24    1.61
   9  -3  -3   49.24    3.32
  -9   3   3   54.10    2.95
   8  -3  -3    5.17    1.12
  -8   3   3    3.74    0.94
  -7   3   3    7.26    0.90
  -7   3   3    4.95    0.94
   6  -3  -3    1.59    0.58
   6  -3  -3    0.02    0.30
  -6   3   3   -0.33    0.49
  -6   3   3    0.47    0.60
   5  -3  -3    3.63    0.39
   5  -3  -3    4.98    0.69
  -5   3   3    5.12    0.82
  -5   3   3    5.33    0.60
   4  -3  -3    0.45    0.29
  -4   3   3    0.54    0.40
   3  -3  -3    1.52    0.32
  -3   3   3    1.46    0.47
   2  -3  -3   47.31    2.05
  -2   3   3   44.38    2.18
  -2   3   3   48.18    2.07
   1  -3  -3    5.35    0.72
   1  -3  -3    5.48    0.53
   1  -3  -3    5.74    0.47
  -1   3   3    4.95    0.54
  -1   3   3    5.59    0.52
  -1   3   3    5.42    0.41
   0  -3  -3    0.25    0.23
   0  -3  -3    0.16    0.25
   0  -3  -3    0.21    0.34
   0   3   3   -0.25    0.24
   0   3   3    0.38    0.20
   0   3   3    0.43    0.26
   0   3   3    0.32    0.24
  -1  -3  -3   -0.23    0.26
  -1  -3  -3    0.14    0.34
  -1  -3  -3    0.22    0.29
   1   3   3    0.14    0.31
   1   3   3    0.26    0.34
   1   3   3    0.26    0.15
  -2  -3  -3    0.19    0.29
  -2  -3  -3    0.35    0.37
   2   3   3    0.21    0.35
   2   3   3    0.30    0.13
   2   3   3    0.68    0.28
  -3  -3  -3  135.50    5.65
   3   3   3  138.16    5.64
  -4  -3  -3   95.78    4.44
   4   3   3   97.25    4.41
  -5  -3  -3    0.14    0.97
  -6  -3  -3   -1.22    1.16
   6   3   3    1.55    1.11
  -7  -3  -3    0.14    1.52
   7   3   3   -0.12    1.41
   9  -4  -3   15.05    2.08
  -9   4   3   15.28    2.02
   8  -4  -3    1.11    0.97
  -8   4   3    2.62    0.98
   7  -4  -3    0.24    0.78
  -7   4   3   -0.38    0.78
  -7   4   3    0.36    0.65
   6  -4  -3    6.14    0.93
  -6   4   3    5.15    0.94
  -6   4   3    5.51    0.73
   5  -4  -3    3.38    0.53
  -5   4   3    3.42    0.74
   4  -4  -3   20.43    1.22
  -4   4   3   19.43    1.41
   3  -4  -3   19.93    1.18
  -3   4   3   21.03    1.43
   2  -4  -3   76.43    3.32
   2  -4  -3   79.39    3.02
  -2   4   3   76.23    3.49
  -2   4   3   91.68    3.02
   1  -4  -3   71.95    2.85
   1  -4  -3   67.38    3.18
   1  -4  -3   64.50    2.92
  -1   4   3   67.39    2.99
  -1   4   3   78.56    2.79
  -1   4   3   70.59    3.23
   0  -4  -3    0.08    0.49
   0  -4  -3    0.61    0.42
   0  -4  -3    0.22    0.30
   0   4   3    0.36    0.28
   0   4   3    0.37    0.48
   0   4   3   -0.14    0.34
   0   4   3    0.22    0.30
  -1  -4  -3   27.19    1.60
  -1  -4  -3   29.94    1.55
   1   4   3   24.76    1.55
   1   4   3   29.25    1.26
   1   4   3   29.43    1.54
  -2  -4  -3    1.39    0.57
   2   4   3    1.65    0.26
   2   4   3    0.83    0.50
   2   4   3    2.11    0.38
  -3  -4  -3   38.77    2.33
   3   4   3   37.76    2.22
  -4  -4  -3    1.55    0.87
   4   4   3    2.51    0.83
  -5  -4  -3    0.44    1.10
   5   4   3    1.67    1.00
  -6  -4  -3    2.66    1.50
   6   4   3    1.32    1.27
   9  -5  -3   -0.95    1.19
  -9   5   3   -0.85    1.17
   8  -5  -3   -0.78    0.88
  -8   5   3    3.02    1.03
   7  -5  -3    3.41    0.78
  -7   5   3    3.54    1.73
   6  -5  -3   77.34    3.60
  -6   5   3   80.18    3.99
   5  -5  -3    2.33    0.54
  -5   5   3    1.64    0.71
   4  -5  -3   17.18    1.17
  -4   5   3   17.26    1.48
   3  -5  -3   11.90    0.94
  -3   5   3   12.21    0.79
  -3   5   3   12.02    1.22
   2  -5  -3    0.36    0.33
   2  -5  -3    0.86    0.30
  -2   5   3    0.37    0.30
  -2   5   3    0.13    0.41
  -2   5   3    0.23    0.29
   1  -5  -3    8.98    0.85
   1  -5  -3    9.81    0.85
  -1   5   3   10.03    0.82
  -1   5   3    9.34    0.88
   0  -5  -3    6.80    0.82
   0  -5  -3    7.27    1.19
   0  -5  -3    8.54    0.92
   0   5   3    7.98    1.11
   0   5   3    6.94    0.82
   0   5   3    7.67    0.74
  -1  -5  -3  117.69    4.96
   1   5   3  122.32    4.44
   1   5   3  115.12    4.69
   1   5   3  113.52    4.87
  -2  -5  -3   32.97    2.10
   2   5   3   31.70    1.96
   2   5   3   30.55    1.49
   2   5   3   31.26    1.25
  -3  -5  -3    0.85    0.81
   3   5   3    0.58    0.70
  -4  -5  -3    3.13    1.14
   4   5   3    3.36    0.91
  -5  -5  -3   -0.11    1.26
   5   5   3    3.22    1.19
  -6  -5  -3    7.18    1.98
   6   5   3    3.29    1.56
   9  -6  -3    0.34    1.20
  -9   6   3    4.63    1.39
   8  -6  -3   -0.60    0.92
  -8   6   3   -0.89    1.11
   7  -6  -3    1.53    0.78
  -7   6   3    0.66    1.04
   6  -6  -3    3.72    0.81
  -6   6   3    3.81    1.21
   5  -6  -3   78.60    3.60
  -5   6   3   82.47    4.05
   4  -6  -3   25.57    1.61
  -4   6   3   27.47    1.98
   3  -6  -3    1.31    0.44
  -3   6   3    2.47    0.38
  -3   6   3    1.98    0.70
  -3   6   3    2.32    0.32
   2  -6  -3    1.01    0.39
   2  -6  -3    1.57    0.39
  -2   6   3    1.80    0.48
  -2   6   3    1.39    0.44
  -2   6   3    1.02    0.53
   1  -6  -3   15.02    1.18
   1  -6  -3   16.16    1.22
  -1   6   3   17.74    1.27
  -1   6   3   16.89    1.28
   0  -6  -3    6.69    0.86
   0  -6  -3    5.72    0.90
   0   6   3    4.54    0.74
   0   6   3    7.11    0.79
  -1  -6  -3    0.24    0.73
   1   6   3   -0.70    0.55
   1   6   3   -0.90    0.68
  -2  -6  -3    2.39    0.92
   2   6   3    1.52    0.26
   2   6   3    1.93    0.71
  -3  -6  -3    4.67    1.23
   3   6   3    5.39    1.06
  -4  -6  -3    5.61    1.47
   4   6   3    6.50    1.28
  -5  -6  -3    2.52    1.66
   5   6   3    1.45    1.37
   8  -7  -3   18.64    1.87
  -8   7   3   15.45    2.19
   7  -7  -3    1.85    0.86
  -7   7   3    1.55    1.19
   6  -7  -3    0.28    0.70
  -6   7   3    1.74    1.04
   5  -7  -3    0.78    0.65
  -5   7   3    0.17    0.85
   4  -7  -3   10.21    1.11
  -4   7   3   10.37    1.55
   3  -7  -3   19.64    1.44
  -3   7   3   23.13    1.24
  -3   7   3   18.71    1.67
  -3   7   3   19.23    1.13
   2  -7  -3    8.94    0.95
   2  -7  -3   10.87    1.11
  -2   7   3    9.81    1.00
  -2   7   3    9.62    1.19
  -2   7   3   13.18    1.15
   1  -7  -3   11.73    1.22
   1  -7  -3   11.72    1.24
  -1   7   3   12.50    1.21
  -1   7   3   12.22    1.20
   0  -7  -3    2.52    0.74
   0  -7  -3    1.25    0.62
   0   7   3    2.11    0.56
   0   7   3    1.22    0.68
  -1  -7  -3   -0.13    0.86
   1   7   3    0.19    0.42
   1   7   3    1.17    0.67
   2   7   3   -0.08    0.88
  -3  -7  -3    1.31    1.33
   3   7   3    3.42    1.10
  -4  -7  -3    1.03    1.61
   4   7   3    1.76    1.36
   8  -8  -3   -0.25    1.11
  -8   8   3   -0.40    1.55
   7  -8  -3    5.83    1.08
  -7   8   3    6.04    1.39
   6  -8  -3   12.04    1.52
  -6   8   3   15.36    2.11
   5  -8  -3    1.70    0.76
  -5   8   3    2.58    1.13
   4  -8  -3    1.07    0.65
  -4   8   3    1.56    1.00
   3  -8  -3    3.17    0.72
  -3   8   3    3.99    0.91
  -3   8   3    3.30    0.59
   2  -8  -3    9.91    1.18
   2  -8  -3    9.09    1.13
  -2   8   3    8.58    1.20
  -2   8   3    7.37    0.99
  -2   8   3    8.39    1.18
   1  -8  -3    1.60    0.80
   1  -8  -3    1.40    0.70
  -1   8   3    1.42    0.75
  -1   8   3    1.66    0.70
   0  -8  -3    6.85    1.10
   0   8   3    7.86    1.18
   0   8   3    4.70    0.93
  -1  -8  -3   -0.14    1.10
   1   8   3    1.18    0.94
  -2  -8  -3    0.51    1.34
   2   8   3    0.54    1.09
  -3  -8  -3    2.94    1.56
   3   8   3    4.05    1.48
   7  -9  -3    0.98    1.06
  -7   9   3    2.74    1.58
   6  -9  -3    0.31    0.94
  -6   9   3   -0.26    1.31
   5  -9  -3   16.81    1.73
  -5   9   3   14.91    2.14
   4  -9  -3    6.88    1.02
  -4   9   3    7.13    1.36
   3  -9  -3    2.96    0.85
   2  -9  -3    7.91    0.99
   2  -9  -3    8.50    1.20
  -2   9   3    5.84    1.01
  -2   9   3    6.92    1.12
  -2   9   3    6.72    1.17
   1  -9  -3    1.00    0.96
   1  -9  -3    1.67    0.87
  -1   9   3    1.07    0.85
  -1   9   3   -0.07    1.02
  -1   9   3    2.25    0.94
   0  -9  -3    7.89    1.39
   0   9   3    6.26    1.18
   0   9   3    6.66    1.04
  -1  -9  -3    0.20    1.36
   1   9   3    0.55    1.20
  -2  -9  -3   -0.20    1.56
   2   9   3    1.12    1.40
   6 -10  -3    1.32    1.09
  -6  10   3    1.06    1.63
   5 -10  -3    1.86    1.04
  -5  10   3    2.25    1.45
   4 -10  -3   10.74    1.70
  -4  10   3   14.16    2.27
   3 -10  -3   11.91    1.64
  -3  10   3   10.18    1.38
  -3  10   3   11.78    1.87
   2 -10  -3    6.14    1.16
  -2  10   3    7.09    1.23
  -2  10   3    6.15    1.25
   1 -10  -3    0.84    1.22
  -1  10   3    2.21    1.26
  -1  10   3    3.32    1.29
   0 -10  -3    0.93    1.46
   0  10   3    1.54    1.25
  -1 -10  -3    6.64    1.89
   1  10   3    9.67    1.70
   5 -11  -3    4.75    1.33
  -5  11   3    3.33    1.63
   4 -11  -3   -1.02    1.17
  -4  11   3   -0.52    1.21
  -4  11   3   -1.21    1.43
   3 -11  -3   -0.80    1.22
  -3  11   3   -0.49    1.34
  -3  11   3   -1.09    1.20
   2 -11  -3    1.85    1.28
  -2  11   3    1.51    1.25
  -2  11   3   -1.15    1.31
  -1  12  -4    5.83    1.36
  -1  12  -4    7.41    1.99
   1 -12   4    7.57    1.96
  -2  12  -4    6.96    1.94
  -2  12  -4    5.61    1.82
   2 -12   4    5.34    1.96
  -3  12  -4    6.90    1.85
  -3  12  -4    4.89    1.01
   3 -12   4    3.69    1.97
  -4  12  -4   22.53    1.79
  -4  12  -4   21.75    3.33
   4 -12   4   22.77    3.36
  -5  12  -4    2.04    1.74
  -5  12  -4    2.27    0.88
   5 -12   4   -2.03    2.06
   1  11  -4   -0.78    1.53
  -1 -11   4   -2.38    1.40
   0  11  -4    0.78    1.24
   0  11  -4    2.92    1.40
   0 -11   4   -0.27    1.18
   0 -11   4   -1.57    1.51
  -1  11  -4   19.14    2.14
  -1  11  -4   16.80    2.45
  -1  11  -4   21.59    1.80
   1 -11   4   17.87    2.87
  -2  11  -4    8.03    1.20
  -2  11  -4    5.33    1.53
  -2  11  -4   10.04    1.30
   2 -11   4    6.65    1.76
  -3  11  -4    2.77    1.48
  -3  11  -4    1.12    0.72
  -3  11  -4    0.76    0.74
   3 -11   4    1.85    1.57
  -4  11  -4    1.00    0.88
  -4  11  -4    2.22    1.46
   4 -11   4   -0.12    1.59
  -5  11  -4    4.62    1.72
  -5  11  -4    5.01    1.04
   5 -11   4    6.65    2.00
  -6  11  -4    3.84    1.86
   6 -11   4    4.11    1.93
  -7  11  -4    3.54    2.14
   7 -11   4    5.08    2.27
   3  10  -4    2.89    1.78
   3  10  -4   -0.06    1.33
  -3 -10   4   -2.87    1.79
   2  10  -4    0.56    1.43
   2  10  -4    0.95    1.09
  -2 -10   4   -0.53    1.38
   1  10  -4    7.39    1.45
   1  10  -4   11.18    1.37
   1  10  -4   10.21    1.63
  -1 -10   4   14.64    1.95
  -1 -10   4   15.68    2.50
   0  10  -4    4.83    1.17
   0  10  -4    3.79    0.88
   0 -10   4    4.66    1.14
   0 -10   4    1.52    1.31
  -1  10  -4    0.93    0.64
  -1  10  -4    0.86    0.87
  -1  10  -4    0.94    1.12
   1 -10   4    1.85    1.25
  -2  10  -4    5.50    1.30
  -2  10  -4    5.55    0.93
  -2  10  -4    5.77    0.77
   2 -10   4    5.46    1.38
  -3  10  -4   10.80    1.64
  -3  10  -4   13.52    1.24
  -3  10  -4   13.66    1.32
   3 -10   4   14.98    1.19
   3 -10   4   13.16    2.15
  -4  10  -4   12.81    1.16
  -4  10  -4   10.27    1.72
  -4  10  -4   12.57    1.20
   4 -10   4   12.97    2.21
   4 -10   4   10.72    1.14
  -5  10  -4    6.74    1.62
  -5  10  -4    4.99    0.76
   5 -10   4    5.25    1.70
   5 -10   4    7.27    1.05
  -6  10  -4    3.48    1.67
  -6  10  -4    0.67    0.68
   6 -10   4   -1.01    1.66
  -7  10  -4   12.23    2.11
  -7  10  -4   13.98    1.57
   7 -10   4   19.04    3.11
  -8  10  -4    6.82    2.09
   4   9  -4    6.00    1.54
   4   9  -4    6.59    1.97
  -4  -9   4    5.88    1.80
   3   9  -4    4.80    1.47
   3   9  -4    1.72    1.14
  -3  -9   4    2.23    1.37
   2   9  -4    0.24    0.91
   2   9  -4    2.66    1.27
  -2  -9   4    1.27    1.09
   1   9  -4    8.05    1.44
   1   9  -4    9.04    1.31
  -1  -9   4    8.09    1.35
  -1  -9   4    7.47    1.24
   0   9  -4   47.29    2.38
   0   9  -4   39.75    2.71
   0  -9   4   45.80    2.91
   0  -9   4   45.20    2.70
  -1   9  -4    2.32    0.77
  -1   9  -4    1.99    0.55
   1  -9   4    0.68    1.01
  -2   9  -4    6.28    0.84
  -2   9  -4    5.35    0.87
   2  -9   4    4.28    1.20
  -3   9  -4   -0.14    0.41
  -3   9  -4   -0.98    0.95
  -3   9  -4    0.18    0.49
   3  -9   4   -0.10    0.42
   3  -9   4   -0.30    1.03
  -4   9  -4    7.21    0.94
  -4   9  -4    7.83    1.43
   4  -9   4    8.40    1.65
   4  -9   4    8.48    0.89
  -5   9  -4    2.24    0.56
  -5   9  -4    1.15    1.26
   5  -9   4    2.84    1.34
   5  -9   4    2.31    0.58
  -6   9  -4   10.63    1.77
  -6   9  -4   11.01    1.15
   6  -9   4   13.35    1.30
   6  -9   4    7.85    1.79
  -7   9  -4    1.24    0.75
  -7   9  -4    0.62    1.43
   7  -9   4    0.72    1.52
   7  -9   4    1.82    0.87
  -8   9  -4   -1.64    1.66
   5   8  -4    6.92    1.55
  -5  -8   4    8.50    1.90
   4   8  -4    0.36    1.13
  -4  -8   4   -1.18    1.37
   3   8  -4    1.12    1.17
  -3  -8   4    1.70    1.19
   2   8  -4   20.86    1.73
   2   8  -4   22.88    2.25
  -2  -8   4   21.68    1.93
  -2  -8   4   17.59    2.02
   1   8  -4    1.27    0.85
   1   8  -4    0.48    0.58
  -1  -8   4    0.73    0.82
  -1  -8   4   -0.66    0.86
   0   8  -4    1.40    0.74
   0   8  -4    2.65    0.56
   0  -8   4    1.93    0.69
   0  -8   4    1.11    0.91
  -1   8  -4   55.91    2.82
  -1   8  -4   49.95    2.36
   1  -8   4   54.02    3.18
  -2   8  -4  116.56    4.64
  -2   8  -4  121.42    4.61
  -2   8  -4  121.81    4.99
   2  -8   4  117.39    4.62
   2  -8   4  126.99    5.72
  -3   8  -4    3.20    0.46
  -3   8  -4    2.37    0.59
  -3   8  -4    2.66    0.58
   3  -8   4    3.16    1.03
   3  -8   4    2.89    0.43
  -4   8  -4    1.11    1.00
  -4   8  -4    1.09    0.45
   4  -8   4    1.77    1.09
   4  -8   4    0.42    0.41
  -5   8  -4   11.02    1.74
  -5   8  -4   12.03    1.05
   5  -8   4   11.72    1.85
   5  -8   4   14.45    1.10
  -6   8  -4   31.91    2.87
  -6   8  -4   32.50    1.83
   6  -8   4   33.76    1.86
   6  -8   4   32.64    3.02
  -7   8  -4   37.73    2.11
  -7   8  -4   32.21    3.16
   7  -8   4   35.25    2.09
   7  -8   4   40.31    3.30
  -8   8  -4   12.83    2.08
   8  -8   4   17.32    1.74
   5   7  -4    3.42    1.36
  -5  -7   4    4.29    1.57
   4   7  -4   -0.59    0.90
  -4  -7   4   -0.13    1.14
   3   7  -4   -1.26    0.71
  -3  -7   4    0.95    0.92
  -3  -7   4   -0.43    0.80
   2   7  -4   15.45    1.69
   2   7  -4   16.11    1.36
  -2  -7   4   13.58    1.52
  -2  -7   4   17.48    1.62
   1   7  -4   28.38    2.02
   1   7  -4   27.51    1.67
  -1  -7   4   29.06    1.99
  -1  -7   4   28.48    2.00
   0   7  -4   10.34    1.25
   0   7  -4   11.08    0.93
   0  -7   4   11.61    1.35
   0  -7   4   11.12    1.11
  -1   7  -4    0.30    0.50
  -1   7  -4    0.15    0.32
   1  -7   4    1.14    0.73
  -2   7  -4    4.11    0.48
  -2   7  -4    2.73    0.56
  -2   7  -4    3.65    0.52
   2  -7   4    2.75    0.89
   2  -7   4    3.78    0.51
  -3   7  -4   22.75    1.22
  -3   7  -4   20.50    1.29
   3  -7   4   20.14    1.86
   3  -7   4   23.61    1.13
  -4   7  -4   35.18    1.74
  -4   7  -4   33.86    1.76
   4  -7   4   35.81    1.65
   4  -7   4   34.30    2.56
  -5   7  -4    1.90    0.97
  -5   7  -4    1.51    0.45
   5  -7   4    1.58    0.44
   5  -7   4    0.27    0.98
  -6   7  -4   -0.56    1.05
  -6   7  -4    0.82    0.51
   6  -7   4    0.72    0.51
   6  -7   4    0.06    1.21
  -7   7  -4    6.54    1.57
  -7   7  -4    5.98    0.85
   7  -7   4    6.64    1.53
   7  -7   4    7.67    1.14
  -8   7  -4   -1.40    1.43
  -8   7  -4    0.73    1.00
   8  -7   4    0.55    0.85
  -9   7  -4    0.66    1.80
  -9   7  -4    1.45    1.24
   9  -7   4    2.69    1.13
   6   6  -4   -0.85    1.37
  -6  -6   4   -0.99    1.62
   5   6  -4   -0.64    1.06
  -5  -6   4   -1.07    1.23
   4   6  -4   10.33    1.60
  -4  -6   4   12.79    1.79
   3   6  -4    0.59    0.65
   3   6  -4    0.36    0.43
  -3  -6   4    0.93    0.86
  -3  -6   4    1.24    0.66
   2   6  -4    0.27    0.37
   2   6  -4    0.00    0.69
   2   6  -4    0.72    0.46
  -2  -6   4    0.02    0.62
  -2  -6   4    0.83    0.61
   1   6  -4    2.00    0.62
   1   6  -4    1.28    0.48
  -1  -6   4    2.02    0.65
  -1  -6   4    2.49    0.65
   0   6  -4    8.07    0.71
   0   6  -4    8.19    0.73
   0   6  -4    7.85    0.97
   0  -6   4    9.39    0.94
   0  -6   4    9.30    1.10
  -1   6  -4   17.46    0.94
  -1   6  -4   17.88    1.22
  -1   6  -4   19.00    0.92
   1  -6   4   17.13    1.48
  -2   6  -4   18.19    0.90
  -2   6  -4   19.80    0.95
  -2   6  -4   17.69    1.15
   2  -6   4   18.02    1.61
   2  -6   4   19.00    0.90
  -3   6  -4    0.07    0.28
  -3   6  -4    0.82    0.34
   3  -6   4   -0.29    0.70
   3  -6   4    0.15    0.23
  -4   6  -4   90.43    3.72
  -4   6  -4   91.11    3.70
   4  -6   4   99.11    3.64
   4  -6   4   93.55    4.58
  -5   6  -4   21.18    2.03
  -5   6  -4   23.14    1.32
   5  -6   4   22.44    1.24
   5  -6   4   19.70    2.02
  -6   6  -4    7.82    0.92
  -6   6  -4    4.93    1.21
   6  -6   4    6.26    0.92
   6  -6   4    5.96    1.24
  -7   6  -4    3.76    1.33
  -7   6  -4    1.74    0.65
   7  -6   4    1.69    1.20
   7  -6   4    1.47    0.65
  -8   6  -4    5.04    1.50
   8  -6   4    4.98    1.00
  -9   6  -4   18.39    2.23
  -9   6  -4   13.77    2.07
   9  -6   4   17.90    2.00
   7   5  -4    1.80    1.46
  -7  -5   4    2.90    1.89
   6   5  -4    7.59    1.33
  -6  -5   4   10.54    1.65
   5   5  -4    0.73    0.95
  -5  -5   4   -0.86    1.00
   4   5  -4    2.90    0.80
  -4  -5   4    2.57    0.85
  -4  -5   4    2.20    0.65
   3   5  -4   14.63    1.27
   3   5  -4   13.97    0.87
  -3  -5   4   14.55    1.46
   2   5  -4   23.39    1.14
   2   5  -4   19.87    1.35
   2   5  -4   19.25    1.54
  -2  -5   4   20.05    1.51
  -2  -5   4   20.16    1.35
   1   5  -4    7.22    0.69
   1   5  -4    7.66    0.68
   1   5  -4    6.90    0.91
  -1  -5   4    5.78    0.85
  -1  -5   4    7.06    0.74
  -1  -5   4    5.47    0.88
   0   5  -4    9.49    0.85
   0   5  -4    9.18    0.61
   0   5  -4    8.88    0.90
   0   5  -4    9.48    0.66
   0  -5   4    8.41    0.83
   0  -5   4    9.90    0.64
   0  -5   4    9.14    0.94
  -1   5  -4    3.72    0.35
  -1   5  -4    3.31    0.54
  -1   5  -4    3.52    0.39
   1  -5   4    2.97    0.57
  -2   5  -4   42.09    1.55
  -2   5  -4   37.96    1.79
   2  -5   4   34.29    2.14
   2  -5   4   38.45    1.50
  -3   5  -4    1.64    0.32
  -3   5  -4    1.92    0.33
   3  -5   4    2.12    0.28
   3  -5   4    1.71    0.55
  -4   5  -4    4.09    0.51
  -4   5  -4    5.12    0.56
   4  -5   4    4.50    0.57
   4  -5   4    4.34    0.92
  -5   5  -4   10.16    0.83
   5  -5   4   10.35    0.87
   5  -5   4   11.19    1.52
  -6   5  -4   -0.58    0.88
  -6   5  -4    0.50    0.44
   6  -5   4    1.40    0.88
   6  -5   4   -0.40    0.49
  -7   5  -4    3.29    1.26
  -7   5  -4    3.16    0.69
   7  -5   4    4.07    1.17
  -8   5  -4   13.46    2.18
  -8   5  -4   13.65    1.71
  -9   5  -4    0.22    1.55
  -9   5  -4   -1.04    1.19
   9  -5   4   -0.28    1.17
   7   4  -4    1.20    1.29
  -7  -4   4    3.54    1.57
   6   4  -4    2.21    1.03
  -6  -4   4    1.39    1.31
   5   4  -4   61.99    3.17
  -5  -4   4   51.19    2.64
  -5  -4   4   59.29    3.28
   4   4  -4   35.68    1.69
   4   4  -4   36.90    2.12
  -4  -4   4   34.54    2.28
  -4  -4   4   31.95    1.85
   3   4  -4    0.80    0.49
   3   4  -4    1.72    0.32
  -3  -4   4    1.31    0.56
  -3  -4   4    0.87    0.38
   2   4  -4    0.14    0.24
   2   4  -4    0.03    0.36
  -2  -4   4    0.31    0.42
  -2  -4   4    0.04    0.41
  -2  -4   4   -0.09    0.33
   1   4  -4   84.72    3.10
   1   4  -4   72.62    3.38
   1   4  -4   81.32    3.12
  -1  -4   4   76.09    3.28
  -1  -4   4   78.91    3.07
  -1  -4   4   70.08    3.30
   0   4  -4   44.47    1.99
   0   4  -4   42.74    1.74
   0   4  -4   44.23    1.70
   0   4  -4   41.24    2.05
   0   4  -4   40.99    2.03
   0  -4   4   44.55    1.72
  -1   4  -4   17.35    0.68
  -1   4  -4   17.26    0.71
  -1   4  -4   16.42    1.01
  -1   4  -4   17.12    1.14
   1  -4   4   15.32    1.16
   1  -4   4   17.90    1.10
  -2   4  -4   88.33    3.52
  -2   4  -4   89.94    3.86
  -2   4  -4   89.29    3.32
   2  -4   4   92.40    3.65
   2  -4   4   86.13    3.94
   2  -4   4   96.21    3.26
  -3   4  -4    4.44    0.48
  -3   4  -4    5.47    0.51
   3  -4   4    5.02    0.45
   3  -4   4    6.04    0.93
  -4   4  -4   17.41    1.05
  -4   4  -4   16.72    1.02
   4  -4   4   17.53    1.01
   4  -4   4   16.20    1.46
  -5   4  -4    2.17    0.47
   5  -4   4    2.05    0.78
   5  -4   4    2.16    0.46
  -6   4  -4    2.76    0.59
  -6   4  -4    2.52    0.92
   6  -4   4    3.68    0.90
   6  -4   4    3.39    0.69
  -7   4  -4   15.55    1.95
  -7   4  -4   16.86    1.42
   7  -4   4   14.62    1.54
   7  -4   4   14.62    1.88
  -8   4  -4    3.60    1.25
  -8   4  -4    1.97    0.94
   8  -4   4    1.57    1.08
  -9   4  -4    0.97    1.35
   9  -4   4    2.35    1.37
   8   3  -4    2.57    1.49
  -8  -3   4   -1.91    1.74
   7   3  -4    6.95    1.36
  -7  -3   4   11.98    1.80
   6   3  -4    3.49    0.96
  -6  -3   4    1.22    1.03
  -6  -3   4    2.11    0.76
   5   3  -4   -0.23    0.64
   5   3  -4   -0.30    0.67
  -5  -3   4    0.20    0.36
  -5  -3   4    0.17    0.76
   4   3  -4   88.21    3.65
   4   3  -4   93.64    4.07
  -4  -3   4   93.81    4.15
   3   3  -4   49.01    2.04
   3   3  -4   46.14    2.31
  -3  -3   4   49.96    2.08
  -3  -3   4   46.31    2.42
   2   3  -4    0.57    0.39
   2   3  -4    0.12    0.33
   2   3  -4    0.49    0.23
  -2  -3   4    0.42    0.36
  -2  -3   4    0.44    0.25
  -2  -3   4   -0.11    0.32
   1   3  -4    9.43    0.59
   1   3  -4    7.35    0.85
   1   3  -4    8.23    0.59
   1   3  -4    7.82    0.79
  -1  -3   4    6.87    0.78
  -1  -3   4    8.06    0.58
  -1  -3   4    7.80    0.66
   0   3  -4   33.99    1.61
   0   3  -4   36.67    1.59
   0   3  -4   34.99    1.35
   0  -3   4   32.36    1.67
   0  -3   4   34.93    1.34
   0  -3   4   33.07    1.65
  -1   3  -4   57.02    2.39
  -1   3  -4   53.73    2.24
   1  -3   4   53.35    2.48
   1  -3   4   53.53    2.31
  -2   3  -4   90.74    3.68
  -2   3  -4   77.71    3.61
  -2   3  -4   93.74    3.22
   2  -3   4   87.85    3.20
   2  -3   4   91.13    3.48
  -3   3  -4   78.62    3.20
  -3   3  -4   81.28    3.49
  -3   3  -4   85.80    3.14
   3  -3   4   80.71    3.12
   3  -3   4   86.57    3.39
   3  -3   4   71.59    3.54
  -4   3  -4    0.32    0.38
  -4   3  -4    0.17    0.27
   4  -3   4    0.33    0.50
  -5   3  -4   43.61    2.07
   5  -3   4   41.03    2.11
   5  -3   4   40.79    2.43
  -6   3  -4    7.52    1.01
  -6   3  -4    6.16    0.98
   6  -3   4    6.11    0.88
   6  -3   4    6.39    1.01
  -7   3  -4   13.40    1.71
  -7   3  -4   17.95    1.58
   7  -3   4   20.56    1.79
   7  -3   4   18.62    1.89
  -8   3  -4    0.79    0.99
  -8   3  -4    2.54    1.76
   8  -3   4    0.58    1.09
  -9   3  -4    5.66    1.45
   9  -3   4   -1.30    1.50
   8   2  -4   -0.56    1.37
  -8  -2   4   -0.82    1.56
   7   2  -4    7.12    1.23
   6   2  -4    0.15    0.76
  -6  -2   4    3.48    0.90
  -6  -2   4    1.45    0.37
   5   2  -4    3.26    0.76
  -5  -2   4    4.78    0.83
  -5  -2   4    3.62    0.50
   4   2  -4    3.02    0.62
   4   2  -4    1.84    0.51
  -4  -2   4    2.11    0.55
  -4  -2   4    2.10    0.33
   3   2  -4    8.95    0.85
   3   2  -4    9.25    0.91
   3   2  -4    9.69    0.71
  -3  -2   4    8.83    0.87
  -3  -2   4    8.76    0.61
   2   2  -4  113.22    4.41
   2   2  -4  112.65    4.33
   2   2  -4  109.82    4.40
   2   2  -4  111.71    4.19
  -2  -2   4  112.68    4.39
  -2  -2   4  110.43    4.30
  -2  -2   4  109.37    4.18
   1   2  -4   80.26    3.10
   1   2  -4   80.26    3.25
   1   2  -4   87.12    3.15
   1   2  -4   80.97    3.28
  -1  -2   4   83.71    3.19
  -1  -2   4   80.68    3.24
  -1  -2   4   78.79    3.11
   0   2  -4   17.92    0.92
   0   2  -4   19.14    0.73
   0  -2   4   17.67    0.97
   0  -2   4   15.75    0.77
   0  -2   4   17.98    0.97
  -1   2  -4    6.30    0.52
  -1   2  -4    5.81    0.44
   1  -2   4    5.59    0.30
   1  -2   4    5.99    0.60
   1  -2   4    6.53    0.51
   1  -2   4    6.00    0.28
  -2   2  -4   24.60    1.29
  -2   2  -4   26.37    1.12
  -2   2  -4   27.02    1.35
   2  -2   4   27.71    1.25
   2  -2   4   25.41    1.43
   2  -2   4   26.02    1.14
  -3   2  -4   17.77    1.01
  -3   2  -4   20.11    1.21
  -3   2  -4   19.56    1.04
   3  -2   4   18.35    1.03
   3  -2   4   18.03    1.27
  -4   2  -4   20.64    1.22
  -4   2  -4   20.16    1.31
  -4   2  -4   18.41    1.15
   4  -2   4   19.28    1.38
   4  -2   4   18.75    1.22
  -5   2  -4    6.37    0.85
   5  -2   4    6.28    0.90
   5  -2   4    5.69    0.79
  -6   2  -4   39.18    2.20
  -6   2  -4   37.68    2.21
   6  -2   4   37.00    2.24
   6  -2   4   41.15    2.36
  -7   2  -4    4.15    0.94
   7  -2   4    5.79    1.05
  -8   2  -4    8.06    1.31
   8  -2   4    6.13    1.39
  -9   2  -4    0.12    1.42
   9  -2   4   -1.01    1.58
   8   1  -4    0.72    1.27
  -8  -1   4    3.83    1.43
   7   1  -4   -0.74    0.94
  -7  -1   4    0.96    1.05
  -7  -1   4   -0.24    0.47
   6   1  -4   -0.67    0.69
  -6  -1   4    0.52    0.36
  -6  -1   4    0.03    0.76
   5   1  -4   22.35    1.67
  -5  -1   4   24.05    1.27
  -5  -1   4   25.84    1.65
   4   1  -4    8.91    0.92
   4   1  -4    6.88    0.86
   4   1  -4    9.68    0.98
  -4  -1   4    6.82    0.84
  -4  -1   4    8.06    0.63
   3   1  -4    1.72    0.43
   3   1  -4    2.08    0.38
   3   1  -4    1.28    0.34
  -3  -1   4    2.31    0.42
  -3  -1   4    2.40    0.48
   2   1  -4    2.00    0.32
   2   1  -4    1.82    0.32
   2   1  -4    1.83    0.34
   2   1  -4    2.46    0.37
  -2  -1   4    2.22    0.37
  -2  -1   4    2.56    0.32
  -2  -1   4    1.97    0.34
   1   1  -4  202.62    7.27
   1   1  -4  204.63    7.36
   1   1  -4  206.87    7.34
   1   1  -4  199.63    7.31
  -1  -1   4  193.71    7.30
  -1  -1   4  206.16    7.31
  -1  -1   4  206.28    7.38
   0   1  -4   95.85    3.46
   0   1  -4   89.79    3.41
   0   1  -4   88.47    3.32
   0  -1   4   91.40    3.46
   0  -1   4   92.74    3.34
   0  -1   4   92.66    3.49
  -1   1  -4    0.00    0.11
  -1   1  -4   -0.02    0.14
   1  -1   4    0.20    0.12
   1  -1   4    0.18    0.16
   1  -1   4    0.18    0.13
   1  -1   4    0.36    0.18
  -2   1  -4   69.80    2.66
  -2   1  -4   68.75    2.69
   2  -1   4   70.42    2.65
   2  -1   4   66.65    2.66
   2  -1   4   64.34    2.66
   2  -1   4   65.67    2.81
  -3   1  -4    0.39    0.25
  -3   1  -4   -0.13    0.28
  -3   1  -4   -0.10    0.31
   3  -1   4   -0.09    0.35
   3  -1   4   -0.07    0.27
  -4   1  -4   54.88    2.31
  -4   1  -4   50.78    2.41
   4  -1   4   49.90    2.46
   4  -1   4   53.81    2.49
  -5   1  -4   53.11    2.66
  -5   1  -4   58.53    2.43
  -5   1  -4   49.04    2.59
   5  -1   4   52.63    2.66
   5  -1   4   53.60    2.72
  -6   1  -4    0.12    0.66
  -6   1  -4   -0.77    0.64
   6  -1   4    0.19    0.74
   6  -1   4    0.56    0.59
  -7   1  -4    3.65    0.99
   7  -1   4    1.23    1.16
  -8   1  -4   12.44    1.68
   8  -1   4   11.50    1.70
   9   0  -4    3.20    1.54
   8   0  -4    0.84    1.15
  -8   0   4    4.43    1.30
   7   0  -4   17.92    1.81
  -7   0   4   16.56    1.87
  -7   0   4   18.18    1.30
   6   0  -4    0.13    0.65
  -6   0   4   -0.47    0.68
  -6   0   4   -0.41    0.39
   5   0  -4   10.75    1.13
  -5   0   4   11.23    1.05
  -5   0   4   10.79    0.85
   4   0  -4   38.17    2.05
   4   0  -4   42.32    1.87
  -4   0   4   40.62    1.88
  -4   0   4   42.74    1.94
   3   0  -4   60.42    2.34
   3   0  -4   57.00    2.52
   3   0  -4   53.56    2.45
  -3   0   4   59.02    2.35
  -3   0   4   54.42    2.51
  -3   0   4   57.06    2.38
   2   0  -4   36.28    1.56
   2   0  -4   36.81    1.71
   2   0  -4   37.33    1.54
   2   0  -4   36.99    1.65
  -2   0   4   37.63    1.63
  -2   0   4   38.44    1.71
   1   0  -4    4.27    0.37
   1   0  -4    4.14    0.31
   1   0  -4    4.32    0.42
  -1   0   4    4.14    0.38
  -1   0   4    4.47    0.36
  -1   0   4    4.10    0.42
   0   0  -4  214.57    7.82
   0   0  -4  219.28    7.87
   0   0  -4  231.20    7.93
   0   0   4  221.58    7.86
   0   0   4  216.06    7.89
   0   0   4  219.68    7.84
  -1   0  -4  111.59    4.22
  -1   0  -4  114.09    4.23
  -1   0  -4  118.54    4.18
   1   0   4  112.66    4.23
   1   0   4  111.90    4.19
   1   0   4  111.12    4.21
   1   0   4  113.40    4.19
  -2   0  -4   32.77    1.30
  -2   0  -4   25.87    1.39
  -2   0  -4   30.77    1.43
   2   0   4   31.84    1.43
   2   0   4   30.09    1.41
   2   0   4   31.63    1.41
   2   0   4   29.75    1.45
  -3   0  -4    9.97    0.85
  -3   0  -4   11.00    0.61
  -3   0  -4    9.44    0.82
   3   0   4   10.26    0.86
   3   0   4   10.06    0.81
  -4   0  -4    2.42    0.41
   4   0   4    1.39    0.51
   4   0   4    3.01    0.50
  -5   0  -4    0.81    0.33
  -5   0  -4   -0.07    0.57
   5   0   4    0.35    0.65
   5   0   4    0.60    0.45
  -6   0  -4   13.51    1.60
  -6   0  -4   10.55    1.17
   6   0   4   13.39    1.66
  -7   0  -4    8.04    1.30
   7   0   4    8.82    1.41
  -8   0  -4    3.82    1.38
   8   0   4    2.48    1.45
   9  -1  -4    2.70    1.40
   8  -1  -4    4.87    1.21
  -8   1   4    5.41    0.83
  -8   1   4    6.05    1.26
   7  -1  -4    6.04    1.13
  -7   1   4    7.25    1.02
  -7   1   4    7.25    1.03
   6  -1  -4   17.43    1.46
  -6   1   4   14.93    1.34
  -6   1   4   16.38    1.25
   5  -1  -4   18.83    1.07
   5  -1  -4   16.98    1.29
  -5   1   4   19.05    1.21
  -5   1   4   17.08    1.16
   4  -1  -4   10.23    0.68
   4  -1  -4    8.98    0.86
  -4   1   4   10.75    0.84
  -4   1   4   10.75    0.73
   3  -1  -4  238.08    8.27
   3  -1  -4  236.74    8.26
   3  -1  -4  232.91    8.78
   3  -1  -4  222.30    8.56
  -3   1   4  230.56    8.57
  -3   1   4  234.96    8.27
   2  -1  -4   48.46    1.77
   2  -1  -4   48.67    1.84
   2  -1  -4   47.33    2.04
   2  -1  -4   44.66    2.15
  -2   1   4   51.39    2.11
   1  -1  -4   14.78    0.65
   1  -1  -4   15.37    0.91
   1  -1  -4   14.96    0.82
  -1   1   4   15.33    0.83
  -1   1   4   14.56    0.67
  -1   1   4   14.91    0.82
   0  -1  -4  159.48    5.87
   0  -1  -4  158.52    5.86
   0  -1  -4  153.78    5.76
   0   1   4  164.27    5.81
   0   1   4  164.57    5.74
   0   1   4  156.91    5.83
  -1  -1  -4    5.45    0.42
  -1  -1  -4    5.21    0.51
  -1  -1  -4    5.70    0.49
   1   1   4    5.11    0.38
   1   1   4    5.92    0.45
   1   1   4    5.11    0.50
   1   1   4    5.40    0.53
  -2  -1  -4  238.47    8.49
  -2  -1  -4  219.26    8.51
  -2  -1  -4  236.79    8.21
   2   1   4  240.12    8.47
   2   1   4  235.30    8.29
   2   1   4  212.85    8.50
  -3  -1  -4    1.86    0.42
  -3  -1  -4    1.72    0.23
   3   1   4    1.78    0.48
   3   1   4    1.07    0.33
  -4  -1  -4   10.30    0.54
  -4  -1  -4   10.54    1.09
   4   1   4   11.35    0.74
   4   1   4    8.11    1.06
  -5  -1  -4   11.31    1.41
   5   1   4   13.19    1.43
  -6  -1  -4    3.48    1.04
  -7  -1  -4    6.75    1.36
   7   1   4    4.86    1.32
  -8  -1  -4   27.11    3.15
   8   1   4   22.27    3.00
   9  -2  -4   -0.04    1.27
  -9   2   4    1.26    1.20
   8  -2  -4    1.17    0.99
  -8   2   4    1.06    0.78
   7  -2  -4   -0.70    0.79
  -7   2   4   -0.18    0.75
  -7   2   4    0.61    0.64
   6  -2  -4    3.71    0.49
   6  -2  -4    2.82    0.67
  -6   2   4    2.18    0.61
  -6   2   4    2.79    0.69
   5  -2  -4   30.37    1.75
   5  -2  -4   30.41    1.30
  -5   2   4   31.02    1.44
  -5   2   4   29.56    1.75
   4  -2  -4    5.04    0.43
   4  -2  -4    4.61    0.34
   4  -2  -4    5.81    0.69
  -4   2   4    6.22    0.42
  -4   2   4    4.61    0.70
   3  -2  -4    3.74    0.50
  -3   2   4    2.98    0.50
   2  -2  -4    1.89    0.33
   2  -2  -4    1.97    0.46
  -2   2   4    1.97    0.39
  -2   2   4    1.99    0.38
   1  -2  -4   41.58    1.97
   1  -2  -4   42.04    1.66
  -1   2   4   42.57    1.85
  -1   2   4   42.54    1.60
  -1   2   4   41.30    1.83
   0  -2  -4  445.76   15.77
   0  -2  -4  447.69   15.66
   0  -2  -4  410.63   15.76
   0   2   4  454.54   15.74
   0   2   4  442.72   15.63
   0   2   4  452.84   15.57
  -1  -2  -4   15.35    0.86
  -1  -2  -4   13.94    0.92
  -1  -2  -4   14.22    0.93
   1   2   4   14.45    0.72
   1   2   4   15.13    0.92
   1   2   4   14.53    0.86
   1   2   4   14.32    0.96
  -2  -2  -4    3.23    0.51
  -2  -2  -4    3.36    0.46
   2   2   4    2.39    0.47
   2   2   4    3.58    0.35
  -3  -2  -4    4.33    0.69
  -3  -2  -4    2.51    0.32
   3   2   4    3.38    0.49
   3   2   4    2.24    0.51
  -4  -2  -4   12.91    1.27
   4   2   4   12.76    1.28
  -5  -2  -4   15.03    1.65
   5   2   4   16.74    1.68
  -6  -2  -4   -0.30    1.08
   6   2   4    1.04    1.03
  -7  -2  -4    5.79    1.52
   7   2   4    6.96    1.50
   9  -3  -4    0.51    1.33
  -9   3   4   -0.34    1.01
   8  -3  -4    0.02    1.03
  -8   3   4    0.71    0.82
   7  -3  -4   36.42    2.34
  -7   3   4   36.85    2.25
   6  -3  -4    0.67    0.59
  -6   3   4    0.21    0.61
  -6   3   4    1.38    0.44
   5  -3  -4   14.87    1.16
  -5   3   4   16.22    1.36
   4  -3  -4   10.73    0.88
  -4   3   4   12.55    1.07
   3  -3  -4    5.26    0.61
  -3   3   4    6.83    0.79
   2  -3  -4   14.61    0.93
  -2   3   4   15.12    1.04
   1  -3  -4   50.68    2.00
   1  -3  -4   47.54    2.34
   1  -3  -4   46.12    2.15
  -1   3   4   47.13    2.14
  -1   3   4   51.29    1.90
   0  -3  -4   72.70    2.95
   0  -3  -4   68.34    2.99
   0  -3  -4   70.59    3.05
   0   3   4   67.63    2.99
   0   3   4   75.42    2.88
   0   3   4   75.50    2.85
  -1  -3  -4   22.49    1.26
  -1  -3  -4   21.18    1.26
  -1  -3  -4   19.12    1.28
   1   3   4   22.58    1.00
   1   3   4   20.56    1.32
  -2  -3  -4    7.49    0.94
  -2  -3  -4    9.67    0.81
   2   3   4    9.19    0.52
   2   3   4    9.15    0.93
  -3  -3  -4    0.43    0.50
   3   3   4    0.23    0.52
  -4  -3  -4    7.97    1.14
   4   3   4   10.20    1.29
  -5  -3  -4    2.20    0.94
   5   3   4    4.27    1.03
  -6  -3  -4   36.54    2.85
   6   3   4   33.15    2.73
  -7  -3  -4    1.06    1.69
   7   3   4    3.21    1.50
   9  -4  -4    3.56    1.40
  -9   4   4    1.77    1.12
   8  -4  -4   -0.70    0.89
  -8   4   4    0.24    0.95
   7  -4  -4   17.33    1.64
  -7   4   4   16.32    1.94
   6  -4  -4    0.57    0.56
  -6   4   4    0.76    0.68
   5  -4  -4    7.62    0.96
  -5   4   4    8.63    1.17
   4  -4  -4    2.90    0.51
  -4   4   4    3.35    0.76
   3  -4  -4   18.55    1.18
  -3   4   4   18.02    1.36
   2  -4  -4   89.44    3.81
   2  -4  -4   92.62    3.46
  -2   4   4   92.39    3.93
  -2   4   4   97.84    3.38
   1  -4  -4   13.32    1.01
   1  -4  -4   16.40    0.97
  -1   4   4   15.63    0.83
  -1   4   4   13.47    0.99
   0  -4  -4   13.65    1.01
   0  -4  -4   11.87    0.98
   0  -4  -4   13.14    1.21
   0   4   4   13.69    0.87
   0   4   4   14.95    0.93
   0   4   4   13.70    1.00
  -1  -4  -4    8.63    0.97
  -1  -4  -4    8.25    0.87
  -1  -4  -4   10.83    1.02
   1   4   4    9.74    0.61
   1   4   4    8.57    1.03
   1   4   4    8.69    0.92
  -2  -4  -4    0.60    0.57
  -2  -4  -4    0.98    0.51
   2   4   4    0.17    0.50
   2   4   4   -0.15    0.18
   2   4   4   -0.20    0.46
  -3  -4  -4    0.63    0.70
   3   4   4    0.92    0.70
   4   4   4    0.82    1.44
  -5  -4  -4   -2.21    1.11
   5   4   4    1.77    1.12
  -6  -4  -4   -3.38    1.49
   6   4   4    0.31    1.35
   9  -5  -4   18.47    2.24
  -9   5   4   16.88    2.13
   8  -5  -4    3.06    1.01
  -8   5   4    0.87    1.04
   7  -5  -4    3.54    0.78
  -7   5   4    2.88    0.94
   6  -5  -4   31.43    1.97
  -6   5   4   33.69    2.28
   5  -5  -4   11.64    1.12
  -5   5   4   10.24    1.25
   4  -5  -4   53.21    2.62
  -4   5   4   56.41    2.92
   3  -5  -4    1.34    0.44
  -3   5   4    0.55    0.52
   2  -5  -4   13.37    1.07
   2  -5  -4   14.57    0.87
  -2   5   4   13.11    1.16
  -2   5   4   15.42    0.80
   1  -5  -4    1.59    0.45
  -1   5   4    0.87    0.41
  -1   5   4    1.16    0.46
   0  -5  -4    9.77    0.98
   0  -5  -4    9.86    1.04
   0   5   4    8.50    0.81
   0   5   4    9.81    0.97
  -1  -5  -4   36.96    2.07
  -1  -5  -4   33.91    2.10
   1   5   4   34.91    2.03
   1   5   4   36.65    1.72
   1   5   4   34.64    1.99
  -2  -5  -4   23.12    1.87
   2   5   4   23.78    1.41
   2   5   4   26.61    1.82
   2   5   4   24.36    1.07
  -3  -5  -4    1.77    0.98
  -4  -5  -4   16.40    2.13
   4   5   4   13.23    1.71
  -5  -5  -4    1.61    1.45
   5   5   4   -0.92    1.22
  -6  -5  -4   -2.12    1.84
   6   5   4   -0.30    1.61
   9  -6  -4    2.91    1.36
  -9   6   4    0.26    1.42
   8  -6  -4    1.68    0.99
  -8   6   4    1.67    1.22
   7  -6  -4    0.14    0.76
  -7   6   4    0.04    1.07
   6  -6  -4    1.03    0.65
  -6   6   4   -0.59    0.92
   5  -6  -4    2.35    0.59
  -5   6   4    2.06    0.87
   4  -6  -4    1.47    0.53
  -4   6   4    0.57    0.71
   3  -6  -4   62.51    2.95
  -3   6   4   63.34    2.42
  -3   6   4   57.55    3.12
  -3   6   4   68.03    2.38
   2  -6  -4    0.49    0.41
   2  -6  -4    0.07    0.47
  -2   6   4    0.02    0.42
  -2   6   4    0.38    0.51
   1  -6  -4   10.69    1.09
   1  -6  -4   11.13    1.09
  -1   6   4   13.55    1.16
  -1   6   4   11.54    1.15
   0  -6  -4   -0.66    0.64
   0  -6  -4    0.29    0.49
   0   6   4    0.22    0.57
   0   6   4   -0.04    0.41
  -1  -6  -4    3.97    0.82
   1   6   4    3.36    0.46
   1   6   4    3.83    0.78
  -2  -6  -4    8.56    1.31
   2   6   4    7.73    1.25
  -3  -6  -4   23.02    2.39
   3   6   4   23.47    2.22
  -4  -6  -4    7.86    1.64
   4   6   4    4.38    1.32
  -5  -6  -4    5.76    1.91
   5   6   4   -0.14    1.45
   8  -7  -4    3.23    1.05
   7  -7  -4    2.43    0.93
  -7   7   4    0.88    1.28
   6  -7  -4    8.99    1.34
  -6   7   4    6.07    1.28
   5  -7  -4   14.14    1.92
  -5   7   4   14.88    1.80
   4  -7  -4    0.39    0.61
  -4   7   4    0.46    0.80
   3  -7  -4    0.52    0.59
  -3   7   4    1.33    0.74
  -3   7   4    1.74    0.44
   2  -7  -4    8.47    1.13
   2  -7  -4    7.06    0.95
  -2   7   4    7.57    1.17
  -2   7   4    9.93    1.05
   1  -7  -4   39.10    2.23
   1  -7  -4   38.68    2.27
  -1   7   4   38.39    2.26
  -1   7   4   44.99    2.25
   0  -7  -4   18.71    1.61
   0  -7  -4   21.78    1.72
   0   7   4   18.75    1.66
   0   7   4   18.93    1.35
  -1  -7  -4    6.05    1.18
   1   7   4    6.61    0.80
   1   7   4    8.46    1.17
  -2  -7  -4    5.72    1.30
   2   7   4    5.74    1.08
  -3  -7  -4    2.12    1.34
   3   7   4    0.41    1.08
  -4  -7  -4    4.69    1.85
   4   7   4    2.19    1.48
   8  -8  -4    5.05    1.32
  -8   8   4    9.19    1.87
   7  -8  -4    1.36    1.03
  -7   8   4   -2.90    1.47
   6  -8  -4    4.70    0.98
  -6   8   4    7.74    1.56
   5  -8  -4    9.39    1.44
  -5   8   4   11.46    1.89
   4  -8  -4    0.05    0.76
  -4   8   4    1.54    0.94
   3  -8  -4    3.12    0.81
  -3   8   4    1.60    0.89
   2  -8  -4    3.85    0.85
   2  -8  -4    4.10    0.73
  -2   8   4    4.96    0.80
  -2   8   4    2.62    0.81
  -2   8   4    3.50    0.84
   1  -8  -4    1.35    0.75
   1  -8  -4    0.40    0.90
  -1   8   4    2.42    0.78
  -1   8   4    0.70    0.79
   0  -8  -4    2.85    1.07
   0   8   4    2.38    0.66
   0   8   4    4.71    0.98
  -1  -8  -4   12.10    1.68
   1   8   4   15.52    1.88
  -2  -8  -4    5.07    1.43
   2   8   4    2.15    1.20
  -3  -8  -4   -0.26    1.69
   3   8   4    0.99    1.53
  -7   9   4   13.83    2.23
   6  -9  -4    3.22    1.07
  -6   9   4    1.28    1.30
   5  -9  -4   -0.71    0.91
  -5   9   4    0.31    1.22
   4  -9  -4   -1.06    0.81
  -4   9   4   -0.72    1.08
   3  -9  -4   10.65    1.50
  -3   9   4    6.44    1.27
  -3   9   4    6.18    1.07
   2  -9  -4   17.45    1.92
  -2   9   4   21.84    1.86
  -2   9   4   23.13    1.94
  -2   9   4   23.21    1.94
   1  -9  -4    1.97    1.08
   1  -9  -4    2.42    0.92
  -1   9   4    1.09    0.88
  -1   9   4    3.46    1.09
   0   9   4   -0.60    1.03
  -1  -9  -4   -1.42    1.49
   1   9   4    1.85    1.30
  -2  -9  -4   -0.04    1.69
   2   9   4    1.02    1.46
   6 -10  -4   -2.78    1.25
  -6  10   4   -2.94    1.61
   5 -10  -4    4.65    1.21
  -5  10   4    3.34    1.56
   4 -10  -4    0.89    1.12
  -4  10   4   -2.34    1.16
   3 -10  -4    1.88    1.14
  -3  10   4    3.87    1.17
  -3  10   4    2.36    1.15
   2 -10  -4    5.58    1.28
  -2  10   4    6.89    1.27
  -2  10   4    8.47    1.34
  -1  10   4    5.93    1.34
   0 -10  -4    2.05    1.64
   0  10   4    5.35    1.43
  -1  12  -5    0.10    1.75
  -1  12  -5    0.45    1.26
   1 -12   5   -1.78    1.95
  -2  12  -5    0.51    1.68
  -2  12  -5    1.07    1.05
   2 -12   5   -3.08    1.82
  -3  12  -5   -0.42    0.88
  -3  12  -5    0.90    1.74
   3 -12   5   -1.46    1.85
  -4  12  -5    8.87    2.11
  -4  12  -5    7.41    1.11
   4 -12   5    6.25    2.24
  -5  12  -5    7.83    2.19
  -5  12  -5    5.69    1.02
   5 -12   5    5.81    2.19
   1  11  -5    5.96    1.53
   1  11  -5    6.84    1.26
  -1 -11   5    6.71    1.49
   0  11  -5    7.83    1.59
   0  11  -5    7.62    1.21
  -1  11  -5    1.33    0.94
  -1  11  -5    2.64    1.41
  -1  11  -5    1.87    1.06
   1 -11   5   -1.15    1.52
  -2  11  -5    0.81    1.37
  -2  11  -5   -0.16    0.84
   2 -11   5    1.83    1.63
  -3  11  -5    2.16    1.47
  -3  11  -5    0.91    0.75
   3 -11   5    1.32    1.63
  -4  11  -5    9.49    1.32
  -4  11  -5    9.66    1.95
   4 -11   5   10.65    1.94
  -5  11  -5    8.12    1.00
  -5  11  -5    6.69    1.89
   5 -11   5    7.15    2.05
  -6  11  -5    3.55    1.87
  -6  11  -5    1.88    0.84
   6 -11   5    0.99    1.78
  -7  11  -5    6.13    2.24
   7 -11   5    7.49    2.45
   3  10  -5    3.62    1.85
   3  10  -5    1.61    1.35
  -3 -10   5    1.13    1.66
   2  10  -5   -0.16    1.51
   2  10  -5    3.99    1.17
  -2 -10   5    4.94    1.45
   1  10  -5   -0.42    0.92
   1  10  -5   -2.51    1.24
  -1 -10   5   -0.63    1.35
  -1 -10   5   -0.80    1.10
   0  10  -5    4.69    1.16
   0  10  -5    5.18    0.89
   0 -10   5    3.58    1.42
  -1  10  -5    2.24    0.73
  -1  10  -5    3.54    0.96
   1 -10   5    0.93    1.29
  -2  10  -5    1.45    0.58
   2 -10   5   -1.37    1.47
  -3  10  -5   10.05    1.72
  -3  10  -5   10.47    1.30
  -3  10  -5   11.62    1.07
   3 -10   5   12.29    1.96
  -4  10  -5    0.23    0.50
  -4  10  -5    0.15    1.31
  -4  10  -5   -0.14    0.59
   4 -10   5   -0.54    1.46
  -5  10  -5    9.68    1.15
  -5  10  -5    5.61    1.60
   5 -10   5    6.35    1.68
  -6  10  -5    1.68    1.55
   6 -10   5    0.21    1.69
  -7  10  -5    6.94    1.90
  -7  10  -5    8.44    1.14
   7 -10   5    7.11    1.94
   4   9  -5   -0.46    1.40
   4   9  -5    1.97    1.85
  -4  -9   5    1.97    1.78
   3   9  -5    4.05    1.62
   3   9  -5    8.21    1.36
  -3  -9   5    7.48    1.52
   2   9  -5    1.08    0.89
   2   9  -5    2.12    1.28
  -2  -9   5    1.86    1.45
  -2  -9   5    0.66    1.17
   1   9  -5   -0.09    0.72
   1   9  -5    1.49    1.09
  -1  -9   5   -1.52    1.11
  -1  -9   5    0.52    0.89
   0   9  -5    1.65    0.63
   0  -9   5    0.66    1.09
  -1   9  -5    5.50    0.72
  -1   9  -5    4.22    0.88
   1  -9   5    4.86    1.29
  -2   9  -5   13.72    1.36
  -2   9  -5   16.05    1.07
   2  -9   5   17.63    2.16
  -3   9  -5   12.19    0.98
  -3   9  -5   12.14    1.20
   3  -9   5   13.39    0.97
   3  -9   5   15.17    2.17
  -4   9  -5   11.06    1.09
   4  -9   5    9.87    0.87
  -5   9  -5    0.65    1.11
  -5   9  -5    3.42    0.61
   5  -9   5    1.63    0.55
   5  -9   5   -0.04    1.19
  -6   9  -5    2.80    0.69
  -6   9  -5   -0.26    1.23
   6  -9   5    2.57    1.39
  -7   9  -5    7.81    1.78
   7  -9   5    8.95    2.06
  -8   9  -5    0.75    1.01
  -8   9  -5   -0.13    1.91
   8  -9   5    2.25    2.00
   5   8  -5    9.73    2.00
   5   8  -5    6.71    1.66
  -5  -8   5    5.86    1.85
   4   8  -5    5.25    1.57
   4   8  -5    1.93    1.24
  -4  -8   5    5.55    1.45
   3   8  -5    1.33    0.95
   3   8  -5    3.75    1.28
  -3  -8   5    2.56    1.22
   2   8  -5   24.65    1.85
   2   8  -5   23.79    2.22
  -2  -8   5   20.29    2.05
  -2  -8   5   23.38    2.09
   1   8  -5   10.88    1.61
   1   8  -5    8.74    1.16
  -1  -8   5    9.59    1.35
   0   8  -5    6.68    1.09
   0   8  -5    6.37    0.89
   0  -8   5    7.99    1.17
   0  -8   5    8.13    1.21
  -1   8  -5   19.05    1.51
  -1   8  -5   16.72    1.09
  -1   8  -5   17.03    1.13
   1  -8   5   17.93    1.86
  -2   8  -5    0.60    0.50
  -2   8  -5    0.79    0.34
  -2   8  -5    0.32    0.41
   2  -8   5    0.49    0.84
  -3   8  -5    8.73    0.71
  -3   8  -5    8.62    0.88
  -3   8  -5    9.70    0.93
   3  -8   5    7.72    1.54
   3  -8   5    9.28    0.73
  -4   8  -5    2.51    0.52
   4  -8   5    1.91    1.09
  -5   8  -5    0.94    0.48
  -5   8  -5    0.03    0.99
   5  -8   5    0.50    0.46
   5  -8   5    1.12    1.06
  -6   8  -5    0.13    0.59
  -6   8  -5   -0.24    1.26
   6  -8   5    0.34    0.55
   6  -8   5    0.88    1.31
  -7   8  -5    5.95    1.68
  -7   8  -5    6.25    0.96
   7  -8   5    4.41    0.80
   7  -8   5    4.73    1.63
  -8   8  -5    7.26    2.00
  -8   8  -5    7.08    1.11
   8  -8   5    7.28    1.97
   5   7  -5    4.35    1.29
  -5  -7   5    4.05    1.57
   4   7  -5    0.21    1.02
   4   7  -5   -0.22    1.21
  -4  -7   5   -1.21    1.18
   3   7  -5    1.82    0.78
   3   7  -5    0.87    0.95
  -3  -7   5   -0.48    0.90
  -3  -7   5    2.41    0.90
   2   7  -5    5.64    1.07
   2   7  -5    3.42    0.70
  -2  -7   5    5.14    0.94
  -2  -7   5    4.64    0.99
   1   7  -5    7.07    1.08
   1   7  -5    8.60    0.96
  -1  -7   5    6.24    0.96
  -1  -7   5   10.42    1.32
   0   7  -5   46.38    2.06
   0   7  -5   47.68    2.57
   0   7  -5   46.77    2.16
   0  -7   5   47.14    2.77
   0  -7   5   48.50    2.54
  -1   7  -5   72.42    3.39
  -1   7  -5   74.92    2.87
  -1   7  -5   78.14    2.98
   1  -7   5   68.66    3.71
  -2   7  -5   -0.03    0.26
  -2   7  -5   -0.11    0.41
  -2   7  -5   -0.21    0.31
   2  -7   5   -0.17    0.67
  -3   7  -5    1.03    0.38
  -3   7  -5    0.02    0.37
   3  -7   5    0.03    0.24
   3  -7   5   -0.05    0.83
  -4   7  -5    0.47    0.38
  -4   7  -5    0.81    0.48
   4  -7   5    0.67    0.80
   4  -7   5    0.80    0.32
  -5   7  -5   14.28    1.22
  -5   7  -5   15.56    1.09
   5  -7   5   14.30    2.11
   5  -7   5   15.34    1.02
  -6   7  -5    3.63    0.68
  -6   7  -5    5.12    1.35
   6  -7   5    2.82    1.33
   6  -7   5    4.27    0.64
  -7   7  -5    3.74    1.44
  -7   7  -5    3.44    0.76
   7  -7   5    0.57    1.43
   7  -7   5    1.67    0.69
  -8   7  -5    1.00    0.90
  -8   7  -5    3.83    1.68
   8  -7   5    2.57    0.88
   8  -7   5    1.36    1.55
  -9   7  -5    1.68    1.93
  -9   7  -5   -1.15    1.23
   6   6  -5    5.30    1.44
  -6  -6   5    2.03    1.66
   5   6  -5    2.83    1.14
  -5  -6   5    4.31    1.44
   4   6  -5    2.47    0.92
  -4  -6   5    6.20    1.14
  -4  -6   5    4.21    0.89
   3   6  -5    1.13    0.84
   3   6  -5    0.96    0.66
  -3  -6   5    0.38    0.77
  -3  -6   5    0.51    0.71
   2   6  -5    2.91    0.79
   2   6  -5    2.20    0.59
  -2  -6   5    2.19    0.67
  -2  -6   5    1.93    0.68
   1   6  -5    5.13    0.90
   1   6  -5    6.49    0.77
   1   6  -5    6.72    0.79
  -1  -6   5    7.20    0.95
  -1  -6   5    4.97    0.62
  -1  -6   5    6.65    1.05
   0   6  -5   24.89    1.22
   0   6  -5   21.42    1.54
   0   6  -5   23.28    1.14
   0  -6   5   20.86    1.63
  -1   6  -5    2.69    0.42
  -1   6  -5    2.53    0.52
  -1   6  -5    3.31    0.38
   1  -6   5    2.89    0.66
  -2   6  -5    3.94    0.58
  -2   6  -5    5.79    0.43
  -2   6  -5    4.79    0.41
   2  -6   5    4.52    0.82
  -3   6  -5   19.58    1.19
  -3   6  -5   19.77    0.99
   3  -6   5   19.64    1.78
   3  -6   5   20.63    0.91
  -4   6  -5   41.67    1.87
  -4   6  -5   43.32    2.01
   4  -6   5   39.02    2.65
   4  -6   5   46.33    1.83
  -5   6  -5    2.25    0.59
  -5   6  -5    1.94    0.50
   5  -6   5    2.93    0.48
   5  -6   5    2.95    1.09
  -6   6  -5   10.58    1.04
  -6   6  -5    9.42    1.51
   6  -6   5    9.95    1.00
   6  -6   5    9.00    1.38
  -7   6  -5    8.65    1.66
  -7   6  -5   10.85    1.30
   7  -6   5   11.15    1.27
   7  -6   5   12.56    1.83
  -8   6  -5   -1.25    1.48
  -8   6  -5    1.66    0.94
   8  -6   5   -0.39    0.90
   8  -6   5    0.82    1.57
  -9   6  -5    5.84    1.39
  -9   6  -5    7.13    1.89
   9  -6   5    4.36    1.26
   7   5  -5   -2.15    1.44
  -7  -5   5   -0.87    1.73
   6   5  -5    3.73    1.17
  -6  -5   5    3.46    1.47
  -5  -5   5    5.66    1.23
   4   5  -5   16.15    1.53
  -4  -5   5   14.88    1.72
  -4  -5   5   15.11    1.29
   3   5  -5   -0.34    0.55
   3   5  -5   -0.50    0.68
  -3  -5   5   -0.63    0.63
  -3  -5   5   -0.12    0.48
   2   5  -5    0.67    0.43
   2   5  -5    1.29    0.63
  -2  -5   5    0.68    0.54
  -2  -5   5    0.73    0.48
   1   5  -5    6.46    0.87
   1   5  -5    5.44    0.66
  -1  -5   5    6.05    0.72
  -1  -5   5    5.35    0.80
  -1  -5   5    6.63    0.83
   0   5  -5   15.55    0.78
   0   5  -5   12.57    1.11
   0   5  -5   16.84    0.85
   0  -5   5   15.91    0.80
   0  -5   5   14.59    1.22
  -1   5  -5    0.57    0.17
  -1   5  -5    0.38    0.32
   1  -5   5    1.52    0.51
  -2   5  -5    6.46    0.62
   2  -5   5    7.43    1.04
  -3   5  -5   11.31    0.81
  -3   5  -5   11.15    0.64
   3  -5   5   10.12    1.25
   3  -5   5   11.46    0.60
  -4   5  -5   11.95    0.88
  -4   5  -5   13.05    0.92
   4  -5   5   12.96    1.52
   4  -5   5   15.13    0.84
  -5   5  -5   11.71    1.01
  -5   5  -5    8.71    0.86
   5  -5   5    8.04    0.84
   5  -5   5   12.15    1.54
  -6   5  -5    3.74    1.11
  -6   5  -5    3.46    0.65
   6  -5   5    3.32    1.10
   6  -5   5    3.69    0.66
  -7   5  -5    4.75    1.23
  -7   5  -5    3.43    0.80
   7  -5   5    4.06    1.28
   7  -5   5    6.05    0.90
  -8   5  -5   -0.50    1.49
  -8   5  -5   -0.74    0.98
   8  -5   5    3.88    1.52
  -9   5  -5    5.71    1.39
   9  -5   5    2.38    1.35
   7   4  -5    0.10    1.31
  -7  -4   5   -1.03    1.60
   6   4  -5    1.14    1.06
  -6  -4   5    1.07    1.27
   5   4  -5   20.38    1.79
  -5  -4   5   18.70    1.33
  -5  -4   5   20.63    1.90
   4   4  -5    6.55    0.94
  -4  -4   5    7.09    1.11
  -4  -4   5    8.67    0.88
   3   4  -5    3.19    0.61
   3   4  -5    3.20    0.72
  -3  -4   5    3.10    0.62
  -3  -4   5    2.72    0.53
   2   4  -5    0.17    0.46
   2   4  -5    0.41    0.35
   2   4  -5   -0.04    0.29
  -2  -4   5    0.15    0.43
  -2  -4   5    0.52    0.42
  -2  -4   5    0.17    0.34
   1   4  -5   15.47    0.89
   1   4  -5   15.23    1.12
   1   4  -5   16.84    0.95
  -1  -4   5   13.87    1.05
  -1  -4   5   13.85    1.04
  -1  -4   5   15.58    0.90
   0   4  -5    1.42    0.37
   0   4  -5    1.55    0.22
   0   4  -5    1.39    0.39
   0  -4   5    1.66    0.40
   0  -4   5    1.21    0.21
  -1   4  -5   46.50    2.08
   1  -4   5   46.91    2.37
  -2   4  -5  183.88    6.74
   2  -4   5  178.47    7.20
  -3   4  -5   28.42    1.44
  -3   4  -5   31.59    1.32
   3  -4   5   29.27    1.27
   3  -4   5   31.24    1.93
  -4   4  -5    8.69    0.76
  -4   4  -5   10.33    0.82
   4  -4   5    7.58    1.21
   4  -4   5    9.08    0.74
  -5   4  -5    0.42    0.41
   5  -4   5    1.11    0.79
   5  -4   5    0.19    0.43
  -6   4  -5   -0.22    0.87
  -6   4  -5    0.60    0.50
   6  -4   5   -0.30    0.55
   6  -4   5   -0.40    0.90
  -7   4  -5    4.91    1.17
  -7   4  -5    3.82    0.79
   7  -4   5    1.98    1.13
   7  -4   5    2.62    0.89
  -8   4  -5    3.20    1.08
  -8   4  -5    2.78    1.29
   8  -4   5    1.12    1.10
  -9   4  -5   -0.59    1.34
   9  -4   5    0.23    1.45
   8   3  -5   -0.92    1.54
  -8  -3   5   -1.60    1.86
   7   3  -5    0.13    1.13
  -7  -3   5    0.68    1.33
   6   3  -5   12.89    1.80
  -6  -3   5   13.95    1.91
  -6  -3   5   12.51    1.03
   5   3  -5   17.85    1.63
  -5  -3   5   16.36    1.06
  -5  -3   5   14.15    1.61
   4   3  -5   36.89    2.09
  -4  -3   5   32.50    1.65
  -4  -3   5   36.43    2.16
   3   3  -5   -0.02    0.46
   3   3  -5    0.14    0.38
   3   3  -5    0.01    0.32
  -3  -3   5    0.06    0.28
  -3  -3   5   -0.36    0.45
   2   3  -5   69.35    2.73
   2   3  -5   65.19    2.95
  -2  -3   5   68.99    2.81
  -2  -3   5   65.31    2.94
  -2  -3   5   64.94    2.78
   1   3  -5  137.56    4.81
   1   3  -5  126.01    4.71
   1   3  -5  117.56    4.93
   1   3  -5  128.20    5.02
  -1  -3   5  128.63    4.72
  -1  -3   5  121.86    4.91
   0   3  -5    8.59    0.69
   0   3  -5   10.32    0.70
   0   3  -5    9.81    0.47
   0   3  -5    9.36    0.81
   0  -3   5    9.27    0.51
   0  -3   5    8.88    0.76
   0  -3   5    9.39    0.83
  -1   3  -5    4.40    0.43
  -1   3  -5    4.15    0.50
   1  -3   5    3.92    0.61
   1  -3   5    4.54    0.60
  -2   3  -5   58.15    2.16
   2  -3   5   61.65    2.62
   2  -3   5   51.24    2.65
   2  -3   5   57.30    2.13
   2  -3   5   58.07    2.14
  -3   3  -5    7.57    0.66
  -3   3  -5    9.04    0.64
   3  -3   5    9.39    0.97
   3  -3   5    9.16    0.63
  -4   3  -5    9.00    0.76
  -4   3  -5    8.56    0.84
   4  -3   5    8.02    1.18
  -5   3  -5   73.86    3.26
   5  -3   5   73.83    3.63
   5  -3   5   73.98    3.25
  -6   3  -5   52.42    2.97
  -6   3  -5   56.42    2.78
   6  -3   5   57.68    2.83
   6  -3   5   53.69    3.04
  -7   3  -5    0.18    0.80
  -7   3  -5    1.37    1.02
   7  -3   5    0.59    0.93
   7  -3   5    0.05    0.91
  -8   3  -5   10.99    1.48
   8  -3   5   12.29    1.58
  -9   3  -5   18.80    2.70
   9  -3   5   14.64    2.00
   8   2  -5    0.72    1.48
  -8  -2   5    2.96    1.68
   7   2  -5   -0.52    1.05
  -7  -2   5   -0.87    1.24
   6   2  -5   12.89    1.77
  -6  -2   5   13.00    0.98
  -6  -2   5   13.13    1.71
   5   2  -5    0.91    0.60
  -5  -2   5    0.97    0.33
  -5  -2   5    0.88    0.69
   4   2  -5   48.84    2.49
  -4  -2   5   49.94    2.17
  -4  -2   5   52.94    2.56
   3   2  -5    7.83    0.82
   3   2  -5    7.95    0.74
   3   2  -5    9.66    0.88
  -3  -2   5    8.61    0.84
  -3  -2   5    8.00    0.61
   2   2  -5   17.36    0.98
   2   2  -5   17.98    1.03
   2   2  -5   19.04    1.15
  -2  -2   5   17.21    1.05
  -2  -2   5   16.59    0.94
   1   2  -5   17.32    0.96
   1   2  -5   14.89    0.97
   1   2  -5   16.22    0.82
   1   2  -5   16.99    0.88
  -1  -2   5   15.72    1.03
  -1  -2   5   15.45    0.86
   0   2  -5  224.03    8.35
   0   2  -5  228.49    8.14
   0   2  -5  241.89    8.38
   0  -2   5  231.45    8.17
   0  -2   5  233.09    8.53
   0  -2   5  227.95    8.44
  -1   2  -5  102.30    3.83
  -1   2  -5   94.26    3.87
   1  -2   5   97.04    3.55
   1  -2   5   98.76    3.81
   1  -2   5  100.84    3.54
   1  -2   5   98.58    4.00
  -2   2  -5   39.37    1.55
  -2   2  -5   39.17    1.78
   2  -2   5   38.37    1.59
   2  -2   5   33.78    1.66
   2  -2   5   39.64    1.55
  -3   2  -5    5.41    0.68
  -3   2  -5    3.86    0.52
  -3   2  -5    4.82    0.57
   3  -2   5    4.48    0.56
   3  -2   5    3.50    0.58
  -4   2  -5   17.82    1.24
  -4   2  -5   17.36    1.13
  -4   2  -5   17.44    1.17
   4  -2   5   16.78    1.16
   4  -2   5   16.59    1.36
  -5   2  -5   11.45    1.03
   5  -2   5   11.16    1.19
   5  -2   5   10.51    1.28
  -6   2  -5   37.72    2.29
  -6   2  -5   32.00    2.17
   6  -2   5   43.06    2.38
   6  -2   5   38.85    2.24
  -7   2  -5    1.22    0.91
  -7   2  -5   -0.30    0.94
   7  -2   5   -0.16    0.98
   7  -2   5    2.74    0.91
  -8   2  -5    9.56    1.49
   8  -2   5    9.53    1.62
   8   1  -5    5.78    1.41
  -8  -1   5    5.26    1.55
   7   1  -5   19.52    2.06
  -7  -1   5   17.37    1.27
  -7  -1   5   16.20    1.98
   6   1  -5   35.70    2.27
  -6  -1   5   34.38    2.19
  -6  -1   5   33.50    1.75
   5   1  -5   17.13    1.43
  -5  -1   5   14.52    1.34
  -5  -1   5   17.07    1.07
   4   1  -5    7.50    0.86
   4   1  -5    7.54    0.86
  -4  -1   5    7.73    0.85
  -4  -1   5    7.84    0.66
   3   1  -5   27.16    1.47
   3   1  -5   28.39    1.49
   3   1  -5   28.74    1.46
  -3  -1   5   28.23    1.37
  -3  -1   5   29.01    1.47
   2   1  -5   12.69    0.81
   2   1  -5   13.45    0.86
   2   1  -5   13.63    0.83
   2   1  -5   11.97    0.87
  -2  -1   5   11.66    0.73
  -2  -1   5   12.19    0.90
   1   1  -5    0.10    0.19
   1   1  -5   -0.03    0.24
   1   1  -5    0.10    0.18
   1   1  -5    0.21    0.16
  -1  -1   5    0.36    0.22
  -1  -1   5    0.43    0.26
   0   1  -5    8.07    0.53
   0   1  -5    8.34    0.49
   0   1  -5    9.83    0.62
   0  -1   5    8.25    0.59
   0  -1   5    8.47    0.50
   0  -1   5    8.28    0.58
  -1   1  -5    1.85    0.30
  -1   1  -5    2.09    0.29
  -1   1  -5    2.69    0.35
   1  -1   5    2.54    0.32
   1  -1   5    2.76    0.30
   1  -1   5    2.72    0.42
   1  -1   5    2.67    0.35
  -2   1  -5    4.36    0.47
  -2   1  -5    3.46    0.44
  -2   1  -5    4.01    0.43
   2  -1   5    3.61    0.47
   2  -1   5    5.45    0.48
   2  -1   5    4.47    0.48
   2  -1   5    4.41    0.61
  -3   1  -5    6.43    0.63
  -3   1  -5    6.44    0.76
  -3   1  -5    6.55    0.63
   3  -1   5    8.91    0.85
   3  -1   5    7.99    0.74
   3  -1   5    6.94    0.71
  -4   1  -5    1.57    0.42
  -4   1  -5    1.61    0.43
   4  -1   5    1.69    0.49
  -5   1  -5    0.13    0.47
  -5   1  -5   -0.79    0.54
   5  -1   5    1.28    0.60
   5  -1   5   -0.56    0.54
  -6   1  -5   33.95    2.22
  -6   1  -5   32.24    1.91
   6  -1   5   32.34    2.31
   6  -1   5   30.33    1.92
  -7   1  -5   56.72    3.43
   7  -1   5   61.64    3.48
  -8   1  -5    1.73    1.32
   8  -1   5    2.86    1.45
   8   0  -5   11.61    1.55
  -8   0   5   11.16    1.57
  -8   0   5   12.68    1.30
   7   0  -5    6.15    1.08
  -7   0   5    9.50    1.06
  -7   0   5    8.87    1.26
   6   0  -5   40.88    2.42
  -6   0   5   40.22    2.03
  -6   0   5   40.37    2.24
   5   0  -5    0.34    0.48
   5   0  -5    0.80    0.51
  -5   0   5    0.86    0.38
  -5   0   5    1.19    0.51
   4   0  -5   22.85    1.31
   4   0  -5   24.59    1.29
   4   0  -5   23.43    1.43
  -4   0   5   24.11    1.31
  -4   0   5   24.64    1.31
   3   0  -5    7.40    0.64
   3   0  -5    7.79    0.70
   3   0  -5    8.81    0.64
  -3   0   5    6.54    0.59
  -3   0   5    7.16    0.61
   2   0  -5   29.22    1.47
   2   0  -5   28.64    1.51
   2   0  -5   29.78    1.34
   2   0  -5   29.50    1.26
  -2   0   5   28.80    1.44
  -2   0   5   27.77    1.37
   1   0  -5   64.79    2.62
   1   0  -5   66.09    2.51
   1   0  -5   68.89    2.74
  -1   0   5   67.85    2.65
  -1   0   5   65.08    2.59
   0   0  -5    8.63    0.57
   0   0  -5    9.44    0.62
   0   0  -5    8.92    0.53
   0   0   5    8.78    0.58
   0   0   5    9.09    0.58
   0   0   5    9.15    0.56
  -1   0  -5   47.83    1.98
  -1   0  -5   48.50    2.02
  -1   0  -5   46.68    1.99
   1   0   5   48.36    2.01
   1   0   5   49.22    1.98
   1   0   5   46.75    2.01
   1   0   5   48.79    1.98
  -2   0  -5   80.13    3.01
  -2   0  -5   80.76    3.14
  -2   0  -5   73.16    3.15
   2   0   5   76.15    3.42
   2   0   5   79.07    3.16
   2   0   5   79.47    3.11
  -3   0  -5   25.23    1.11
  -3   0  -5   21.10    1.33
   3   0   5   25.24    1.36
   3   0   5   21.82    1.37
  -4   0  -5   21.43    1.00
  -4   0  -5   18.89    1.40
   4   0   5   18.91    1.39
   4   0   5   18.96    1.31
  -5   0  -5   29.04    1.99
  -5   0  -5   34.56    1.45
   5   0   5   32.86    1.75
   5   0   5   30.77    2.01
  -6   0  -5   27.56    2.12
   6   0   5   28.70    2.16
  -7   0  -5    8.28    1.45
   7   0   5    3.80    1.26
  -8   0  -5    1.40    1.39
   8   0   5    0.64    1.49
   9  -1  -5   14.99    1.89
   8  -1  -5   41.60    2.88
  -8   1   5   45.08    2.46
   7  -1  -5    0.61    0.82
  -7   1   5   -1.15    0.60
  -7   1   5    1.37    0.82
   6  -1  -5   -1.36    0.60
  -6   1   5    0.48    0.60
  -6   1   5    0.15    0.49
   5  -1  -5    4.31    0.70
  -5   1   5    4.98    0.72
  -5   1   5    6.20    0.74
   4  -1  -5    0.29    0.36
   4  -1  -5    0.03    0.30
   4  -1  -5    0.20    0.30
  -4   1   5    1.21    0.36
  -4   1   5    0.10    0.26
   3  -1  -5   21.89    1.26
   3  -1  -5   22.72    1.05
   3  -1  -5   25.08    1.02
  -3   1   5   23.28    1.28
   2  -1  -5   10.37    0.50
   2  -1  -5   10.57    0.61
   2  -1  -5   10.29    0.70
  -2   1   5    9.99    0.71
  -2   1   5   11.26    0.62
  -2   1   5   11.27    0.83
   1  -1  -5   98.65    3.65
   1  -1  -5  102.35    3.87
   1  -1  -5   97.70    3.96
  -1   1   5  101.28    3.86
  -1   1   5   98.10    3.85
  -1   1   5  102.62    3.68
   0  -1  -5   34.90    1.61
   0  -1  -5   34.46    1.50
   0  -1  -5   35.76    1.59
   0   1   5   35.58    1.53
   0   1   5   34.20    1.45
   0   1   5   35.62    1.57
  -1  -1  -5    3.18    0.44
  -1  -1  -5    2.58    0.38
  -1  -1  -5    2.79    0.42
   1   1   5    3.91    0.52
   1   1   5    3.79    0.45
   1   1   5    3.92    0.51
   1   1   5    3.63    0.35
  -2  -1  -5    2.85    0.39
  -2  -1  -5    1.74    0.40
   2   1   5    2.98    0.44
  -3  -1  -5    0.72    0.24
  -3  -1  -5    1.24    0.44
   3   1   5    0.78    0.42
   3   1   5    0.85    0.38
  -4  -1  -5   16.34    0.79
  -4  -1  -5   14.12    1.32
   4   1   5   16.76    1.07
   4   1   5   13.00    1.35
  -5  -1  -5   28.85    2.05
  -5  -1  -5   27.79    1.42
   5   1   5   29.81    1.39
   5   1   5   26.97    2.09
  -6  -1  -5    0.07    0.97
   6   1   5    0.83    1.00
  -7  -1  -5   -0.58    1.27
   7   1   5    0.32    1.30
   9  -2  -5    0.92    1.37
  -9   2   5   -0.09    0.98
   8  -2  -5   11.61    1.79
  -8   2   5   13.65    1.53
   7  -2  -5   11.50    1.52
  -7   2   5   10.79    1.25
  -7   2   5   12.84    1.34
   6  -2  -5   27.97    1.82
  -6   2   5   28.95    1.50
  -6   2   5   28.92    1.78
   5  -2  -5    0.36    0.34
   5  -2  -5    0.52    0.47
   5  -2  -5    0.57    0.25
  -5   2   5    0.74    0.46
  -5   2   5    0.52    0.31
   4  -2  -5   14.57    1.04
  -4   2   5   13.67    1.03
   3  -2  -5   32.12    1.60
  -3   2   5   31.78    1.67
   2  -2  -5   16.27    0.70
   2  -2  -5   15.67    0.98
  -2   2   5   15.32    1.00
  -2   2   5   17.84    0.75
   1  -2  -5  135.75    4.88
   1  -2  -5  129.37    5.09
   1  -2  -5  130.95    5.23
  -1   2   5  138.11    4.81
  -1   2   5  135.41    5.10
  -1   2   5  131.15    5.07
   0  -2  -5   61.27    2.66
   0  -2  -5   65.19    2.60
   0  -2  -5   61.25    2.69
   0   2   5   65.73    2.49
  -1  -2  -5  115.54    4.61
  -1  -2  -5  110.71    4.63
  -1  -2  -5  118.32    4.53
   1   2   5  114.70    4.67
   1   2   5  128.39    4.62
   1   2   5  120.48    4.39
  -2  -2  -5   38.69    2.06
  -2  -2  -5   42.07    1.81
   2   2   5   42.55    1.73
   2   2   5   39.82    2.05
  -3  -2  -5   39.81    1.67
  -3  -2  -5   35.50    2.09
   3   2   5   37.55    2.11
   3   2   5   40.09    1.75
  -4  -2  -5   16.10    1.49
   4   2   5   12.75    1.46
  -5  -2  -5    0.66    0.93
   5   2   5    1.98    0.89
  -6  -2  -5    1.42    1.10
   6   2   5   -0.93    1.12
  -7  -2  -5   11.07    1.77
   7   2   5   13.54    1.85
   9  -3  -5   -1.27    1.31
  -9   3   5   -0.43    1.06
   8  -3  -5    2.26    1.09
  -8   3   5    1.61    0.88
   7  -3  -5   -0.45    0.71
  -7   3   5    0.96    0.70
   6  -3  -5    0.28    0.58
  -6   3   5   -0.28    0.60
   5  -3  -5   16.31    1.28
  -5   3   5   19.15    1.43
   4  -3  -5   16.22    1.14
  -4   3   5   17.15    1.28
   3  -3  -5    0.53    0.31
  -3   3   5    0.24    0.34
   2  -3  -5    0.55    0.21
   2  -3  -5    0.12    0.30
  -2   3   5    0.42    0.33
  -2   3   5    0.07    0.13
   1  -3  -5   12.32    0.75
   1  -3  -5   12.04    0.87
  -1   3   5   10.34    0.80
  -1   3   5   11.90    0.64
   0  -3  -5    1.25    0.33
   0  -3  -5    1.10    0.41
   0  -3  -5    1.40    0.51
   0   3   5    1.51    0.29
   0   3   5    1.34    0.32
   0   3   5    1.05    0.39
  -1  -3  -5   74.92    3.12
  -1  -3  -5   72.26    3.17
  -1  -3  -5   66.96    3.14
   1   3   5   72.00    3.20
   1   3   5   76.19    2.84
  -2  -3  -5    2.52    0.60
  -2  -3  -5    3.37    0.55
   2   3   5    2.62    0.41
   2   3   5    2.55    0.58
  -3  -3  -5    1.81    0.68
  -3  -3  -5    2.07    0.50
   3   3   5    3.15    0.68
   3   3   5    2.35    0.42
  -4  -3  -5    0.40    0.73
   4   3   5    0.83    0.77
  -5  -3  -5    1.22    1.02
   5   3   5    0.69    1.01
  -6  -3  -5    3.26    1.39
   6   3   5    4.21    1.34
   9  -4  -5    2.11    1.31
  -9   4   5    4.44    1.20
   8  -4  -5   13.17    1.76
  -8   4   5    7.82    1.20
   7  -4  -5   10.16    1.38
  -7   4   5   10.43    1.51
   6  -4  -5    8.75    1.12
  -6   4   5    5.86    0.99
   5  -4  -5    7.55    0.92
  -5   4   5    6.50    1.03
   4  -4  -5    0.47    0.41
  -4   4   5   -0.63    0.52
   3  -4  -5    3.21    0.56
  -3   4   5    3.00    0.58
   2  -4  -5    5.45    0.52
   2  -4  -5    4.43    0.68
  -2   4   5    4.07    0.65
  -2   4   5    3.90    0.33
   1  -4  -5    5.00    0.68
   1  -4  -5    4.38    0.57
  -1   4   5    4.15    0.53
  -1   4   5    4.25    0.61
   0  -4  -5   35.73    1.90
   0  -4  -5   35.27    1.81
   0   4   5   36.22    1.68
   0   4   5   34.35    1.87
  -1  -4  -5   17.24    1.46
  -1  -4  -5   18.07    1.32
  -1  -4  -5   17.03    1.29
   1   4   5   17.87    1.35
   1   4   5   17.45    1.00
  -2  -4  -5    7.68    1.11
  -2  -4  -5    8.57    1.13
   2   4   5    7.89    1.18
   2   4   5    8.48    0.59
   2   4   5   10.47    1.14
  -3  -4  -5   -0.73    0.73
   3   4   5    0.22    0.70
  -4  -4  -5   -0.08    0.94
   4   4   5    0.60    0.92
  -5  -4  -5    1.48    1.28
   5   4   5    0.80    1.20
  -6  -4  -5    5.67    1.78
   6   4   5    5.72    1.68
   9  -5  -5    6.72    1.43
   8  -5  -5    0.76    1.07
  -8   5   5   -1.67    1.03
   7  -5  -5   12.82    1.51
  -7   5   5    9.55    1.37
   6  -5  -5   21.48    1.66
  -6   5   5   21.56    1.99
   5  -5  -5    1.36    0.55
  -5   5   5    2.14    0.77
   4  -5  -5    1.88    0.54
  -4   5   5    3.53    0.80
   3  -5  -5    3.49    0.67
  -3   5   5    6.08    1.00
   2  -5  -5   14.31    0.88
   2  -5  -5   12.48    1.11
  -2   5   5   11.59    1.09
  -2   5   5   14.63    0.74
   1  -5  -5   16.25    1.29
   1  -5  -5   17.56    1.19
  -1   5   5   17.87    1.05
  -1   5   5   16.23    1.16
   0  -5  -5   20.04    1.47
   0  -5  -5   21.15    1.45
   0   5   5   21.69    1.45
   0   5   5   21.32    1.24
  -1  -5  -5    0.36    0.66
  -1  -5  -5   -1.80    0.83
   1   5   5    0.55    0.29
   1   5   5    1.91    0.86
   1   5   5    0.96    0.58
  -2  -5  -5   -0.33    0.77
   2   5   5    0.55    0.68
   2   5   5    0.00    0.27
   3   5   5   16.55    1.87
  -4  -5  -5    1.04    1.22
   4   5   5    1.15    1.05
  -5  -5  -5   -0.49    1.60
   5   5   5   -2.09    1.36
   8  -6  -5    8.64    1.34
  -8   6   5   11.92    1.67
   7  -6  -5    5.62    1.07
  -7   6   5    3.45    1.21
   6  -6  -5   11.62    1.47
  -6   6   5   16.87    1.92
   4  -6  -5    4.63    0.75
   3  -6  -5   12.57    1.27
  -3   6   5   17.28    1.47
   2  -6  -5   16.17    1.31
   2  -6  -5   15.72    1.12
  -2   6   5   13.25    1.30
  -2   6   5   15.29    0.97
   1  -6  -5   18.29    1.43
   1  -6  -5   18.08    1.44
  -1   6   5   17.39    1.32
  -1   6   5   16.60    1.43
   0  -6  -5   24.39    1.75
   0  -6  -5   22.61    1.67
   0   6   5   21.40    1.36
   0   6   5   23.81    1.67
  -1  -6  -5   -0.23    0.80
   1   6   5   -0.24    0.35
   1   6   5    0.25    0.85
  -2  -6  -5    0.20    1.03
   2   6   5   -0.22    0.85
  -3  -6  -5    0.40    1.22
   3   6   5    2.16    1.10
  -4  -6  -5   14.54    1.95
   4   6   5   19.70    2.63
   8  -7  -5    4.81    1.21
  -8   7   5    2.03    1.47
   7  -7  -5    0.20    0.94
  -7   7   5    2.80    1.34
   6  -7  -5   13.04    1.59
  -6   7   5   18.21    2.01
   5  -7  -5    2.33    0.80
  -5   7   5    3.19    1.00
   4  -7  -5   10.12    1.27
   3  -7  -5   12.27    1.67
  -3   7   5   16.90    1.60
  -3   7   5   17.32    1.37
   2  -7  -5   29.28    1.98
   2  -7  -5   27.92    1.67
  -2   7   5   28.79    1.92
   1  -7  -5   -0.43    0.73
   1  -7  -5   -0.60    1.12
  -1   7   5   -0.51    1.13
  -1   7   5    0.86    0.59
   0  -7  -5    1.04    0.74
   0  -7  -5   -0.94    0.90
   0   7   5   -0.05    0.78
   0   7   5    0.63    0.53
  -1  -7  -5    1.73    1.09
   1   7   5    2.06    0.54
   1   7   5    1.81    0.93
  -2  -7  -5   22.74    2.50
   2   7   5   22.63    2.21
  -3  -7  -5    8.35    1.67
   3   7   5    8.12    1.59
   7  -8  -5    7.92    1.28
  -7   8   5   10.57    1.78
   6  -8  -5    1.40    0.97
  -6   8   5    2.92    1.26
   5  -8  -5    1.61    0.90
  -5   8   5    3.62    1.07
   4  -8  -5    4.70    0.95
   3  -8  -5   16.94    1.71
  -3   8   5   16.02    2.21
   2  -8  -5    3.93    0.85
   2  -8  -5    4.56    0.97
  -2   8   5    3.63    0.88
  -2   8   5    2.68    0.85
  -2   8   5    4.34    0.84
   1  -8  -5   -0.91    0.95
   1  -8  -5    0.49    0.83
  -1   8   5    0.85    0.87
  -1   8   5   -0.53    0.67
   0  -8  -5    2.63    1.17
   0   8   5    0.77    1.00
   0   8   5    0.99    0.65
  -1  -8  -5    0.66    1.28
   1   8   5   -0.46    1.10
  -2  -8  -5    4.53    1.58
   2   8   5    4.81    1.46
   6  -9  -5   -1.04    1.11
  -6   9   5    2.12    1.42
   5  -9  -5   14.48    1.90
  -5   9   5   20.10    2.25
   4  -9  -5    6.87    1.18
  -4   9   5    7.86    1.36
   3  -9  -5    1.45    0.99
  -3   9   5    2.37    1.09
  -3   9   5   -0.60    0.98
   2  -9  -5   -0.09    0.98
  -2   9   5    1.02    0.99
  -2   9   5    0.73    0.99
   1  -9  -5    5.54    1.26
  -1   9   5    5.67    1.30
  -1   9   5    5.93    0.97
   0  -9  -5   10.26    1.69
   0   9   5   11.83    1.57
  -1  -9  -5    9.90    1.78
   1   9   5    9.40    1.61
   5 -10  -5    0.19    1.28
  -5  10   5    3.75    1.52
   4 -10  -5   -0.70    1.18
  -4  10   5    1.51    1.38
   3 -10  -5    0.55    1.16
  -3  10   5    3.29    1.18
  -3  10   5    2.12    1.29
   2 -10  -5   13.63    1.99
  -2  10   5   11.01    1.47
  -2  10   5   12.30    1.69
  -1  10   5   -0.38    1.42
  -1  12  -6    1.56    1.84
  -1  12  -6   -2.37    1.21
   1 -12   6   -1.60    2.02
  -2  12  -6   -2.26    1.04
  -2  12  -6    0.53    1.83
   2 -12   6   -0.41    1.96
  -3  12  -6    2.32    1.79
  -3  12  -6    2.17    1.00
   3 -12   6   -0.82    1.92
  -4  12  -6    0.56    0.89
  -4  12  -6   -2.49    1.80
   4 -12   6    2.19    1.95
  -5  12  -6    6.32    2.16
  -5  12  -6    6.44    1.10
   5 -12   6    5.90    2.40
   1  11  -6    8.15    1.72
   0  11  -6   -0.80    1.19
   0 -11   6   -1.44    1.74
  -1  11  -6   17.04    2.11
   1 -11   6   19.58    2.46
  -2  11  -6    7.51    1.14
   2 -11   6    7.17    1.98
  -3  11  -6    0.38    0.76
  -3  11  -6    0.71    1.50
   3 -11   6   -0.53    1.69
  -4  11  -6    1.72    1.64
   4 -11   6   -0.36    1.83
  -5  11  -6   -1.42    1.58
  -5  11  -6    2.09    0.81
   5 -11   6    2.29    1.75
  -6  11  -6   17.23    1.70
  -6  11  -6    9.33    2.23
   6 -11   6   14.98    2.44
   3  10  -6    3.37    1.85
   3  10  -6   -1.32    1.44
  -3 -10   6    2.11    1.67
   2  10  -6    2.08    1.34
   2  10  -6   -2.37    1.50
  -2 -10   6    0.04    1.30
   1  10  -6    2.23    0.96
   1  10  -6    3.63    1.25
  -1 -10   6    0.67    1.55
  -1 -10   6    2.19    1.14
   0  10  -6    4.00    0.85
   0  10  -6    1.99    1.07
   0 -10   6    2.36    1.47
  -1  10  -6   -0.38    0.85
  -1  10  -6    0.71    0.68
   1 -10   6    1.39    1.40
  -2  10  -6   -1.09    0.73
   2 -10   6    0.42    1.29
  -3  10  -6    1.42    0.76
   3 -10   6    1.86    1.45
  -4  10  -6    2.96    0.86
   4 -10   6    1.53    1.61
  -5  10  -6    1.28    1.35
   5 -10   6    2.48    1.51
  -6  10  -6    1.11    0.78
  -6  10  -6   -1.33    1.65
   6 -10   6    0.78    1.80
  -7  10  -6    4.30    1.09
  -7  10  -6    7.90    2.06
   7 -10   6    1.94    2.09
   4   9  -6    3.49    1.56
   4   9  -6    3.58    1.85
  -4  -9   6    4.17    1.84
   3   9  -6   21.09    2.29
   3   9  -6   19.20    2.72
  -3  -9   6   16.50    1.96
   2   9  -6    2.85    1.22
   2   9  -6    0.63    0.95
  -2  -9   6    0.72    1.08
  -2  -9   6    0.79    1.32
   1   9  -6    6.20    0.92
   1   9  -6    7.53    1.26
  -1  -9   6    7.50    1.38
  -1  -9   6    6.33    1.16
   0   9  -6    2.67    1.00
   0   9  -6    3.39    0.71
   0  -9   6    6.78    1.36
  -1   9  -6    3.09    0.56
  -1   9  -6    3.02    0.87
   1  -9   6    1.94    1.13
  -2   9  -6    1.38    0.47
  -2   9  -6    2.71    0.71
   2  -9   6    0.76    1.14
  -3   9  -6    0.84    0.55
   3  -9   6    1.20    1.24
  -4   9  -6   12.04    0.95
  -4   9  -6   13.97    1.16
   4  -9   6   18.83    2.42
  -5   9  -6   22.53    1.50
   5  -9   6   19.77    2.70
  -6   9  -6    3.26    1.39
  -6   9  -6    4.96    0.91
   6  -9   6    2.27    1.46
  -7   9  -6    5.59    1.02
  -7   9  -6    6.65    1.82
   7  -9   6    3.47    1.93
  -8   9  -6    1.93    2.09
  -8   9  -6    1.50    1.07
   8  -9   6   -0.61    2.14
   5   8  -6    5.62    2.07
   5   8  -6    2.06    1.57
  -5  -8   6    0.49    1.69
   4   8  -6   -0.01    1.21
   4   8  -6   -0.49    1.52
  -4  -8   6    0.67    1.36
   3   8  -6    3.18    1.00
   3   8  -6    3.62    1.34
  -3  -8   6    1.99    1.13
   2   8  -6    5.50    0.93
   2   8  -6    4.59    1.17
  -2  -8   6    6.10    1.20
  -2  -8   6    6.42    1.19
   1   8  -6   -0.48    0.80
   1   8  -6   -0.67    0.58
  -1  -8   6    0.85    0.75
  -1  -8   6    0.50    1.00
   0   8  -6   19.90    1.58
   0   8  -6   14.36    1.61
   0   8  -6   17.38    1.21
   0  -8   6   15.77    1.78
  -1   8  -6   24.44    1.30
  -1   8  -6   23.78    1.21
  -1   8  -6   22.51    1.66
   1  -8   6   20.25    2.13
  -2   8  -6    1.88    0.40
  -2   8  -6    2.00    0.56
  -2   8  -6    1.48    0.36
   2  -8   6    0.94    0.95
  -3   8  -6   24.10    1.14
  -3   8  -6   23.54    1.52
  -3   8  -6   24.75    1.33
   3  -8   6   24.79    2.36
  -4   8  -6   -0.36    0.47
   4  -8   6   -1.15    1.12
   4  -8   6    0.08    0.31
  -5   8  -6    2.50    0.58
   5  -8   6    3.29    1.45
  -6   8  -6    0.78    0.69
  -6   8  -6    1.54    1.18
   6  -8   6    1.27    1.27
  -7   8  -6    8.14    1.08
  -7   8  -6    4.43    1.68
   7  -8   6    9.70    1.92
  -8   8  -6    1.29    1.85
  -8   8  -6   -1.10    0.96
   8  -8   6    3.03    2.02
   5   7  -6   32.60    3.09
   5   7  -6   34.22    2.84
  -5  -7   6   35.67    3.14
   4   7  -6    1.97    1.28
  -4  -7   6    2.58    1.21
   3   7  -6   -1.70    0.76
   3   7  -6   -0.56    0.98
  -3  -7   6    1.36    1.00
  -3  -7   6    2.10    0.97
   2   7  -6   10.60    1.28
   2   7  -6   11.97    1.67
  -2  -7   6   11.48    1.44
  -2  -7   6   11.28    1.50
   1   7  -6    3.48    0.87
   1   7  -6    3.84    0.65
  -1  -7   6    4.54    0.92
  -1  -7   6    3.21    0.75
   0   7  -6   26.59    1.35
   0   7  -6   24.74    1.25
   0   7  -6   23.05    1.70
   0  -7   6   21.57    1.89
  -1   7  -6  102.74    3.75
  -1   7  -6   95.40    4.25
  -1   7  -6  102.42    3.66
   1  -7   6   92.27    4.63
  -2   7  -6  124.89    4.22
  -2   7  -6  109.83    4.74
   2  -7   6  110.88    5.37
  -3   7  -6    4.60    0.41
  -3   7  -6    3.92    0.48
  -3   7  -6    3.66    0.57
   3  -7   6    3.47    0.88
   3  -7   6    5.15    0.43
  -4   7  -6    7.81    0.73
  -4   7  -6    7.56    0.86
   4  -7   6    6.40    1.24
   4  -7   6    7.69    0.58
  -5   7  -6    2.07    0.52
   5  -7   6    2.04    1.03
  -6   7  -6    0.53    0.64
   6  -7   6    1.85    0.54
  -7   7  -6    0.77    0.74
  -7   7  -6   -3.07    1.40
   7  -7   6   -0.27    0.68
   7  -7   6    3.11    1.45
  -8   7  -6   38.68    3.39
  -8   7  -6   32.02    2.35
   8  -7   6   31.21    3.50
   6   6  -6    3.51    1.67
   6   6  -6    2.78    1.41
  -6  -6   6    1.23    1.58
   5   6  -6    2.85    1.36
   5   6  -6   -0.32    1.04
  -5  -6   6    0.35    1.23
   4   6  -6   -0.30    0.83
   4   6  -6    2.18    1.06
  -4  -6   6    1.06    0.98
  -4  -6   6    1.52    0.86
   3   6  -6   10.47    1.36
   3   6  -6    9.79    1.23
  -3  -6   6   13.33    1.55
  -3  -6   6    7.96    1.25
   2   6  -6   13.08    1.45
   2   6  -6   11.40    1.13
  -2  -6   6   14.27    1.37
  -2  -6   6    9.72    1.28
   1   6  -6    4.02    0.58
   1   6  -6    4.24    0.75
   1   6  -6    3.47    0.52
  -1  -6   6    4.68    0.76
  -1  -6   6    4.03    0.57
  -1  -6   6    4.49    0.83
   0   6  -6    0.84    0.31
   0   6  -6    0.51    0.27
   0   6  -6    0.97    0.48
   0  -6   6    0.41    0.59
  -1   6  -6   50.92    1.83
  -1   6  -6   46.41    2.38
  -1   6  -6   50.08    1.86
   1  -6   6   46.19    2.73
  -2   6  -6   47.96    2.24
   2  -6   6   45.38    2.75
  -3   6  -6   10.22    0.86
   3  -6   6    7.75    1.20
  -4   6  -6    0.31    0.36
  -4   6  -6    0.57    0.36
   4  -6   6    0.45    0.26
   4  -6   6    0.82    0.83
  -5   6  -6    8.61    0.93
  -5   6  -6    9.34    0.98
   5  -6   6    7.85    1.45
   5  -6   6    9.02    1.06
  -6   6  -6    3.46    0.70
   6  -6   6    3.62    0.59
   6  -6   6    2.31    1.14
  -7   6  -6    5.88    0.96
   7  -6   6    6.17    0.90
  -8   6  -6    3.62    1.67
  -8   6  -6   -0.81    0.97
   8  -6   6   -1.27    0.94
   8  -6   6   -0.16    1.56
   7   5  -6    5.78    1.59
  -7  -5   6    4.34    1.86
   6   5  -6    2.42    1.23
  -6  -5   6    4.70    1.42
   5   5  -6    2.69    1.20
  -5  -5   6    1.04    1.06
  -5  -5   6    1.84    0.76
   4   5  -6    5.24    1.09
   4   5  -6    5.03    0.92
  -4  -5   6    6.13    1.02
  -4  -5   6    4.70    0.77
   3   5  -6    4.79    0.73
   3   5  -6    3.70    0.84
  -3  -5   6    4.06    0.83
  -3  -5   6    3.86    0.71
   2   5  -6   64.60    2.88
   2   5  -6   65.96    3.19
  -2  -5   6   66.32    3.16
  -2  -5   6   63.03    3.01
   1   5  -6   47.89    2.04
   1   5  -6   45.00    2.36
  -1  -5   6   46.96    2.02
  -1  -5   6   43.59    2.36
   0   5  -6    1.57    0.26
   0   5  -6    1.68    0.47
   0   5  -6    2.19    0.34
   0  -5   6    1.23    0.52
   0  -5   6    1.12    0.24
  -1   5  -6    4.41    0.59
   1  -5   6    3.71    0.70
  -2   5  -6   28.12    1.46
   2  -5   6   26.52    1.86
  -3   5  -6    8.42    0.75
   3  -5   6   10.70    1.29
  -4   5  -6   17.38    1.10
  -4   5  -6   15.70    0.96
   4  -5   6   14.59    1.67
   4  -5   6   16.34    0.90
  -5   5  -6    0.76    0.43
  -5   5  -6   -0.77    0.55
   5  -5   6   -0.76    0.39
   5  -5   6   -1.04    0.85
  -6   5  -6    3.35    0.70
   6  -5   6    2.71    1.16
   6  -5   6    3.79    0.62
  -7   5  -6   16.37    1.62
  -7   5  -6   14.63    2.12
   7  -5   6   19.04    2.24
   7  -5   6   18.92    1.64
  -8   5  -6   -0.20    1.94
  -8   5  -6    2.68    1.01
   8  -5   6    0.98    1.24
   8  -5   6    3.57    1.96
   7   4  -6   -1.83    1.32
  -7  -4   6   -0.75    2.05
   6   4  -6    3.64    1.10
  -6  -4   6    3.65    1.25
   5   4  -6    3.59    1.05
   5   4  -6    2.35    0.84
  -5  -4   6    3.39    0.67
  -5  -4   6    1.69    0.87
   4   4  -6   14.32    1.38
   4   4  -6   14.06    1.49
  -4  -4   6   11.79    1.35
  -4  -4   6   13.80    1.40
   3   4  -6    7.06    0.95
   3   4  -6    6.07    0.78
  -3  -4   6    6.67    0.79
  -3  -4   6    6.89    1.03
   2   4  -6    7.42    1.03
   2   4  -6    8.02    0.78
  -2  -4   6    8.08    0.87
  -2  -4   6    7.71    0.92
  -2  -4   6    7.90    0.89
   1   4  -6    1.40    0.32
   1   4  -6    1.69    0.47
  -1  -4   6    0.94    0.33
  -1  -4   6    0.61    0.36
   0   4  -6   37.87    1.42
   0   4  -6   35.87    1.81
   0  -4   6   37.90    1.44
   0  -4   6   32.45    1.88
  -1   4  -6   82.58    3.35
   1  -4   6   81.68    3.69
  -2   4  -6    0.27    0.25
   2  -4   6   -0.02    0.47
  -3   4  -6    7.51    0.52
  -3   4  -6    6.12    0.61
   3  -4   6    7.37    0.50
   3  -4   6    5.34    0.93
  -4   4  -6   12.23    0.98
  -4   4  -6   14.54    0.96
   4  -4   6   11.78    1.42
   4  -4   6   14.99    0.90
  -5   4  -6   29.62    1.70
   5  -4   6   28.65    1.59
   5  -4   6   30.15    2.32
  -6   4  -6   21.83    1.53
   6  -4   6   19.95    1.52
   6  -4   6   18.24    2.14
  -7   4  -6   -1.05    1.15
  -7   4  -6    1.17    0.85
   7  -4   6   -1.08    0.83
   7  -4   6    0.99    1.16
  -8   4  -6    4.08    1.17
  -8   4  -6    2.84    1.58
   8  -4   6    3.64    1.23
   8  -4   6    4.44    1.48
   7   3  -6    7.40    1.44
  -7  -3   6    6.45    1.56
   6   3  -6    0.03    0.87
  -6  -3   6    1.12    1.00
  -6  -3   6    0.96    0.55
   5   3  -6    4.65    0.84
  -5  -3   6    4.52    0.60
  -5  -3   6    3.72    0.89
   4   3  -6  191.69    7.59
   4   3  -6  197.01    7.57
  -4  -3   6  186.62    7.19
  -4  -3   6  192.36    7.59
   3   3  -6   15.89    1.16
   3   3  -6   17.70    1.31
  -3  -3   6   16.47    1.07
  -3  -3   6   14.96    1.23
   2   3  -6   32.74    1.90
   2   3  -6   39.57    1.96
  -2  -3   6   38.97    1.82
  -2  -3   6   37.74    1.83
  -2  -3   6   39.36    1.93
   1   3  -6   51.81    2.39
   1   3  -6   54.47    2.15
  -1  -3   6   55.89    2.20
  -1  -3   6   51.96    2.40
   0   3  -6   13.43    0.90
   0   3  -6   15.81    0.67
   0   3  -6   15.68    1.19
   0  -3   6   15.01    1.04
   0  -3   6   15.11    0.70
   0  -3   6   14.25    1.16
  -1   3  -6   16.16    0.92
   1  -3   6   15.71    1.17
  -2   3  -6   87.19    3.59
   2  -3   6   95.26    3.30
   2  -3   6   87.50    3.96
   2  -3   6   95.12    3.35
  -3   3  -6    1.09    0.33
  -3   3  -6    1.68    0.34
   3  -3   6    0.79    0.52
   3  -3   6    1.76    0.32
   3  -3   6    1.71    0.32
  -4   3  -6    1.63    0.42
  -4   3  -6    1.95    0.48
   4  -3   6    1.12    0.48
   4  -3   6    1.93    0.72
  -5   3  -6   52.64    2.56
   5  -3   6   52.60    2.94
   5  -3   6   52.71    2.54
  -6   3  -6    0.06    0.59
   6  -3   6   -0.41    0.72
   6  -3   6   -0.36    0.93
  -7   3  -6    1.69    0.91
  -7   3  -6    2.15    1.16
   7  -3   6    1.55    1.00
   7  -3   6    1.34    1.09
  -8   3  -6   14.46    2.18
   8  -3   6    9.40    1.47
   8   2  -6   -0.83    1.36
  -8  -2   6   -0.66    1.64
   7   2  -6    3.41    1.20
  -7  -2   6    0.19    1.23
  -7  -2   6    2.38    0.68
  -6  -2   6    0.92    0.47
  -6  -2   6   -0.80    0.85
   5   2  -6    2.14    0.75
   5   2  -6    0.53    0.59
  -5  -2   6    1.48    0.41
  -5  -2   6    0.98    0.69
   4   2  -6   30.19    1.79
   4   2  -6   28.54    1.75
  -4  -2   6   29.43    1.49
  -4  -2   6   29.72    1.73
   3   2  -6   13.11    1.07
   3   2  -6   14.13    1.01
  -3  -2   6   14.03    0.89
  -3  -2   6   12.18    1.00
   2   2  -6   23.56    1.40
   2   2  -6   22.50    1.32
   2   2  -6   25.13    1.34
  -2  -2   6   24.00    1.24
  -2  -2   6   23.89    1.30
   1   2  -6   79.07    3.60
   1   2  -6   90.08    3.33
   1   2  -6   92.52    3.60
  -1  -2   6   88.05    3.60
  -1  -2   6   90.70    3.39
  -1  -2   6   84.50    3.51
   0   2  -6   25.74    1.28
   0   2  -6   24.93    1.23
   0   2  -6   26.13    1.09
   0  -2   6   25.54    1.37
   0  -2   6   27.41    1.13
   0  -2   6   25.00    1.35
  -1   2  -6    0.72    0.23
  -1   2  -6    0.18    0.23
   1  -2   6    0.02    0.15
   1  -2   6    0.25    0.31
   1  -2   6    0.31    0.16
   1  -2   6    0.28    0.31
  -2   2  -6    0.65    0.25
  -2   2  -6    0.45    0.32
   2  -2   6    1.17    0.27
   2  -2   6    0.95    0.37
   2  -2   6    0.96    0.22
  -3   2  -6  240.79    9.66
  -3   2  -6  278.81    9.58
   3  -2   6  274.47    9.65
   3  -2   6  245.50    9.97
   3  -2   6  281.86    9.57
  -4   2  -6   52.66    2.52
   4  -2   6   55.93    2.51
   4  -2   6   53.03    2.74
  -5   2  -6    0.75    0.53
   5  -2   6   -0.22    0.60
   5  -2   6    0.33    0.70
  -6   2  -6   -1.66    0.70
   6  -2   6    1.13    0.79
   6  -2   6   -1.22    0.84
  -7   2  -6    2.91    1.04
   7  -2   6    0.98    1.21
  -8   2  -6    0.27    1.32
   8  -2   6    0.23    1.73
   8   1  -6    0.79    1.21
  -8  -1   6   -0.48    1.75
   7   1  -6   -0.80    0.90
  -7  -1   6    0.96    1.10
  -7  -1   6    0.29    0.58
   6   1  -6   46.79    2.79
  -6  -1   6   49.70    2.39
  -6  -1   6   55.90    2.80
   5   1  -6    2.46    0.65
   5   1  -6    1.75    0.58
  -5  -1   6    1.78    0.61
  -5  -1   6    1.38    0.40
   4   1  -6   30.58    1.71
   4   1  -6   29.30    1.63
  -4  -1   6   30.16    1.64
  -4  -1   6   32.24    1.57
   3   1  -6    2.73    0.46
   3   1  -6    4.99    0.72
  -3  -1   6    3.23    0.50
   2   1  -6   16.84    1.13
   2   1  -6   19.80    1.02
   2   1  -6   19.67    1.16
  -2  -1   6   18.04    1.02
  -2  -1   6   18.30    1.14
   1   1  -6    3.23    0.47
   1   1  -6    2.32    0.33
   1   1  -6    2.53    0.37
  -1  -1   6    1.99    0.35
  -1  -1   6    2.33    0.34
  -1  -1   6    2.11    0.41
   0   1  -6   31.22    1.47
   0   1  -6   31.25    1.39
   0   1  -6   30.87    1.34
   0  -1   6   32.19    1.37
   0  -1   6   31.79    1.51
   0  -1   6   32.20    1.47
  -1   1  -6   24.65    1.13
  -1   1  -6   27.03    1.24
  -1   1  -6   22.77    1.18
   1  -1   6   25.39    1.11
   1  -1   6   23.97    1.13
   1  -1   6   23.86    1.20
   1  -1   6   23.07    1.28
  -2   1  -6    3.28    0.49
  -2   1  -6    3.56    0.48
   2  -1   6    4.32    0.61
   2  -1   6    4.35    0.54
   2  -1   6    3.92    0.51
  -3   1  -6   28.33    1.43
  -3   1  -6   27.64    1.33
  -3   1  -6   26.35    1.47
   3  -1   6   26.06    1.61
   3  -1   6   25.52    1.44
   3  -1   6   28.02    1.42
  -4   1  -6    8.31    0.92
  -4   1  -6    7.85    0.76
   4  -1   6    8.39    1.01
   4  -1   6    6.62    1.08
  -5   1  -6    7.14    1.02
   5  -1   6    8.06    1.20
   5  -1   6    7.60    0.98
  -6   1  -6   -0.52    0.82
  -6   1  -6    1.58    0.84
   6  -1   6    1.25    0.92
   6  -1   6    0.70    0.78
  -7   1  -6    2.32    1.08
   7  -1   6    1.30    1.17
  -8   1  -6    2.28    1.54
   8  -1   6    0.25    1.53
   8   0  -6   -0.64    1.06
  -8   0   6   -0.03    0.84
   7   0  -6    0.01    0.87
  -7   0   6    0.40    0.58
  -7   0   6   -0.02    0.90
   6   0  -6   11.08    1.26
   6   0  -6    6.99    1.01
  -6   0   6    9.98    0.94
  -6   0   6    8.78    1.20
   5   0  -6    2.18    0.56
   5   0  -6    1.50    0.56
   5   0  -6    1.03    0.59
  -5   0   6    2.44    0.49
  -5   0   6    1.78    0.52
   4   0  -6   15.73    1.07
   4   0  -6   14.82    1.13
   4   0  -6   17.55    1.07
  -4   0   6   16.57    1.04
  -4   0   6   18.93    1.12
   3   0  -6    8.26    0.62
   3   0  -6    7.11    0.72
   3   0  -6    6.62    0.71
  -3   0   6    7.44    0.67
   2   0  -6   21.88    1.16
   2   0  -6   22.66    1.03
   2   0  -6   22.10    1.15
  -2   0   6   21.65    1.16
  -2   0   6   20.89    1.15
  -2   0   6   23.48    1.29
   1   0  -6   10.74    0.61
   1   0  -6   11.44    0.72
  -1   0   6   10.47    0.73
  -1   0   6   11.97    0.80
  -1   0   6   11.40    0.73
   0   0  -6    3.02    0.38
   0   0  -6    2.57    0.40
   0   0  -6    3.58    0.43
   0   0   6    2.07    0.32
   0   0   6    3.05    0.42
   0   0   6    2.72    0.38
  -1   0  -6   62.17    2.63
  -1   0  -6   64.91    2.64
  -1   0  -6   67.78    2.65
   1   0   6   65.88    2.61
   1   0   6   67.31    2.61
   1   0   6   63.58    2.66
   1   0   6   63.34    2.64
  -2   0  -6  112.94    4.54
  -2   0  -6  127.12    4.41
   2   0   6  121.79    4.48
   2   0   6  101.16    4.68
   2   0   6  115.52    4.53
  -3   0  -6    9.27    0.89
  -3   0  -6   10.95    0.71
   3   0   6    9.21    1.56
   3   0   6   10.36    0.96
  -4   0  -6   -0.04    0.52
  -4   0  -6    1.23    0.34
   4   0   6    0.25    0.56
   4   0   6    0.83    0.63
  -5   0  -6    2.52    0.73
   5   0   6    2.77    0.71
   5   0   6    2.03    0.80
  -6   0  -6    2.80    1.00
   6   0   6    1.56    1.00
  -7   0  -6    8.65    1.45
   7   0   6    5.39    1.45
  -8   0  -6   -0.01    1.71
   8   0   6    0.16    1.67
   8  -1  -6   -0.81    1.16
  -8   1   6    1.43    0.80
   7  -1  -6   12.79    1.60
  -7   1   6   14.85    1.37
  -7   1   6   11.47    1.35
   6  -1  -6   12.05    1.15
   6  -1  -6   14.47    1.36
  -6   1   6   10.45    1.10
  -6   1   6   11.01    1.10
   5  -1  -6    3.78    0.54
   5  -1  -6    2.80    0.49
   5  -1  -6    2.82    0.58
  -5   1   6    3.11    0.47
  -5   1   6    2.70    0.53
   4  -1  -6    1.04    0.38
   4  -1  -6    0.76    0.29
   4  -1  -6   -0.02    0.31
  -4   1   6    0.09    0.30
   3  -1  -6    0.84    0.32
   3  -1  -6    0.93    0.20
   3  -1  -6    0.94    0.29
  -3   1   6    0.97    0.33
   2  -1  -6   16.57    1.02
   2  -1  -6   18.28    0.92
   2  -1  -6   17.73    0.79
  -2   1   6   18.87    0.94
  -2   1   6   16.56    1.03
   1  -1  -6  119.17    4.35
   1  -1  -6  117.75    4.58
  -1   1   6  119.01    4.56
  -1   1   6  114.01    4.55
  -1   1   6  124.08    4.40
   0  -1  -6   21.10    1.17
   0  -1  -6   21.14    1.04
   0  -1  -6   19.93    1.10
   0   1   6   20.04    1.05
   0   1   6   20.00    1.00
   0   1   6   21.70    1.12
  -1  -1  -6    6.81    0.66
  -1  -1  -6    7.65    0.67
  -1  -1  -6    7.39    0.67
   1   1   6    7.47    0.57
   1   1   6    7.59    0.67
  -2  -1  -6    9.33    0.89
  -2  -1  -6    9.52    0.73
   2   1   6   11.28    0.89
   2   1   6   11.07    0.92
  -3  -1  -6    3.43    0.54
  -3  -1  -6    2.00    0.53
   3   1   6    3.79    0.57
   3   1   6    2.59    0.56
  -4  -1  -6    4.17    0.79
  -4  -1  -6    4.43    0.60
   4   1   6    4.17    0.76
   4   1   6    4.56    0.70
  -5  -1  -6   15.64    1.97
   5   1   6   18.49    1.76
  -6  -1  -6    1.79    1.09
   6   1   6    1.17    1.11
  -7  -1  -6   -0.59    1.38
   7   1   6    2.17    1.41
   8  -2  -6    5.87    1.22
  -8   2   6    3.66    0.95
   7  -2  -6   25.95    1.96
   6  -2  -6   17.81    1.53
   6  -2  -6   18.38    1.13
  -6   2   6   17.70    1.39
   5  -2  -6   -0.51    0.50
  -5   2   6    0.44    0.44
   4  -2  -6    0.78    0.39
  -4   2   6    0.58    0.41
   3  -2  -6   89.31    3.73
  -3   2   6   92.32    3.80
   2  -2  -6    6.16    0.65
   2  -2  -6    6.08    0.42
  -2   2   6    6.65    0.66
  -2   2   6    6.33    0.50
   1  -2  -6    0.49    0.30
   1  -2  -6    0.12    0.22
  -1   2   6   -0.42    0.24
  -1   2   6    0.26    0.20
   0  -2  -6  145.84    6.11
   0  -2  -6  162.49    6.09
   0   2   6  167.85    5.84
   0   2   6  160.01    5.93
  -1  -2  -6    0.79    0.35
  -1  -2  -6    0.64    0.37
  -1  -2  -6    0.13    0.41
   1   2   6    0.67    0.38
   1   2   6    0.53    0.22
  -2  -2  -6    7.01    0.89
  -2  -2  -6    5.89    0.74
   2   2   6    6.60    0.63
   2   2   6    6.49    0.83
  -3  -2  -6    9.12    1.12
  -3  -2  -6    7.38    0.86
   3   2   6   11.71    1.18
   3   2   6   11.21    0.92
  -4  -2  -6    5.12    0.97
   4   2   6    5.14    0.94
   4   2   6    4.01    0.60
  -5  -2  -6   16.19    1.90
   5   2   6   17.27    1.86
  -6  -2  -6    6.58    1.41
   6   2   6    9.42    1.37
  -7  -2  -6   -0.48    1.62
   7   2   6    1.31    1.63
   8  -3  -6    5.07    1.12
  -8   3   6    2.79    0.90
   7  -3  -6    0.09    0.83
  -7   3   6   -0.33    0.74
   6  -3  -6    3.08    1.06
  -6   3   6    2.91    0.69
   5  -3  -6    0.50    0.52
  -5   3   6   -0.10    0.46
   4  -3  -6    7.88    0.87
  -4   3   6    7.99    0.85
   3  -3  -6    5.37    0.72
  -3   3   6    6.15    0.76
   2  -3  -6   25.54    1.50
   2  -3  -6   27.52    1.18
  -2   3   6   25.90    1.10
  -2   3   6   26.45    1.49
   1  -3  -6    3.51    0.46
   1  -3  -6    3.31    0.51
  -1   3   6    3.24    0.48
  -1   3   6    3.18    0.41
   0  -3  -6    2.46    0.43
   0  -3  -6    1.95    0.43
   0   3   6    1.82    0.43
   0   3   6    2.23    0.38
   0   3   6    2.02    0.35
  -1  -3  -6    1.65    0.49
  -1  -3  -6    0.61    0.44
  -1  -3  -6    1.83    0.60
   1   3   6    0.80    0.46
   1   3   6    0.87    0.29
  -2  -3  -6   25.07    1.64
  -2  -3  -6   25.87    1.56
   2   3   6   25.72    1.31
   2   3   6   23.73    1.63
  -3  -3  -6   41.17    2.53
   3   3   6   42.72    2.44
   3   3   6   45.21    1.98
  -4  -3  -6    0.33    0.91
  -5  -3  -6   -1.14    1.05
   5   3   6   -1.60    1.05
  -6  -3  -6    0.86    1.43
   6   3   6    0.28    1.33
   8  -4  -6    1.57    1.14
  -8   4   6    2.71    0.95
   7  -4  -6    2.93    0.86
  -7   4   6    3.33    0.89
   6  -4  -6    6.16    0.95
  -6   4   6    4.63    0.99
   5  -4  -6   25.40    1.64
  -5   4   6   24.54    1.69
   4  -4  -6   33.03    1.92
  -4   4   6   36.17    2.05
   3  -4  -6    8.94    0.94
  -3   4   6   10.09    1.03
   2  -4  -6    6.17    0.76
   2  -4  -6    7.11    0.66
  -2   4   6    6.07    0.79
  -2   4   6    6.05    0.45
   1  -4  -6   20.62    1.38
   1  -4  -6   21.83    1.26
  -1   4   6   20.66    1.26
  -1   4   6   20.32    1.04
   0  -4  -6    5.60    0.78
   0  -4  -6    6.63    0.89
   0   4   6    6.75    0.69
   0   4   6    6.57    0.90
  -1  -4  -6    3.79    0.72
  -1  -4  -6    2.90    0.59
   1   4   6    3.19    0.43
   1   4   6    2.67    0.68
  -2  -4  -6    2.88    0.73
   2   4   6    3.05    0.77
  -3  -4  -6   19.77    1.80
  -4  -4  -6   19.97    2.09
   4   4   6   18.68    2.08
  -5  -4  -6   -0.72    1.35
   5   4   6   -2.28    1.28
   8  -5  -6    2.15    1.13
  -8   5   6    0.41    1.06
   7  -5  -6    5.31    1.01
  -7   5   6    2.38    1.05
   6  -5  -6    2.31    0.70
  -6   5   6    1.24    0.87
   5  -5  -6    4.36    0.86
  -5   5   6    5.38    1.02
   4  -5  -6   22.69    1.57
  -4   5   6   24.26    1.74
   3  -5  -6    4.36    0.68
  -3   5   6    4.49    0.77
   2  -5  -6    1.73    0.52
   2  -5  -6    2.61    0.49
  -2   5   6    1.91    0.50
  -2   5   6    2.08    0.30
   1  -5  -6    7.16    1.04
   1  -5  -6    8.14    1.09
  -1   5   6   10.21    0.81
  -1   5   6    9.01    0.94
  -1   5   6    8.57    1.02
   0  -5  -6    9.12    1.09
   0  -5  -6    7.29    1.10
   0   5   6    6.10    0.90
   0   5   6    7.04    0.74
  -1  -5  -6   12.39    1.40
   1   5   6   12.65    1.34
   1   5   6   12.09    0.86
  -2  -5  -6   10.43    1.61
   2   5   6    9.53    0.98
   2   5   6    9.37    1.24
  -3  -5  -6   -0.72    1.02
   3   5   6    1.13    1.01
  -4  -5  -6    6.95    1.49
   4   5   6    9.04    1.53
  -5  -5  -6   -2.42    1.67
   5   5   6   -1.93    1.49
   8  -6  -6   -0.25    1.10
  -8   6   6   -1.94    1.16
   7  -6  -6    2.92    0.93
  -7   6   6    0.59    0.98
   6  -6  -6  129.15    5.77
  -6   6   6  140.39    6.12
   5  -6  -6    1.43    0.70
  -5   6   6    1.03    0.87
  -4   6   6   13.87    1.52
   3  -6  -6   -0.47    0.60
  -3   6   6   -0.02    0.64
   2  -6  -6   10.03    1.00
   2  -6  -6    7.31    0.99
  -2   6   6    7.47    1.00
   1  -6  -6    0.16    0.59
   1  -6  -6    0.13    0.67
  -1   6   6   -1.02    0.59
  -1   6   6    0.46    0.51
   0  -6  -6    4.32    0.92
   0   6   6    2.20    0.53
  -1  -6  -6   24.19    2.13
   1   6   6   25.39    1.96
   1   6   6   22.74    1.29
  -2  -6  -6    8.30    1.36
   2   6   6    8.45    1.33
  -3  -6  -6   -1.12    1.31
   3   6   6   -1.14    1.23
  -4  -6  -6   -1.43    1.70
   4   6   6   -0.21    1.45
   7  -7  -6   -1.56    1.02
  -7   7   6    0.04    1.25
   6  -7  -6    7.78    1.19
  -6   7   6    6.49    1.42
   5  -7  -6   20.02    1.85
  -5   7   6   20.74    2.12
   4  -7  -6    0.91    0.76
  -4   7   6   -0.23    0.84
   3  -7  -6    0.53    0.68
  -3   7   6   -0.41    0.74
   2  -7  -6    3.46    0.78
   2  -7  -6    2.88    0.79
  -2   7   6    2.42    0.71
   1  -7  -6    2.23    0.86
   1  -7  -6    0.20    0.71
  -1   7   6   -0.79    0.59
  -1   7   6    0.23    0.73
   0  -7  -6   12.85    1.46
   0  -7  -6   15.12    1.64
   0   7   6   11.22    1.77
   0   7   6   11.42    1.16
  -1  -7  -6    5.78    1.33
   1   7   6    6.04    1.23
  -2  -7  -6    5.68    1.64
   2   7   6    8.15    1.38
  -3  -7  -6   -1.26    1.64
   3   7   6    0.20    1.43
   7  -8  -6    1.89    1.19
  -7   8   6    1.37    1.56
   6  -8  -6    2.04    1.11
  -6   8   6    4.41    1.29
   5  -8  -6    0.79    0.95
  -5   8   6    0.82    1.20
   4  -8  -6    0.57    0.92
  -4   8   6   -0.31    0.93
   3  -8  -6    3.34    0.96
  -3   8   6    4.72    1.07
   2  -8  -6   17.23    1.81
  -2   8   6   14.22    1.87
   1  -8  -6    3.34    1.33
   1  -8  -6    2.50    1.03
  -1   8   6    3.85    1.13
  -1   8   6    3.49    0.81
   0  -8  -6   -0.75    1.24
   0   8   6    2.89    1.06
  -1  -8  -6    4.45    1.55
   1   8   6    4.15    1.26
  -2  -8  -6   -0.72    1.66
   6  -9  -6    2.40    1.23
  -6   9   6    3.13    1.56
   5  -9  -6    1.76    1.18
  -5   9   6    0.73    1.30
   4  -9  -6    1.28    1.17
  -4   9   6   -1.14    1.11
   3  -9  -6    1.28    1.08
  -3   9   6   -0.93    0.97
  -3   9   6    1.26    1.12
   2  -9  -6    1.42    1.05
  -2   9   6    3.46    1.12
  -2   9   6    1.36    0.97
   1  -9  -6    3.67    1.19
  -1   9   6    4.84    1.24
  -1   9   6    5.85    1.53
   0   9   6    7.85    1.58
  -1  12  -7    0.99    1.22
   1 -12   7    0.53    2.12
  -2  12  -7    1.29    1.14
   2 -12   7   -0.94    1.99
  -3  12  -7   14.85    2.48
  -3  12  -7   16.58    1.83
   3 -12   7   11.92    2.53
  -4  12  -7    2.48    1.01
  -4  12  -7    3.59    2.04
   4 -12   7    1.38    2.11
  -5  12  -7    0.80    1.01
  -5  12  -7   -2.44    1.89
   5 -12   7   -0.72    2.20
   1  11  -7   -2.18    1.49
   0  11  -7    0.26    1.20
   0 -11   7    4.95    1.88
  -1  11  -7    6.71    1.25
   1 -11   7    8.01    2.03
  -2  11  -7    3.25    0.99
   2 -11   7    7.33    1.96
  -3  11  -7    5.71    0.98
   3 -11   7    6.22    1.88
  -4  11  -7   22.53    1.86
   4 -11   7   24.93    3.03
  -5  11  -7    1.70    1.81
  -5  11  -7    2.47    0.83
   5 -11   7   -2.00    1.92
  -6  11  -7    2.62    0.96
  -6  11  -7   -1.29    1.96
   6 -11   7   -0.96    2.02
   2  10  -7    2.49    1.44
  -2 -10   7    1.76    1.32
   1  10  -7   -0.80    1.24
  -1 -10   7    0.80    1.67
   0  10  -7    0.81    1.03
  -1  10  -7    9.31    1.32
   1 -10   7   11.30    1.91
  -2  10  -7    0.89    0.74
   2 -10   7   -2.06    1.40
  -3  10  -7   -0.40    0.66
   3 -10   7    1.06    1.59
   4 -10   7    5.85    1.66
  -5  10  -7    0.20    0.68
   5 -10   7   -2.96    1.71
  -6  10  -7    8.24    1.90
   6 -10   7    5.59    1.98
  -7  10  -7    4.97    2.08
  -7  10  -7    9.50    1.31
   7 -10   7   12.36    2.63
   3   9  -7    4.59    1.52
   3   9  -7    4.12    1.19
  -3  -9   7    1.59    1.45
   2   9  -7   -1.20    0.96
   2   9  -7    0.88    1.18
  -2  -9   7   -0.24    1.14
  -2  -9   7    0.49    2.29
   1   9  -7   19.43    1.60
   1   9  -7   12.89    1.96
  -1  -9   7   19.79    2.31
   0   9  -7   10.38    1.55
   0   9  -7    7.42    0.90
   0  -9   7    7.33    1.44
  -1   9  -7    0.54    0.50
  -1   9  -7   -0.13    0.87
   1  -9   7   -1.55    1.16
  -2   9  -7    0.07    0.65
   2  -9   7    1.37    1.10
  -3   9  -7   13.73    1.30
   3  -9   7   15.73    2.04
  -4   9  -7    6.71    1.00
   4  -9   7    2.65    1.43
  -5   9  -7   12.76    1.24
   5  -9   7   15.33    2.61
  -6   9  -7    0.69    0.79
  -6   9  -7   -2.05    1.57
   6  -9   7    0.27    1.69
  -7   9  -7   27.49    2.05
  -7   9  -7   21.61    2.78
   7  -9   7   27.52    3.33
   4   8  -7   -0.21    1.59
   4   8  -7    2.44    1.19
  -4  -8   7    2.14    1.34
   3   8  -7    5.97    1.39
   3   8  -7    4.55    1.00
  -3  -8   7    4.03    1.18
  -3  -8   7    3.94    1.27
   2   8  -7   -0.23    1.02
   2   8  -7   -0.53    0.73
  -2  -8   7   -0.83    0.92
  -2  -8   7    0.01    1.15
   1   8  -7   -1.51    0.80
   1   8  -7    0.39    0.60
  -1  -8   7   -1.13    1.00
   0   8  -7    2.42    0.79
   0  -8   7    1.23    1.00
  -1   8  -7   11.89    1.30
  -1   8  -7   13.39    0.84
   1  -8   7   13.24    1.86
  -2   8  -7   11.29    1.17
   2  -8   7   13.21    1.67
  -3   8  -7    1.45    0.51
   3  -8   7    1.78    1.11
  -4   8  -7    3.81    0.60
   4  -8   7    4.25    1.29
  -5   8  -7   29.68    1.72
   5  -8   7   25.92    2.82
  -6   8  -7    6.13    0.88
   6  -8   7    5.13    1.67
  -7   8  -7    0.63    0.88
  -7   8  -7    1.35    1.69
   7  -8   7   -0.57    1.76
  -8   8  -7    4.47    2.05
  -8   8  -7   -0.34    1.08
   8  -8   7   -1.44    1.96
   5   7  -7   21.32    2.91
   5   7  -7   29.57    2.70
  -5  -7   7   26.73    2.80
   4   7  -7    1.81    1.21
   4   7  -7    0.95    1.27
  -4  -7   7    1.63    1.19
   3   7  -7    9.78    1.47
   3   7  -7    9.35    1.14
  -3  -7   7    9.50    1.32
  -3  -7   7    8.62    1.43
   2   7  -7   46.58    2.37
   2   7  -7   45.70    2.81
  -2  -7   7   41.19    2.73
  -2  -7   7   45.20    2.70
   1   7  -7    0.57    0.76
   1   7  -7    2.52    0.55
   1   7  -7    1.79    0.47
  -1  -7   7    1.01    0.61
  -1  -7   7    1.59    0.87
   0   7  -7    9.35    1.21
   0   7  -7    8.32    0.72
   0   7  -7    9.91    0.77
   0  -7   7    9.88    1.39
  -1   7  -7   43.24    2.34
   1  -7   7   42.20    2.70
  -2   7  -7   57.86    2.77
   2  -7   7   60.90    3.42
  -3   7  -7   17.91    1.24
   3  -7   7   16.79    1.78
  -4   7  -7    6.62    0.86
   4  -7   7    8.05    1.47
  -5   7  -7   15.08    1.24
   5  -7   7   14.60    2.27
   5  -7   7   15.49    0.95
  -6   7  -7   11.39    1.61
   6  -7   7   15.36    2.20
  -7   7  -7    0.13    1.56
  -7   7  -7   -0.34    0.79
   7  -7   7   -1.47    1.59
  -8   7  -7   19.26    2.06
  -8   7  -7   24.53    3.27
   8  -7   7   22.66    3.56
   6   6  -7    2.61    1.73
   6   6  -7    1.48    1.39
  -6  -6   7   -0.29    1.52
   5   6  -7    6.08    1.51
   5   6  -7    6.83    1.28
  -5  -6   7    6.49    1.43
   4   6  -7    0.88    1.06
   4   6  -7    0.59    0.77
  -4  -6   7    0.24    0.83
  -4  -6   7    0.39    1.03
   3   6  -7    2.89    0.72
   3   6  -7    4.11    1.00
  -3  -6   7    3.98    0.88
  -3  -6   7    5.92    0.97
   2   6  -7    2.69    0.81
   2   6  -7    2.55    0.59
  -2  -6   7    2.09    0.76
  -2  -6   7    3.35    0.78
   1   6  -7   24.04    1.39
   1   6  -7   23.45    1.72
  -1  -6   7   24.37    1.36
  -1  -6   7   21.36    1.69
   0   6  -7    2.16    0.51
   0   6  -7    2.21    0.31
   0   6  -7    2.23    0.31
   0  -6   7    2.04    0.66
  -1   6  -7    5.72    0.74
   1  -6   7    3.72    0.84
  -2   6  -7    6.28    0.75
   2  -6   7   10.13    1.34
  -3   6  -7   51.55    2.42
   3  -6   7   51.43    3.09
  -4   6  -7   16.60    0.88
  -4   6  -7   16.77    1.15
   4  -6   7   17.08    0.81
   4  -6   7   15.15    1.81
  -5   6  -7   -0.03    0.51
   5  -6   7    0.18    1.03
   5  -6   7   -0.05    0.39
  -6   6  -7    1.90    0.84
   6  -6   7    2.72    1.32
   6  -6   7    2.52    0.58
  -7   6  -7    7.16    1.11
  -7   6  -7    3.45    1.54
   7  -6   7    6.42    1.61
   7  -6   7    4.53    0.86
  -8   6  -7   11.94    1.75
  -8   6  -7   12.16    2.07
   8  -6   7    8.78    2.08
   6   5  -7    2.75    1.53
   6   5  -7    1.11    1.18
  -6  -5   7   -0.08    1.38
   5   5  -7    5.77    1.24
  -5  -5   7    3.19    1.18
  -5  -5   7    2.28    0.79
   4   5  -7   22.80    1.77
   4   5  -7   21.90    1.93
  -4  -5   7   19.28    1.57
  -4  -5   7   23.09    1.95
   3   5  -7   44.59    2.56
   3   5  -7   44.71    2.32
  -3  -5   7   45.42    2.51
  -3  -5   7   43.04    2.33
   2   5  -7   16.27    1.36
   2   5  -7   12.65    1.04
  -2  -5   7   13.20    1.26
  -2  -5   7   16.39    1.32
   1   5  -7    8.64    0.70
   1   5  -7    8.81    1.00
  -1  -5   7   10.68    0.82
  -1  -5   7    8.13    1.06
   0   5  -7    6.90    0.47
   0   5  -7    6.65    0.83
   0   5  -7    8.30    0.47
   0  -5   7    7.24    0.97
   0  -5   7    6.47    0.48
  -1   5  -7   51.07    2.37
   1  -5   7   50.26    2.76
  -2   5  -7    0.61    0.34
   2  -5   7    0.01    0.64
  -3   5  -7    4.96    0.63
   3  -5   7    4.55    0.87
  -4   5  -7   31.51    1.70
  -4   5  -7   35.25    1.48
   4  -5   7   29.52    2.28
   4  -5   7   31.69    1.42
  -5   5  -7    0.50    0.46
  -5   5  -7   -0.73    0.72
   5  -5   7   -0.84    0.44
   5  -5   7    0.17    0.96
  -6   5  -7   26.17    1.79
   6  -5   7   24.21    1.58
  -7   5  -7    0.07    0.84
  -7   5  -7   -0.53    1.38
   7  -5   7    0.83    1.38
   7  -5   7    2.08    0.86
  -8   5  -7    4.55    1.19
  -8   5  -7    7.21    1.79
   8  -5   7    1.30    1.71
   8  -5   7    3.89    1.43
   7   4  -7    3.22    1.48
   7   4  -7    4.39    1.73
  -7  -4   7    4.94    1.61
   6   4  -7    4.87    1.13
   6   4  -7    8.39    1.45
  -6  -4   7    6.61    1.30
   5   4  -7    1.87    1.00
   5   4  -7   -0.26    0.80
  -5  -4   7   -1.57    0.80
  -5  -4   7    0.36    0.59
   4   4  -7    0.86    0.61
   4   4  -7    2.10    0.83
  -4  -4   7    1.33    0.53
  -4  -4   7    1.35    0.73
   3   4  -7   18.82    1.31
   3   4  -7   18.01    1.49
  -3  -4   7   19.72    1.37
  -3  -4   7   19.00    1.51
   2   4  -7    3.72    0.69
   2   4  -7    3.49    0.51
  -2  -4   7    4.05    0.57
  -2  -4   7    4.24    0.66
   1   4  -7    2.82    0.57
   1   4  -7    2.38    0.33
  -1  -4   7    2.06    0.37
  -1  -4   7    1.96    0.48
   0   4  -7    0.30    0.33
   0   4  -7    0.11    0.14
   0  -4   7    0.00    0.19
   0  -4   7    0.14    0.40
  -1   4  -7    1.11    0.32
   1  -4   7    0.88    0.47
  -2   4  -7    8.73    0.70
   2  -4   7    6.46    0.92
  -3   4  -7    8.46    0.77
   3  -4   7    9.47    0.56
   3  -4   7    8.95    1.22
   3  -4   7    7.92    0.51
  -4   4  -7   13.18    0.96
  -4   4  -7   13.21    1.03
   4  -4   7   11.83    0.88
   4  -4   7   13.33    1.51
  -5   4  -7   15.96    1.29
   5  -4   7   13.29    1.18
   5  -4   7   15.35    1.80
   6  -4   7    3.16    1.12
   6  -4   7    2.67    0.72
  -7   4  -7    8.71    1.50
  -7   4  -7    9.74    1.36
   7  -4   7    8.70    1.22
   7  -4   7    9.88    1.64
  -8   4  -7   13.21    1.69
   8  -4   7   14.52    1.70
   7   3  -7   -0.67    1.23
   7   3  -7   -0.86    1.47
  -7  -3   7   -1.18    1.32
   6   3  -7    5.81    1.26
   6   3  -7    5.10    1.16
  -6  -3   7    4.67    0.74
  -6  -3   7    5.29    1.13
   5   3  -7  119.14    5.28
   5   3  -7  123.99    5.34
  -5  -3   7  125.97    5.35
  -5  -3   7  121.63    4.91
   4   3  -7   12.64    1.21
   4   3  -7   12.80    1.36
  -4  -3   7   11.71    0.97
  -4  -3   7   11.83    1.23
   3   3  -7    2.51    0.50
   3   3  -7    2.81    0.63
  -3  -3   7    2.02    0.44
  -3  -3   7    2.56    0.56
   2   3  -7   33.09    1.76
   2   3  -7   31.29    1.54
  -2  -3   7   33.08    1.68
  -2  -3   7   32.89    1.73
   1   3  -7   40.62    2.02
   1   3  -7   46.30    1.82
  -1  -3   7   41.33    2.11
  -1  -3   7   44.03    1.87
   0   3  -7   12.85    0.59
   0   3  -7   11.57    0.80
   0  -3   7   10.91    0.63
   0  -3   7   11.16    0.91
  -1   3  -7   -0.03    0.26
   1  -3   7   -0.02    0.38
  -2   3  -7   51.48    2.26
   2  -3   7   52.87    1.96
   2  -3   7   49.95    2.60
   2  -3   7   53.29    2.03
  -3   3  -7   10.57    0.67
  -3   3  -7    7.17    0.72
   3  -3   7    8.06    0.66
   3  -3   7    8.71    0.64
   3  -3   7    7.95    1.12
  -4   3  -7   34.72    1.73
  -4   3  -7   35.52    1.84
   4  -3   7   31.82    1.74
   4  -3   7   37.79    1.77
   4  -3   7   30.57    2.18
  -5   3  -7    0.26    0.53
   5  -3   7   -0.53    0.91
   5  -3   7    0.23    0.59
  -6   3  -7    0.18    0.66
   6  -3   7    0.96    0.81
   6  -3   7    1.01    1.07
  -7   3  -7    8.80    1.46
  -7   3  -7    7.76    1.32
   7  -3   7   10.73    1.43
   7  -3   7   10.00    1.48
  -8   3  -7    8.05    1.55
   8  -3   7    7.13    1.49
   8   2  -7   -1.81    1.43
   7   2  -7   14.93    2.28
   7   2  -7   13.38    1.94
  -7  -2   7   15.42    1.39
  -7  -2   7   14.69    2.01
   6   2  -7    0.01    0.93
   6   2  -7   -0.53    0.80
  -6  -2   7   -0.58    0.84
  -6  -2   7    0.22    0.52
   5   2  -7   12.00    1.35
   5   2  -7    9.22    1.23
  -5  -2   7    9.70    1.23
  -5  -2   7    9.95    0.89
   4   2  -7   28.11    1.74
   4   2  -7   29.12    1.72
  -4  -2   7   28.95    1.67
  -4  -2   7   31.47    1.59
   3   2  -7   36.14    1.87
   3   2  -7   37.73    1.93
  -3  -2   7   41.22    1.89
   2   2  -7   24.48    1.32
   2   2  -7   22.53    1.22
  -2  -2   7   24.26    1.30
  -2  -2   7   22.51    1.37
   1   2  -7    0.49    0.43
   1   2  -7    0.30    0.27
   1   2  -7    0.49    0.24
  -1  -2   7    0.64    0.28
  -1  -2   7   -0.01    0.46
  -1  -2   7    0.72    0.34
   0   2  -7    6.76    0.55
   0   2  -7    7.26    0.48
   0  -2   7    6.90    0.68
   0  -2   7    7.88    0.57
  -1   2  -7   20.21    1.09
  -1   2  -7   20.65    0.96
   1  -2   7   22.46    0.99
   1  -2   7   20.87    0.94
   1  -2   7   20.00    1.29
  -2   2  -7   11.99    0.84
   2  -2   7   14.00    0.81
   2  -2   7   11.81    1.04
   2  -2   7   11.88    0.71
  -3   2  -7    1.24    0.41
  -3   2  -7    0.96    0.41
   3  -2   7    1.13    0.37
   3  -2   7    1.92    0.39
   3  -2   7    0.29    0.51
  -4   2  -7    0.02    0.45
   4  -2   7    0.33    0.66
   4  -2   7    0.62    0.48
  -5   2  -7   71.22    3.35
   5  -2   7   66.69    3.51
   5  -2   7   72.24    3.31
  -6   2  -7    0.96    0.83
   6  -2   7    2.26    1.01
   6  -2   7   -0.44    0.86
  -7   2  -7    6.61    1.28
   7  -2   7    5.26    1.22
  -8   2  -7    3.57    1.45
   8  -2   7    5.76    1.57
   8   1  -7    3.45    1.34
   7   1  -7    6.82    1.24
   7   1  -7    7.71    1.24
  -7  -1   7    6.74    0.88
  -7  -1   7    7.65    1.19
   6   1  -7   -0.89    1.30
   6   1  -7    0.82    0.81
  -6  -1   7   -0.60    0.73
  -6  -1   7   -0.29    0.48
   5   1  -7    3.43    0.68
   5   1  -7    3.00    0.68
  -5  -1   7    2.67    0.49
  -5  -1   7    3.20    0.66
   4   1  -7    3.26    0.57
   4   1  -7    3.52    0.58
  -4  -1   7    3.39    0.52
   3   1  -7    5.97    0.86
   3   1  -7    5.32    0.71
   3   1  -7    6.98    0.73
  -3  -1   7    7.21    0.66
   2   1  -7   76.27    3.16
   2   1  -7   83.14    3.31
  -2  -1   7   73.44    3.20
  -2  -1   7   81.64    3.30
  -2  -1   7   78.53    3.30
   1   1  -7   11.37    0.92
   1   1  -7   13.56    0.80
  -1  -1   7   12.83    0.96
  -1  -1   7   14.31    0.90
  -1  -1   7   12.38    0.83
   0   1  -7   10.02    0.66
   0   1  -7   10.93    0.66
   0  -1   7   10.82    0.71
   0  -1   7   11.09    0.79
   0  -1   7    9.21    0.78
  -1   1  -7    0.58    0.25
  -1   1  -7    0.83    0.29
   1  -1   7    0.39    0.30
   1  -1   7    0.40    0.26
   1  -1   7    0.36    0.24
  -2   1  -7    8.32    0.74
   2  -1   7    9.69    0.89
   2  -1   7    9.52    0.75
   2  -1   7    8.51    0.84
  -3   1  -7   24.35    1.46
   3  -1   7   25.20    1.43
   3  -1   7   22.48    1.55
  -4   1  -7   14.32    1.24
   4  -1   7   16.21    1.29
   4  -1   7   13.93    1.35
  -5   1  -7    3.73    0.77
   5  -1   7    2.92    0.88
   5  -1   7    2.92    0.80
   6  -1   7    6.02    1.10
   6  -1   7    8.94    1.25
  -7   1  -7   13.53    2.09
   7  -1   7   12.69    1.81
  -8   1  -7   10.08    1.84
   8  -1   7    6.27    1.75
   8   0  -7    0.10    1.25
  -8   0   7   -1.16    0.83
   7   0  -7    1.12    0.96
  -7   0   7    1.90    1.05
  -7   0   7    1.45    0.63
   6   0  -7    1.92    0.73
  -6   0   7    2.06    0.65
  -6   0   7    1.79    0.58
   5   0  -7    2.04    0.57
   5   0  -7    1.63    0.64
   5   0  -7    1.44    0.56
  -5   0   7    1.30    0.45
  -5   0   7    1.64    0.50
   4   0  -7   25.69    1.58
   4   0  -7   28.54    1.40
   4   0  -7   25.64    1.46
  -4   0   7   26.75    1.49
   3   0  -7   12.70    0.94
   3   0  -7   13.45    0.80
   3   0  -7   12.34    0.94
  -3   0   7   13.49    0.93
   2   0  -7   20.93    1.20
   2   0  -7   24.50    1.09
   2   0  -7   25.65    1.31
  -2   0   7   24.08    1.29
  -2   0   7   21.04    1.23
   1   0  -7    3.12    0.37
   1   0  -7    4.00    0.49
  -1   0   7    2.47    0.44
  -1   0   7    2.56    0.44
   0   0  -7    0.65    0.24
   0   0  -7    0.40    0.25
   0   0   7    0.79    0.31
   0   0   7    0.34    0.28
   0   0   7    0.49    0.22
  -1   0  -7    0.16    0.27
  -1   0  -7    0.40    0.29
   1   0   7    0.49    0.30
   1   0   7   -0.04    0.28
   1   0   7    0.04    0.31
  -2   0  -7   14.64    1.04
   2   0   7   15.15    1.03
   2   0   7   15.64    1.05
  -3   0  -7   15.02    1.14
   3   0   7   14.19    1.12
   3   0   7   13.81    1.12
  -4   0  -7   24.67    1.70
  -4   0  -7   22.85    1.25
   4   0   7   24.13    1.61
   4   0   7   19.98    1.63
  -5   0  -7   16.61    1.75
   5   0   7   17.27    1.64
   5   0   7   19.17    1.62
  -6   0  -7   -0.27    1.03
   6   0   7   -0.20    1.05
  -7   0  -7    2.16    1.39
   7   0   7   -0.94    1.39
   8  -1  -7   -0.37    1.15
  -8   1   7    0.40    0.84
   7  -1  -7   10.53    1.62
  -7   1   7   12.40    1.25
  -6   1   7    0.16    0.50
   5  -1  -7    2.79    0.47
   5  -1  -7    3.12    0.67
  -5   1   7    2.60    0.59
   4  -1  -7   47.95    2.06
   4  -1  -7   51.28    1.98
   4  -1  -7   48.93    2.40
  -4   1   7   51.15    2.40
   3  -1  -7    5.36    0.42
   3  -1  -7    5.73    0.70
   3  -1  -7    6.15    0.65
  -3   1   7    5.83    0.70
   2  -1  -7    0.42    0.39
   2  -1  -7    0.47    0.33
   2  -1  -7    0.69    0.20
  -2   1   7    0.69    0.35
  -2   1   7    0.83    0.31
   1  -1  -7    7.29    0.54
   1  -1  -7    6.11    0.62
  -1   1   7    6.57    0.61
  -1   1   7    6.64    0.63
   0  -1  -7   69.76    2.90
   0  -1  -7   66.13    2.77
   0   1   7   71.11    2.74
   0   1   7   68.35    2.83
  -1  -1  -7   28.90    1.54
  -1  -1  -7   29.86    1.53
   1   1   7   30.16    1.57
   1   1   7   29.77    1.45
  -2  -1  -7    4.04    0.60
   2   1   7    3.62    0.58
   2   1   7    3.80    0.62
  -3  -1  -7    5.55    0.86
  -3  -1  -7    4.80    0.71
   3   1   7    5.05    0.75
   3   1   7    6.34    0.83
  -4  -1  -7    3.19    0.78
   4   1   7    3.04    0.81
  -5  -1  -7    0.35    0.91
   5   1   7   -0.30    0.92
  -6  -1  -7   28.93    2.58
   6   1   7   25.82    2.48
  -7  -1  -7   -0.51    1.65
   7   1   7    2.29    1.53
   8  -2  -7    3.53    1.26
  -8   2   7    3.78    1.02
   7  -2  -7    1.84    0.87
  -7   2   7    0.25    0.73
   6  -2  -7   11.99    1.40
  -6   2   7    8.54    1.22
   5  -2  -7   24.61    1.64
  -5   2   7   24.79    1.58
   4  -2  -7   18.57    1.27
  -4   2   7   19.32    1.35
   3  -2  -7    7.38    0.78
   3  -2  -7    7.27    0.41
  -3   2   7    6.20    0.76
   2  -2  -7    7.51    0.79
   2  -2  -7    8.47    0.53
  -2   2   7    8.20    0.65
  -2   2   7    6.58    0.73
   1  -2  -7   82.87    3.12
   1  -2  -7   78.65    3.35
  -1   2   7   78.26    3.04
  -1   2   7   77.96    3.27
   0  -2  -7    7.39    0.75
   0  -2  -7    6.78    0.67
   0   2   7    7.53    0.69
   0   2   7    6.03    0.61
   0   2   7    5.88    0.76
  -1  -2  -7    0.85    0.43
  -1  -2  -7    0.58    0.41
   1   2   7    0.61    0.44
   1   2   7    0.96    0.28
  -2  -2  -7   47.37    2.41
  -2  -2  -7   46.98    2.37
   2   2   7   49.65    2.39
   2   2   7   45.00    2.07
  -3  -2  -7    7.58    1.12
   3   2   7    7.49    0.91
   3   2   7    7.69    1.18
   4   2   7    3.80    0.93
  -5  -2  -7    1.89    1.16
   5   2   7   -0.95    0.99
  -6  -2  -7   -1.11    1.38
   6   2   7    2.95    1.41
   8  -3  -7    4.70    1.17
  -8   3   7    3.50    1.05
   7  -3  -7    4.62    0.98
  -7   3   7    4.27    0.87
   6  -3  -7    8.51    1.21
  -6   3   7   10.83    1.24
   5  -3  -7    1.63    0.61
  -5   3   7    2.03    0.61
   4  -3  -7    1.86    0.52
  -4   3   7    1.18    0.51
   3  -3  -7   -0.17    0.40
  -3   3   7    0.56    0.38
   2  -3  -7   20.68    1.34
   2  -3  -7   20.55    1.05
  -2   3   7   19.81    1.27
  -2   3   7   22.27    1.01
   1  -3  -7    3.35    0.44
   1  -3  -7    2.22    0.51
  -1   3   7    2.53    0.35
  -1   3   7    2.39    0.44
   0  -3  -7   81.95    3.43
   0  -3  -7   85.92    3.58
   0   3   7   80.14    3.54
   0   3   7   79.79    3.31
  -1  -3  -7    0.16    0.47
  -1  -3  -7   -0.45    0.53
   1   3   7    0.20    0.30
   1   3   7   -0.17    0.51
  -2  -3  -7    2.36    0.74
   2   3   7    3.03    0.45
   2   3   7    3.22    0.68
  -3  -3  -7    2.14    0.80
   3   3   7    1.39    0.64
   3   3   7    0.52    0.71
  -4  -3  -7   37.97    2.65
   4   3   7   39.51    2.64
  -5  -3  -7    6.59    1.32
   5   3   7    6.44    1.36
  -6  -3  -7   10.39    1.89
   6   3   7   10.35    1.76
   8  -4  -7    1.10    1.17
  -8   4   7    0.74    1.03
   7  -4  -7   28.63    2.18
  -7   4   7   26.11    2.08
   6  -4  -7    1.01    0.75
  -6   4   7    2.53    0.79
   5  -4  -7    1.10    0.73
  -5   4   7    1.13    1.04
   4  -4  -7   10.43    1.14
  -4   4   7   13.44    1.23
   3  -4  -7   13.51    1.24
  -3   4   7   15.80    1.25
   2  -4  -7    8.83    1.01
   2  -4  -7   11.07    0.83
  -2   4   7    8.44    0.61
  -2   4   7   10.55    0.96
   1  -4  -7   42.66    2.21
   1  -4  -7   42.66    2.03
  -1   4   7   43.24    2.07
  -1   4   7   39.75    1.79
   0  -4  -7   10.97    1.19
   0  -4  -7   11.98    1.15
   0   4   7   12.85    1.14
   0   4   7   11.98    0.90
  -1  -4  -7   24.38    1.70
  -1  -4  -7   27.16    1.78
   1   4   7   24.61    1.30
   1   4   7   25.30    1.78
  -2  -4  -7    1.00    0.76
   2   4   7    0.53    0.79
   2   4   7    0.76    0.42
  -3  -4  -7    1.58    0.92
   3   4   7    1.68    0.94
  -4  -4  -7    0.88    1.11
   4   4   7    3.81    1.17
  -5  -4  -7    4.86    1.61
   5   4   7    5.11    1.50
   8  -5  -7    1.18    1.15
  -8   5   7   -1.10    1.18
   7  -5  -7    3.58    1.05
  -7   5   7    4.35    1.08
   6  -5  -7    2.29    0.89
  -6   5   7    1.99    0.90
   5  -5  -7   -0.89    0.68
  -5   5   7    0.93    0.69
   4  -5  -7   25.02    1.96
  -4   5   7   27.70    1.76
   3  -5  -7   -0.93    0.56
  -3   5   7    0.23    0.57
   2  -5  -7   10.38    0.99
   2  -5  -7   10.67    1.14
  -2   5   7    9.11    1.02
   1  -5  -7    2.43    0.69
   1  -5  -7    3.53    0.68
  -1   5   7    1.98    0.54
  -1   5   7    3.44    0.69
   0  -5  -7    0.31    0.65
   0  -5  -7   -0.08    0.67
   0   5   7   -0.24    0.63
   0   5   7    0.68    0.43
  -1  -5  -7    0.43    0.78
   1   5   7    0.99    0.42
   1   5   7    0.40    1.05
  -2  -5  -7    7.38    1.23
   2   5   7    6.53    1.14
  -3  -5  -7   18.94    2.17
   3   5   7   20.57    2.24
   4   5   7   11.50    1.66
   7  -6  -7    2.34    1.12
  -7   6   7    3.86    1.17
   6  -6  -7    1.58    0.89
  -6   6   7    1.29    1.03
   5  -6  -7    1.31    0.81
  -5   6   7    2.60    0.92
   4  -6  -7   32.41    2.12
  -4   6   7   33.38    2.19
   3  -6  -7   12.88    1.40
  -3   6   7   13.43    1.29
   2  -6  -7    1.34    0.74
  -2   6   7    1.80    0.60
   1  -6  -7   -0.52    0.69
   1  -6  -7    1.17    0.80
  -1   6   7    0.10    0.73
  -1   6   7   -0.37    0.54
   0  -6  -7    0.39    0.77
   0  -6  -7    0.77    0.94
   0   6   7    1.19    0.81
   0   6   7    0.54    0.49
  -1  -6  -7   16.89    1.99
   1   6   7   17.06    1.13
   1   6   7   17.89    1.82
  -2  -6  -7    6.08    1.37
   2   6   7    5.23    1.25
  -3  -6  -7   12.81    1.81
   3   6   7   17.08    2.31
   7  -7  -7    3.63    1.24
  -7   7   7    6.13    1.45
   6  -7  -7    0.62    1.06
  -6   7   7   -2.13    1.06
   5  -7  -7    2.55    0.95
  -5   7   7    2.51    0.92
   4  -7  -7   -0.46    0.86
  -4   7   7    0.27    0.86
   3  -7  -7   10.34    1.52
  -3   7   7   12.56    1.46
   2  -7  -7   13.16    1.56
  -2   7   7   10.64    1.38
  -2   7   7   12.97    1.59
   1  -7  -7    0.35    0.91
   1  -7  -7   -0.77    0.97
  -1   7   7   -0.81    0.65
  -1   7   7   -1.42    0.83
   0  -7  -7    1.17    1.25
   0  -7  -7    1.00    0.97
   0   7   7    1.36    0.60
   0   7   7    0.11    1.02
  -1  -7  -7    9.87    1.62
   1   7   7    9.25    1.52
  -2  -7  -7    4.40    1.71
   2   7   7    6.82    1.49
   6  -8  -7    4.67    1.31
  -6   8   7    1.56    1.37
   5  -8  -7   18.53    2.01
  -5   8   7   14.06    2.00
   4  -8  -7   -1.12    0.94
  -4   8   7   -1.05    0.96
   3  -8  -7    3.29    1.04
  -3   8   7    2.75    0.94
   2  -8  -7   -0.67    1.03
  -2   8   7    0.26    1.05
  -2   8   7   -0.46    0.85
   1  -8  -7   18.52    2.08
  -1   8   7   24.51    2.20
   0   8   7    7.82    1.52
  -1  -8  -7   -0.06    1.68
   1   8   7    0.56    1.40
   5  -9  -7    0.82    1.29
  -5   9   7   -1.67    1.30
   4  -9  -7   -1.19    1.22
  -4   9   7   -0.02    1.16
   3  -9  -7   -0.27    1.16
  -3   9   7   -0.23    1.24
  -3   9   7    3.22    1.09
   2  -9  -7   -0.61    1.22
  -2   9   7    0.56    1.20
  -2   9   7    1.85    1.02
   1  -9  -7    2.28    1.31
  -1   9   7   -2.82    1.36
   1 -12   8    5.96    2.45
  -2  12  -8   -1.35    1.11
   2 -12   8    1.48    2.18
  -3  12  -8    7.85    1.20
   3 -12   8    7.63    2.16
  -4  12  -8    0.40    0.96
   4 -12   8   -3.58    2.31
   1  11  -8    1.05    1.47
   0  11  -8    2.10    1.29
   0 -11   8    0.91    2.10
  -1  11  -8   -0.36    1.07
   1 -11   8    0.00    1.92
  -2  11  -8    0.39    0.96
   2 -11   8   -1.73    1.90
  -3  11  -8    7.26    1.04
   3 -11   8    4.49    1.93
  -4  11  -8   27.75    2.09
   4 -11   8   36.65    3.73
  -5  11  -8    6.07    1.02
   5 -11   8    2.38    2.28
  -6  11  -8    8.74    1.26
  -6  11  -8    6.75    2.29
   6 -11   8    8.65    2.61
   2  10  -8    5.19    1.62
   1  10  -8    5.80    1.26
  -1 -10   8    1.29    1.70
   0  10  -8   -0.33    1.09
   0 -10   8   -0.16    1.54
  -1  10  -8   13.82    1.76
   1 -10   8   14.25    2.24
  -2  10  -8    4.86    1.01
   2 -10   8    9.21    1.94
  -3  10  -8    5.73    0.89
   3 -10   8    7.04    1.89
  -4  10  -8   17.81    1.59
   4 -10   8   12.67    2.04
  -5  10  -8    1.92    0.78
   5 -10   8    2.64    1.80
  -6  10  -8    0.46    0.97
   6 -10   8   -1.11    1.93
  -7  10  -8    1.60    2.10
  -7  10  -8    0.16    1.10
   7 -10   8   -3.25    2.21
   3   9  -8    0.70    1.42
  -3  -9   8   -0.76    1.36
   2   9  -8    1.52    1.25
  -2  -9   8    5.38    1.57
   1   9  -8    0.12    0.98
  -1  -9   8    0.66    1.35
   0   9  -8    3.64    0.98
   0  -9   8    5.48    1.43
  -1   9  -8   32.46    2.25
   1  -9   8   27.24    3.83
  -2   9  -8   36.35    2.22
   2  -9   8   40.22    3.21
  -3   9  -8    2.00    0.66
   3  -9   8    1.31    1.31
  -4   9  -8    2.03    0.69
   4  -9   8    2.47    1.49
  -5   9  -8    5.31    0.84
   5  -9   8    3.80    1.75
  -6   9  -8    0.06    0.88
   6  -9   8   -0.24    1.92
  -7   9  -8    4.43    1.99
  -7   9  -8    5.22    1.15
   7  -9   8    1.16    2.15
   4   8  -8    0.92    1.44
   4   8  -8   -0.42    1.23
  -4  -8   8    0.39    1.35
   3   8  -8    2.13    1.19
   3   8  -8    3.06    1.00
  -3  -8   8    3.06    1.25
  -3  -8   8    3.63    1.39
   2   8  -8    0.56    0.99
   2   8  -8   -0.03    0.74
  -2  -8   8   -0.87    1.10
   1   8  -8   14.09    1.25
   1   8  -8   16.16    1.80
  -1  -8   8   16.81    2.13
   0   8  -8   10.12    0.85
   0  -8   8    8.22    1.28
  -1   8  -8   10.98    1.24
   1  -8   8    8.37    1.50
  -2   8  -8   10.44    1.19
   2  -8   8   10.04    1.57
  -3   8  -8    0.17    0.56
   3  -8   8    2.84    1.19
  -4   8  -8   10.10    1.27
   4  -8   8    9.39    1.72
  -5   8  -8    0.01    0.59
   5  -8   8    0.56    1.44
  -6   8  -8    0.17    0.77
   6  -8   8    2.08    1.66
  -7   8  -8    6.60    1.93
  -7   8  -8   11.08    1.66
   7  -8   8    9.28    2.31
  -8   8  -8    3.47    1.24
   8  -8   8    3.50    2.46
   5   7  -8    1.57    1.64
   5   7  -8   -0.13    1.25
  -5  -7   8    0.76    1.45
   4   7  -8    6.30    1.38
   4   7  -8    3.41    1.08
  -4  -7   8    5.64    1.32
  -4  -7   8    5.22    1.30
   3   7  -8    0.16    1.00
   3   7  -8    0.30    0.74
  -3  -7   8    1.13    1.01
  -3  -7   8   -0.45    0.95
   2   7  -8    4.86    1.29
   2   7  -8    4.66    0.75
  -2  -7   8    3.66    1.02
   1   7  -8   72.59    3.53
   1   7  -8   69.10    2.91
  -1  -7   8   66.62    3.64
   0   7  -8   71.29    3.38
   0   7  -8   70.67    2.69
   0   7  -8   71.24    2.73
   0  -7   8   64.80    3.65
  -1   7  -8   -0.32    0.49
   1  -7   8   -1.17    0.84
  -2   7  -8    6.74    0.93
   2  -7   8    6.48    1.15
  -3   7  -8   20.10    1.42
   3  -7   8   24.50    2.16
  -4   7  -8    1.71    0.52
   4  -7   8    0.95    1.11
   5  -7   8    0.02    1.66
  -6   7  -8   16.45    1.58
   6  -7   8   21.03    2.74
  -7   7  -8   -0.42    0.86
   7  -7   8    0.56    1.78
  -8   7  -8   -0.03    1.21
  -8   7  -8   -1.41    1.96
   8  -7   8    2.91    2.13
   6   6  -8    6.14    1.58
   6   6  -8    7.76    1.80
  -6  -6   8    2.69    1.57
   5   6  -8    3.17    1.16
   5   6  -8    2.64    1.40
  -5  -6   8    3.58    1.33
   4   6  -8    1.62    0.82
   4   6  -8    0.57    1.05
  -4  -6   8    0.07    0.90
  -4  -6   8    1.62    0.92
   3   6  -8    5.43    1.01
   3   6  -8    7.94    1.13
  -3  -6   8    9.79    1.40
  -3  -6   8    6.35    1.03
   2   6  -8    6.15    0.87
   2   6  -8    5.35    1.01
  -2  -6   8    7.27    1.10
   1   6  -8    0.45    0.37
   1   6  -8    0.04    0.60
  -1  -6   8   -0.28    0.47
  -1  -6   8   -0.20    0.64
   0   6  -8   12.11    1.20
   0   6  -8   10.32    0.59
   0  -6   8   11.93    1.42
  -1   6  -8   25.36    1.58
   1  -6   8   26.19    1.93
  -2   6  -8    8.53    0.88
   2  -6   8    8.69    1.24
  -3   6  -8    0.71    0.43
   3  -6   8    0.19    0.74
  -4   6  -8    0.99    0.46
   4  -6   8    2.56    0.98
  -5   6  -8   19.06    1.40
   5  -6   8   18.23    2.27
   5  -6   8   18.49    1.22
  -6   6  -8   10.34    1.36
  -7   6  -8   15.09    1.75
   7  -6   8   13.36    2.24
  -8   6  -8    2.97    1.21
  -8   6  -8   -0.64    1.94
   8  -6   8    2.93    1.97
   6   5  -8    5.87    1.44
   6   5  -8    8.00    1.61
  -6  -5   8    7.49    1.54
   5   5  -8    2.68    1.22
   5   5  -8    1.77    1.04
  -5  -5   8    0.98    1.09
  -5  -5   8    0.11    0.86
   4   5  -8   -0.26    0.71
   4   5  -8    0.19    0.88
  -4  -5   8   -0.38    0.71
  -4  -5   8    0.05    0.78
   3   5  -8    7.46    0.90
   3   5  -8    8.52    1.29
  -3  -5   8    7.02    0.99
  -3  -5   8    7.79    1.21
   2   5  -8   28.37    1.82
   2   5  -8   26.31    1.45
  -2  -5   8   25.24    1.77
   1   5  -8   11.70    0.76
   1   5  -8   12.18    1.10
  -1  -5   8   11.17    1.18
  -1  -5   8   12.58    0.91
   0   5  -8   39.56    2.02
   0  -5   8   37.93    2.28
  -1   5  -8   23.39    1.39
   1  -5   8   22.99    1.69
  -2   5  -8    5.21    0.69
   2  -5   8    4.29    0.91
  -3   5  -8   15.42    1.08
   3  -5   8   13.21    1.60
  -4   5  -8   36.61    2.03
  -4   5  -8   39.57    1.63
   4  -5   8   38.85    2.63
   4  -5   8   42.82    1.64
   4  -5   8   38.15    1.63
  -5   5  -8    1.68    0.60
   5  -5   8    1.55    1.09
  -6   5  -8   10.94    1.33
   6  -5   8    9.22    1.20
   6  -5   8    8.80    1.66
  -7   5  -8    6.78    1.13
  -8   5  -8    6.39    1.35
  -8   5  -8    5.05    2.09
   8  -5   8    7.09    2.10
   7   4  -8    2.63    1.66
   7   4  -8   -0.10    1.34
  -7  -4   8   -0.97    1.60
   6   4  -8    1.87    1.14
   6   4  -8    3.91    1.33
  -6  -4   8    2.63    1.23
  -6  -4   8    3.78    0.90
   5   4  -8    7.20    1.21
   5   4  -8    9.64    1.45
  -5  -4   8    6.98    1.09
  -5  -4   8    7.01    0.95
   4   4  -8    0.00    0.81
   4   4  -8    1.52    0.61
  -4  -4   8    0.02    0.58
  -4  -4   8    1.74    0.79
   3   4  -8    0.87    0.66
   3   4  -8    0.79    0.46
  -3  -4   8   -0.17    0.51
   2   4  -8    1.36    0.35
   2   4  -8    1.08    0.48
  -2  -4   8    1.36    0.51
  -2  -4   8    0.33    0.45
   1   4  -8    0.77    0.44
   1   4  -8    0.84    0.29
  -1  -4   8    0.83    0.37
  -1  -4   8    0.78    0.46
   0   4  -8    0.08    0.35
   0   4  -8   -0.15    0.16
   0  -4   8    0.03    0.50
   0  -4   8    0.38    0.22
  -1   4  -8   11.47    0.86
   1  -4   8   10.56    1.06
  -2   4  -8   11.12    0.86
   2  -4   8   10.70    1.26
  -3   4  -8    0.21    0.35
   3  -4   8   -0.31    0.72
   3  -4   8    0.36    0.21
   3  -4   8    0.40    0.27
  -4   4  -8   19.55    1.37
  -4   4  -8   20.09    1.14
   4  -4   8   18.36    1.16
   4  -4   8   21.67    1.15
   4  -4   8   18.86    1.87
  -5   4  -8   13.09    1.25
   5  -4   8   11.46    1.20
   5  -4   8   14.05    1.86
  -6   4  -8    2.69    0.83
   6  -4   8    2.57    0.79
   6  -4   8    3.89    1.34
  -7   4  -8    0.68    0.96
   7  -4   8    1.79    1.00
   7  -4   8   -1.64    1.51
  -8   4  -8    1.15    1.32
   7   3  -8    2.34    1.31
   7   3  -8    4.04    1.47
  -7  -3   8    0.95    1.32
   6   3  -8    1.92    0.99
   6   3  -8    1.86    1.15
  -6  -3   8    2.54    0.75
  -6  -3   8    3.47    1.11
   5   3  -8    5.89    0.91
   5   3  -8    6.64    1.00
  -5  -3   8    6.64    1.01
  -5  -3   8    5.43    0.95
   4   3  -8   17.47    1.43
   4   3  -8   14.79    1.29
  -4  -3   8   16.87    1.26
  -4  -3   8   14.82    1.37
   3   3  -8   20.75    1.42
   3   3  -8   18.93    1.28
  -3  -3   8   20.93    1.34
   2   3  -8    0.19    0.32
   2   3  -8   -0.10    0.42
  -2  -3   8    0.03    0.48
  -2  -3   8    0.46    0.41
   1   3  -8    2.41    0.33
   1   3  -8    1.60    0.45
  -1  -3   8    2.65    0.44
  -1  -3   8    2.11    0.48
   0   3  -8    0.98    0.20
   0   3  -8    1.07    0.34
   0  -3   8    0.68    0.38
   0  -3   8    0.48    0.29
  -1   3  -8    9.27    0.72
   1  -3   8    6.75    0.85
   1  -3   8    9.11    0.52
   1  -3   8    9.82    0.55
  -2   3  -8   72.00    3.03
   2  -3   8   73.70    2.69
   2  -3   8   74.09    2.76
   2  -3   8   66.29    3.37
  -3   3  -8    2.50    0.47
   3  -3   8    3.32    0.40
   3  -3   8    4.61    0.64
   3  -3   8    4.30    0.86
  -4   3  -8    9.10    1.01
  -4   3  -8    9.41    1.02
   4  -3   8   13.45    1.04
   4  -3   8    9.98    1.39
   4  -3   8   11.64    1.05
  -5   3  -8    0.84    0.59
   5  -3   8    0.96    1.00
   5  -3   8    1.24    0.64
   6  -3   8    2.04    1.21
   6  -3   8    1.06    0.88
  -7   3  -8    1.93    1.09
   7  -3   8    4.06    1.21
   7  -3   8    5.12    1.78
  -8   3  -8   10.63    1.82
   8  -3   8   12.97    1.77
   7   2  -8    1.74    1.10
   7   2  -8    1.94    1.29
  -7  -2   8    2.14    1.16
   6   2  -8    1.39    0.82
   6   2  -8    2.99    1.00
  -6  -2   8    1.78    0.63
  -6  -2   8    1.47    0.88
   5   2  -8   23.04    1.73
   5   2  -8   20.46    1.69
  -5  -2   8   23.44    1.62
  -5  -2   8   25.09    1.50
   4   2  -8   -0.73    0.55
   4   2  -8    0.01    0.47
  -4  -2   8    0.02    0.36
   3   2  -8    0.48    0.41
   3   2  -8    0.32    0.42
  -3  -2   8    0.19    0.32
   2   2  -8   15.27    0.96
   2   2  -8   15.45    0.99
  -2  -2   8   16.12    1.21
  -2  -2   8   15.66    1.07
   1   2  -8  116.83    4.67
   1   2  -8  128.14    4.61
  -1  -2   8  117.01    4.86
  -1  -2   8  125.52    4.70
   0   2  -8    5.19    0.57
   0   2  -8    6.26    0.50
   0  -2   8    7.24    0.66
   0  -2   8    5.49    0.75
  -1   2  -8   27.96    1.27
  -1   2  -8   27.76    1.41
   1  -2   8   27.09    1.25
   1  -2   8   27.83    1.61
   1  -2   8   28.66    1.28
  -2   2  -8    5.91    0.68
   2  -2   8    6.11    0.59
   2  -2   8    6.13    0.87
   2  -2   8    6.62    0.65
  -3   2  -8   -0.04    0.40
   3  -2   8    0.02    0.41
   3  -2   8   -0.38    0.60
   3  -2   8   -0.13    0.40
  -4   2  -8   13.64    1.19
   4  -2   8   12.18    1.45
   4  -2   8   12.12    1.18
   5  -2   8   25.18    2.14
   5  -2   8   24.46    1.83
  -6   2  -8   21.79    1.90
   6  -2   8   16.05    2.19
   6  -2   8   18.87    2.06
  -7   2  -8    1.71    1.22
   7  -2   8   -0.30    1.28
   8   1  -8    3.48    1.38
   7   1  -8    5.01    1.19
  -7  -1   8    6.86    0.98
   6   1  -8    2.89    0.85
   6   1  -8    2.57    0.88
  -6  -1   8    3.14    0.79
  -6  -1   8    3.49    0.67
   5   1  -8    2.48    0.72
   5   1  -8    4.71    0.78
  -5  -1   8    4.23    0.66
   4   1  -8   17.40    1.29
   4   1  -8   17.25    1.20
  -4  -1   8   18.77    1.23
   3   1  -8    0.80    0.38
   3   1  -8    0.36    0.36
   3   1  -8   -0.56    0.59
  -3  -1   8    0.91    0.34
   2   1  -8    2.20    0.61
   2   1  -8    1.79    0.36
   2   1  -8    2.47    0.36
  -2  -1   8    1.43    0.56
  -2  -1   8    1.89    0.37
   1   1  -8    0.67    0.25
   1   1  -8    0.22    0.30
  -1  -1   8    1.11    0.41
  -1  -1   8    2.09    0.54
  -1  -1   8    0.49    0.27
   0   1  -8   74.21    2.90
   0   1  -8   69.37    2.89
   0  -1   8   71.18    3.08
   0  -1   8   72.08    2.88
  -1   1  -8   19.09    1.13
   1  -1   8   19.31    1.18
   1  -1   8   18.71    1.24
   1  -1   8   21.43    1.07
  -2   1  -8    9.05    0.82
   2  -1   8    8.14    0.80
   2  -1   8    9.76    0.79
   2  -1   8    7.43    0.93
  -3   1  -8    7.36    0.91
   3  -1   8    9.68    0.94
   3  -1   8    8.89    1.05
  -4   1  -8    7.75    1.10
   4  -1   8    7.55    1.09
   4  -1   8    8.42    1.18
  -5   1  -8   27.61    1.97
   5  -1   8   27.83    1.97
   5  -1   8   26.05    2.13
  -6   1  -8   35.91    2.53
   6  -1   8   33.85    2.55
  -7   1  -8   -1.48    1.32
   7  -1   8   -1.64    1.44
   8   0  -8    0.76    1.29
  -8   0   8    1.99    0.97
   7   0  -8    7.27    1.22
  -7   0   8    8.24    1.34
   6   0  -8   -0.15    0.73
   6   0  -8    0.16    0.72
  -6   0   8    0.30    0.58
   5   0  -8    2.06    0.62
   5   0  -8    1.68    0.55
   4   0  -8    5.87    0.85
   4   0  -8    7.35    1.00
  -4   0   8    6.43    0.77
   3   0  -8   19.03    1.20
   3   0  -8   18.80    1.23
   3   0  -8   18.48    0.99
  -3   0   8   16.89    1.16
   2   0  -8   15.49    0.87
   2   0  -8   16.28    1.14
   2   0  -8   14.55    1.01
  -2   0   8   15.17    1.04
  -2   0   8   16.92    1.15
   1   0  -8   60.13    2.57
   1   0  -8   60.42    2.41
  -1   0   8   60.96    2.55
  -1   0   8   57.52    2.59
   0   0  -8   40.69    1.91
   0   0  -8   40.93    1.85
   0   0   8   44.36    1.98
  -1   0  -8    0.06    0.32
  -1   0  -8    0.06    0.31
   1   0   8    0.66    0.38
   1   0   8    0.39    0.37
  -2   0  -8    7.25    0.80
   2   0   8    8.53    0.89
   2   0   8    6.14    0.77
  -3   0  -8    9.38    1.03
   3   0   8    8.01    1.06
   3   0   8    9.27    1.08
  -4   0  -8   -0.69    0.66
   4   0   8   -0.75    0.75
   4   0   8    0.40    0.69
  -5   0  -8   11.01    1.62
   5   0   8    6.35    1.11
   5   0   8   10.37    1.56
  -6   0  -8    2.02    1.24
   6   0   8    4.55    1.27
  -7   0  -8    8.77    1.88
   7   0   8    7.49    1.66
   8  -1  -8    1.66    1.28
  -8   1   8    0.41    0.91
   7  -1  -8    1.08    0.96
  -7   1   8    1.21    0.68
   6  -1  -8    1.28    0.70
   5  -1  -8    1.18    0.56
   5  -1  -8    1.85    0.40
  -5   1   8    1.29    0.51
   4  -1  -8   14.80    0.98
   4  -1  -8   13.74    1.15
   4  -1  -8   13.86    0.76
  -4   1   8   12.61    1.04
   3  -1  -8    0.44    0.38
   3  -1  -8   -0.42    0.22
   3  -1  -8   -0.07    0.45
  -3   1   8    0.30    0.34
   2  -1  -8   18.21    0.89
   2  -1  -8   16.34    1.15
  -2   1   8   16.81    1.08
  -2   1   8   17.60    1.13
   1  -1  -8   42.96    1.93
   1  -1  -8   46.80    2.15
  -1   1   8   47.39    2.02
  -1   1   8   46.36    2.13
   0  -1  -8   10.78    0.87
   0  -1  -8    7.90    0.74
   0   1   8   10.20    0.77
  -1  -1  -8    0.13    0.40
  -1  -1  -8    0.34    0.40
   1   1   8    0.36    0.41
   1   1   8    0.05    0.32
  -2  -1  -8    4.48    0.63
   2   1   8    4.11    0.64
   2   1   8    3.27    0.57
  -3  -1  -8   15.47    1.40
   3   1   8   15.87    1.28
   3   1   8   17.14    1.45
   4   1   8    9.49    1.37
   4   1   8   11.43    1.57
  -5  -1  -8    8.90    1.37
   5   1   8    7.76    1.24
  -6  -1  -8    2.91    1.36
   6   1   8    2.93    1.25
   8  -2  -8    5.56    1.41
  -8   2   8    6.48    1.09
   7  -2  -8    6.43    1.15
  -7   2   8    5.28    0.93
   6  -2  -8    0.38    0.69
  -6   2   8   -1.11    0.69
   5  -2  -8    3.55    0.67
  -5   2   8    3.49    0.70
   4  -2  -8    3.97    0.64
  -4   2   8    5.00    0.76
   3  -2  -8   87.50    3.78
   3  -2  -8   89.41    3.26
   3  -2  -8   91.62    3.37
  -3   2   8   86.18    3.78
   2  -2  -8   67.40    3.06
   2  -2  -8   67.72    2.67
  -2   2   8   70.48    3.05
  -2   2   8   69.78    2.77
   1  -2  -8   30.87    1.64
   1  -2  -8   27.29    1.39
  -1   2   8   29.63    1.52
  -1   2   8   28.37    1.37
   0  -2  -8   20.54    1.23
   0  -2  -8   21.31    1.36
   0   2   8   23.46    1.38
   0   2   8   20.96    1.21
  -1  -2  -8    9.02    1.00
  -1  -2  -8    8.27    0.97
   1   2   8    8.64    1.02
   1   2   8   10.43    0.78
  -2  -2  -8    0.20    0.62
   2   2   8    0.45    0.58
   2   2   8   -0.09    0.45
  -3  -2  -8   -0.44    0.68
   3   2   8    0.16    0.60
   3   2   8   -1.43    0.71
  -4  -2  -8    1.49    1.01
   4   2   8    1.00    1.06
   5   2   8    7.03    1.34
  -6  -2  -8   -1.52    1.50
   6   2   8    0.41    1.51
   8  -3  -8    2.53    1.18
  -8   3   8    0.92    1.03
   7  -3  -8    0.84    0.97
  -7   3   8    1.01    0.89
   6  -3  -8   24.64    1.88
  -6   3   8   25.03    1.90
  -5   3   8   -0.41    0.66
   4  -3  -8    1.70    0.65
  -4   3   8    0.47    0.54
   3  -3  -8   79.02    3.53
  -3   3   8   77.96    3.50
   2  -3  -8   12.45    1.08
   2  -3  -8   12.25    0.84
  -2   3   8   11.46    0.83
  -2   3   8   11.44    1.00
   1  -3  -8    0.92    0.45
   1  -3  -8    0.77    0.47
  -1   3   8    0.32    0.36
  -1   3   8    0.62    0.39
   0  -3  -8   24.32    1.48
   0  -3  -8   22.73    1.56
   0   3   8   25.21    1.37
   0   3   8   25.14    1.59
  -1  -3  -8   20.75    1.58
  -1  -3  -8   24.30    1.62
   1   3   8   23.94    1.69
   1   3   8   23.79    1.29
  -2  -3  -8    5.71    0.94
   2   3   8    5.98    0.81
   2   3   8    6.87    0.95
   3   3   8    1.75    0.89
   3   3   8    1.66    0.67
  -4  -3  -8   -1.15    1.06
   4   3   8    1.01    1.03
  -5  -3  -8    3.90    1.37
   5   3   8    2.07    1.32
   8  -4  -8    0.40    1.27
  -8   4   8   -1.35    1.09
   7  -4  -8   -0.23    0.93
  -7   4   8   -0.12    0.88
   6  -4  -8    0.40    0.80
  -6   4   8   -0.87    0.67
   5  -4  -8   48.68    2.68
  -5   4   8   50.30    2.73
   4  -4  -8   15.50    1.38
  -4   4   8   15.88    1.61
   3  -4  -8    2.29    0.62
  -3   4   8    1.50    0.57
   2  -4  -8    1.82    0.61
   2  -4  -8    1.87    0.52
  -2   4   8    1.57    0.49
   1  -4  -8    6.04    0.92
   1  -4  -8    6.39    1.00
  -1   4   8    6.54    0.81
   0  -4  -8    2.36    0.67
   0  -4  -8    3.57    0.69
   0   4   8    4.60    0.77
   0   4   8    3.53    0.58
  -1  -4  -8   40.54    2.30
  -1  -4  -8   36.80    2.21
   1   4   8   34.88    1.74
   1   4   8   36.11    2.29
  -2  -4  -8   -1.56    0.82
   2   4   8    0.31    0.50
   2   4   8    0.20    0.83
  -3  -4  -8    1.55    1.13
   3   4   8    1.34    0.98
  -4  -4  -8   -0.74    1.26
   4   4   8    2.03    1.28
  -5  -4  -8    1.96    1.65
   5   4   8   -2.42    1.47
   7  -5  -8   12.38    1.81
  -7   5   8    9.19    1.47
   6  -5  -8    0.11    0.89
  -6   5   8    1.20    0.90
   5  -5  -8   22.50    1.81
  -5   5   8   21.89    1.85
   4  -5  -8    0.18    0.72
  -4   5   8    0.29    0.64
   3  -5  -8   -0.48    0.71
  -3   5   8    0.30    0.61
   2  -5  -8    0.69    0.64
  -2   5   8   -0.52    0.50
   1  -5  -8    2.70    0.77
  -1   5   8    2.70    0.60
   0  -5  -8    2.66    0.77
   0  -5  -8    4.17    0.89
   0   5   8    3.78    0.62
   0   5   8    3.93    0.84
  -1  -5  -8    0.10    0.89
   1   5   8    1.36    0.90
   1   5   8   -0.29    0.47
  -2  -5  -8    1.84    1.16
   2   5   8    3.14    1.06
  -3  -5  -8    4.51    1.44
   3   5   8    3.56    1.29
  -4  -5  -8    1.03    1.70
   4   5   8    3.33    1.61
   7  -6  -8   15.95    2.10
  -7   6   8   20.02    2.25
   6  -6  -8    0.63    0.98
  -6   6   8    0.36    0.92
   5  -6  -8    2.29    0.93
  -5   6   8    2.84    0.94
   4  -6  -8    0.62    0.78
  -4   6   8   -0.47    0.70
   3  -6  -8    9.87    1.36
  -3   6   8    7.84    1.25
   2  -6  -8    7.66    1.17
  -2   6   8    9.13    1.17
   1  -6  -8   18.92    1.87
   1  -6  -8   20.32    1.87
  -1   6   8   20.74    1.85
  -1   6   8   21.69    1.56
   0  -6  -8    8.04    1.18
   0  -6  -8    8.40    1.27
   0   6   8   11.77    1.66
   0   6   8   11.82    1.14
  -1  -6  -8   -0.07    1.20
   1   6   8   -0.46    1.00
  -2  -6  -8    1.20    1.38
   2   6   8    1.46    1.24
  -3  -6  -8    2.96    1.66
   3   6   8    3.86    1.49
   6  -7  -8    6.98    1.41
  -6   7   8    6.61    1.33
   5  -7  -8    7.30    1.29
  -5   7   8    7.66    1.31
   4  -7  -8    5.24    1.02
  -4   7   8    3.62    1.00
   3  -7  -8   10.78    1.64
  -3   7   8    9.63    1.39
   2  -7  -8   -0.86    0.90
  -2   7   8    0.06    0.79
  -2   7   8   -1.76    0.93
   1  -7  -8   -0.05    0.97
  -1   7   8   -0.66    0.84
  -1   7   8   -1.28    0.94
   0  -7  -8    2.98    1.62
   0  -7  -8    2.48    1.11
   0   7   8    2.61    0.81
   0   7   8    1.17    1.28
  -1  -7  -8   -2.19    1.53
   1   7   8    2.68    1.31
   5  -8  -8    3.86    1.27
  -5   8   8    5.92    1.31
   4  -8  -8    5.72    1.37
  -4   8   8    4.30    1.18
   3  -8  -8   19.77    2.06
  -3   8   8   16.18    1.76
  -3   8   8   14.80    2.10
   2  -8  -8    5.53    1.27
  -2   8   8    7.54    1.39
  -2   8   8    6.58    1.09
   1  -8  -8    0.61    1.13
  -1   8   8    0.88    1.28
  -1   8   8   -0.32    0.89
   0   8   8    1.19    1.41
   2 -12   9    3.19    2.48
  -3  12  -9    0.52    1.04
   3 -12   9    3.77    2.52
   0  11  -9   24.60    2.59
   0 -11   9   30.81    3.79
  -1  11  -9   -0.49    1.09
   1 -11   9    3.40    1.86
  -2  11  -9    1.44    1.03
   2 -11   9    4.18    1.97
  -3  11  -9    1.50    0.93
   3 -11   9    0.78    1.98
  -4  11  -9    6.86    1.08
   4 -11   9    8.58    2.29
  -5  11  -9    0.37    0.96
   5 -11   9    3.32    2.15
   2  10  -9   11.77    1.74
   1  10  -9   10.67    1.69
  -1 -10   9   11.41    2.17
   0  10  -9   -0.57    1.06
   0 -10   9    0.22    1.67
  -1  10  -9    0.28    0.90
   1 -10   9    0.94    1.58
  -2  10  -9    5.26    0.99
   2 -10   9    4.03    1.68
  -3  10  -9    0.58    0.75
   3 -10   9   -0.52    1.67
  -4  10  -9   10.06    1.35
   4 -10   9    7.39    2.02
  -5  10  -9    1.10    0.88
   5 -10   9    2.76    2.04
  -6  10  -9   24.46    2.12
   3   9  -9    2.26    1.50
   2   9  -9    3.00    1.97
  -2  -9   9    3.68    1.51
   1   9  -9   -0.46    1.04
  -1  -9   9    0.49    1.44
   0   9  -9   14.92    1.82
   0  -9   9   11.05    1.62
  -1   9  -9    9.91    1.47
   1  -9   9    9.62    1.62
  -2   9  -9   -0.52    0.68
   2  -9   9   -0.52    1.34
  -3   9  -9    1.08    0.72
   3  -9   9    0.28    1.44
  -4   9  -9   23.07    1.62
   4  -9   9   19.53    2.51
  -5   9  -9    1.16    0.74
   5  -9   9   -0.51    1.74
  -6   9  -9    3.13    1.11
   6  -9   9    4.26    1.99
  -7   9  -9    3.73    1.14
   7  -9   9    5.11    2.27
   4   8  -9    8.41    1.60
  -4  -8   9    7.36    1.71
   3   8  -9   13.52    1.82
   3   8  -9   18.62    2.13
  -3  -8   9   14.10    2.31
   2   8  -9   -0.43    1.03
  -2  -8   9   -0.38    1.21
   1   8  -9    0.27    0.84
  -1  -8   9    0.85    1.13
   0   8  -9    9.26    1.28
   0  -8   9    7.74    1.31
  -1   8  -9    0.24    0.68
   1  -8   9    2.17    1.11
  -2   8  -9    8.04    1.37
  -3   8  -9    7.18    1.05
   3  -8   9    5.80    1.25
  -4   8  -9   12.45    1.26
   4  -8   9   10.35    1.76
  -5   8  -9   10.15    1.25
   5  -8   9    6.39    1.58
  -6   8  -9   -0.52    0.84
   6  -8   9   -1.06    1.77
  -7   8  -9    6.94    1.18
   7  -8   9    3.05    2.31
   5   7  -9    1.55    1.67
   5   7  -9    0.12    1.34
  -5  -7   9    0.89    1.49
   4   7  -9   -1.55    1.01
   4   7  -9    0.27    1.23
  -4  -7   9    1.16    1.22
  -4  -7   9    0.42    1.14
   3   7  -9    1.81    0.80
   3   7  -9    0.02    1.09
  -3  -7   9    0.30    0.99
   2   7  -9   11.17    1.59
   2   7  -9    7.80    1.11
  -2  -7   9    9.59    1.35
   1   7  -9    6.28    1.14
   1   7  -9    7.41    0.82
  -1  -7   9    8.03    1.33
   0   7  -9   14.58    1.41
   0  -7   9   17.03    1.85
  -1   7  -9   54.09    2.72
   1  -7   9   53.75    3.28
  -2   7  -9    0.14    0.51
   2  -7   9   -0.31    0.98
  -3   7  -9    8.17    0.98
   3  -7   9    7.78    1.53
  -4   7  -9    0.28    0.68
   4  -7   9    1.92    1.49
  -5   7  -9   -0.56    0.66
   5  -7   9   -0.75    1.44
  -6   7  -9    0.59    0.77
   6  -7   9   -0.82    1.56
  -7   7  -9   13.42    1.85
   7  -7   9    9.20    2.08
   5   6  -9   28.98    2.67
   5   6  -9   29.47    2.46
  -5  -6   9   29.84    2.70
   4   6  -9   -0.97    0.86
   4   6  -9    1.18    1.05
  -4  -6   9   -0.08    1.02
  -4  -6   9    1.20    0.99
   3   6  -9   -0.40    0.95
   3   6  -9   -0.13    0.62
  -3  -6   9    1.01    0.86
   2   6  -9   37.74    2.33
   2   6  -9   35.21    1.79
  -2  -6   9   35.67    2.36
   1   6  -9    0.46    0.36
   1   6  -9   -0.39    0.60
  -1  -6   9    0.03    0.77
   0   6  -9   16.71    1.27
   0  -6   9   13.58    1.46
  -1   6  -9   81.60    3.55
   1  -6   9   78.93    4.09
  -2   6  -9   53.56    2.54
   2  -6   9   51.38    3.21
  -3   6  -9   -0.05    0.45
   3  -6   9    0.87    0.99
  -4   6  -9    1.30    0.56
   4  -6   9    1.00    1.11
  -5   6  -9    2.72    0.78
  -6   6  -9    0.30    0.78
   6  -6   9    0.41    1.67
  -7   6  -9   -1.05    0.99
   7  -6   9   -1.06    1.84
   6   5  -9    6.03    1.42
  -6  -5   9    8.06    1.61
   5   5  -9   -0.18    1.10
   5   5  -9   -0.29    0.97
  -5  -5   9    0.06    0.94
  -5  -5   9    0.10    1.05
   4   5  -9    0.80    0.75
  -4  -5   9    0.40    0.80
   3   5  -9    1.98    0.55
   3   5  -9    2.63    0.86
  -3  -5   9    1.92    0.74
   2   5  -9    2.18    0.46
   2   5  -9    3.60    0.76
  -2  -5   9    3.26    0.76
   1   5  -9   -0.73    0.51
   1   5  -9    0.19    0.31
  -1  -5   9    0.11    0.44
  -1  -5   9    0.49    0.56
   0   5  -9    3.18    0.55
   0  -5   9    1.46    0.75
  -1   5  -9   30.56    1.68
   1  -5   9   28.90    2.03
  -2   5  -9   15.51    1.08
   2  -5   9   13.94    1.49
  -3   5  -9    2.51    0.52
   3  -5   9    1.30    0.92
  -4   5  -9    0.09    0.51
   4  -5   9    0.44    0.32
   4  -5   9   -0.93    1.01
  -5   5  -9    9.59    1.15
   5  -5   9    6.91    1.50
  -6   5  -9    5.52    1.05
   6  -5   9    6.64    1.74
  -7   5  -9    3.99    1.15
   7  -5   9    6.96    1.90
   6   4  -9    1.63    1.10
  -6  -4   9    2.20    1.09
  -6  -4   9    3.57    1.24
   5   4  -9    0.69    1.02
   5   4  -9   -0.70    0.81
  -5  -4   9   -0.65    0.77
  -5  -4   9   -0.71    0.95
   4   4  -9    6.54    0.98
   4   4  -9    6.58    0.88
  -4  -4   9    7.27    1.24
   3   4  -9    0.08    0.51
   3   4  -9   -0.88    0.61
  -3  -4   9    0.32    0.59
   2   4  -9    6.77    0.73
   2   4  -9    6.25    0.93
  -2  -4   9    6.26    0.91
   1   4  -9   41.50    1.71
   1   4  -9   37.53    2.01
  -1  -4   9   39.33    1.79
  -1  -4   9   38.57    2.23
   0   4  -9    3.10    0.51
   0   4  -9    3.28    0.37
   0  -4   9    2.86    0.33
   0  -4   9    2.18    0.55
  -1   4  -9   -0.08    0.34
   1  -4   9    0.32    0.56
  -2   4  -9    0.36    0.36
   2  -4   9    0.52    0.68
  -3   4  -9    6.72    0.85
   3  -4   9    7.23    1.18
   3  -4   9    8.11    0.54
   3  -4   9    7.79    0.62
  -4   4  -9   31.71    1.82
   4  -4   9   31.99    2.40
   4  -4   9   30.69    1.59
  -5   4  -9    1.02    0.69
   5  -4   9    1.25    0.64
   5  -4   9    1.07    1.20
  -6   4  -9   10.89    1.51
   6  -4   9   10.79    1.76
   6  -4   9    9.59    1.30
  -7   4  -9    6.42    1.25
   7  -4   9    4.72    1.86
   7   3  -9   -0.56    2.57
   7   3  -9   -0.86    1.24
  -7  -3   9    2.47    1.43
   6   3  -9    1.19    1.10
   6   3  -9   -0.94    0.96
  -6  -3   9    0.01    0.98
   5   3  -9    1.68    0.96
   5   3  -9    1.71    0.80
  -5  -3   9    2.37    0.67
   4   3  -9    1.04    0.61
   4   3  -9    2.02    0.71
  -4  -3   9    1.86    0.63
   3   3  -9    3.25    0.54
   3   3  -9    3.66    0.64
  -3  -3   9    3.06    0.59
   2   3  -9    2.77    0.42
   2   3  -9    2.10    0.48
  -2  -3   9    2.13    0.53
   1   3  -9    4.09    0.55
   1   3  -9    3.28    0.49
  -1  -3   9    2.83    0.60
  -1  -3   9    3.83    0.52
   0   3  -9   15.66    0.84
   0   3  -9   16.55    1.05
   0  -3   9   15.90    1.24
   0  -3   9   17.63    0.98
  -1   3  -9    3.13    0.49
   1  -3   9    3.08    0.64
   1  -3   9    3.34    0.46
  -2   3  -9    4.51    0.64
   2  -3   9    3.65    0.48
   2  -3   9    4.38    0.60
   2  -3   9    2.12    0.66
  -3   3  -9    6.78    0.87
   3  -3   9    7.88    0.83
   3  -3   9    5.34    1.02
   3  -3   9    6.27    0.68
  -4   3  -9   23.15    1.54
   4  -3   9   20.94    1.44
   4  -3   9   22.72    1.93
  -5   3  -9    3.39    0.79
   5  -3   9    4.55    1.29
   5  -3   9    1.84    0.81
  -6   3  -9    8.21    1.16
   6  -3   9    7.23    1.18
   6  -3   9    9.75    1.61
  -7   3  -9   -0.88    1.22
   7  -3   9    0.96    1.54
   7   2  -9    2.61    1.23
  -7  -2   9    3.33    0.93
   6   2  -9   -0.40    0.85
   6   2  -9   -0.56    1.02
  -6  -2   9    0.96    0.76
   5   2  -9   31.13    1.96
   5   2  -9   33.43    2.08
  -5  -2   9   34.67    1.91
   4   2  -9   44.41    2.28
   4   2  -9   45.15    2.32
  -4  -2   9   49.24    2.34
   3   2  -9    6.05    0.81
   3   2  -9    6.95    0.84
  -3  -2   9    8.31    0.87
   2   2  -9   10.85    0.83
   2   2  -9    9.98    0.84
  -2  -2   9   11.20    0.94
   1   2  -9    2.99    0.43
   1   2  -9    2.07    0.39
  -1  -2   9    2.67    0.52
  -1  -2   9    3.42    0.58
   0   2  -9    2.55    0.42
   0   2  -9    2.55    0.35
   0  -2   9    1.78    0.49
   0  -2   9    2.89    0.48
  -1   2  -9   30.68    1.44
  -1   2  -9   31.43    1.59
   1  -2   9   31.03    1.45
   1  -2   9   30.94    1.82
   1  -2   9   31.93    1.45
  -2   2  -9  128.14    5.15
   2  -2   9  131.14    4.87
   2  -2   9  138.02    5.03
   2  -2   9  124.22    5.44
  -3   2  -9    0.64    0.48
   3  -2   9   -0.07    0.49
   3  -2   9    0.01    0.67
  -4   2  -9    0.47    0.58
   4  -2   9   -0.16    0.84
   4  -2   9    0.73    0.66
  -5   2  -9    3.46    0.90
   5  -2   9    4.30    0.92
   5  -2   9    6.08    1.24
  -6   2  -9   -0.11    1.01
   6  -2   9    0.77    1.11
   6  -2   9    3.33    1.37
  -7   2  -9    1.20    1.35
   7  -2   9    3.15    1.50
   7   1  -9   -0.78    1.02
  -7  -1   9    0.55    0.82
   6   1  -9    1.39    0.91
   6   1  -9   -0.13    0.83
  -6  -1   9    0.04    0.64
   5   1  -9    4.56    0.74
   5   1  -9    5.33    0.83
  -5  -1   9    5.90    0.92
   4   1  -9   50.43    2.53
   4   1  -9   53.51    2.37
  -4  -1   9   53.03    2.55
   3   1  -9   13.05    1.03
   3   1  -9   12.92    0.91
  -3  -1   9   12.29    1.02
   2   1  -9   11.98    0.81
   2   1  -9   11.17    0.90
  -2  -1   9   11.65    0.95
   1   1  -9    0.01    0.34
   1   1  -9    0.50    0.28
  -1  -1   9    0.48    0.37
   0   1  -9    4.00    0.58
   0   1  -9    4.17    0.59
   0  -1   9    3.62    0.63
   0  -1   9    3.92    0.54
  -1   1  -9   12.28    0.90
  -1   1  -9   10.54    0.82
   1  -1   9   12.29    0.87
   1  -1   9    9.85    0.84
   1  -1   9   11.51    1.04
  -2   1  -9   11.39    0.98
   2  -1   9   11.14    0.98
   2  -1   9    9.85    1.08
  -3   1  -9   25.31    1.62
   3  -1   9   25.25    1.56
   3  -1   9   24.00    1.74
  -4   1  -9   11.64    1.34
   4  -1   9   14.37    1.62
   4  -1   9   12.66    1.43
  -5   1  -9    2.15    0.94
   5  -1   9    1.56    0.93
   5  -1   9    2.67    1.16
  -6   1  -9    1.60    1.14
   6  -1   9    1.00    1.21
  -7   1  -9    1.10    1.58
   7  -1   9    0.55    1.62
   7   0  -9    4.73    1.17
  -7   0   9    3.12    0.84
   6   0  -9    2.94    0.86
  -6   0   9    1.41    0.73
   5   0  -9    0.25    0.50
   5   0  -9    0.92    0.62
  -5   0   9    0.89    0.59
   4   0  -9    9.15    1.00
   4   0  -9   11.09    0.80
  -4   0   9    8.64    1.00
   3   0  -9    3.14    0.69
   3   0  -9    4.65    0.57
   3   0  -9    3.78    0.56
  -3   0   9    4.13    0.65
   2   0  -9    4.11    0.70
   2   0  -9    3.65    0.56
   2   0  -9    4.68    0.51
  -2   0   9    2.86    0.69
  -2   0   9    4.90    0.68
   1   0  -9   54.39    2.27
   1   0  -9   52.98    2.38
  -1   0   9   52.67    2.45
   0   0  -9   55.95    2.49
   0   0  -9   55.98    2.43
   0   0   9   58.60    2.60
  -1   0  -9   11.76    0.92
  -1   0  -9   11.88    0.94
   1   0   9   11.16    0.97
   1   0   9   10.51    0.94
  -2   0  -9    9.64    0.99
   2   0   9    8.48    1.00
   2   0   9    8.96    0.97
  -3   0  -9    0.52    0.57
   3   0   9    0.87    0.68
   3   0   9    1.50    0.64
  -4   0  -9   10.45    1.36
   4   0   9   11.36    1.38
   4   0   9    9.65    1.54
  -5   0  -9   12.05    1.77
   5   0   9   13.69    1.81
  -6   0  -9    4.60    1.44
   6   0   9    2.91    1.39
   8  -1  -9    0.61    1.28
   7  -1  -9    3.55    1.10
  -7   1   9    5.07    0.92
   6  -1  -9   32.40    2.15
  -6   1   9   32.38    2.03
   5  -1  -9    3.90    0.75
  -5   1   9    3.14    0.84
   4  -1  -9    7.13    0.58
   4  -1  -9    6.70    1.06
  -4   1   9    6.76    0.94
   3  -1  -9    0.30    0.47
   3  -1  -9    1.04    0.31
   3  -1  -9    0.59    0.58
  -3   1   9    0.43    0.39
   2  -1  -9    0.79    0.40
  -2   1   9   -0.22    0.33
  -2   1   9    0.47    0.56
   1  -1  -9   16.71    1.17
   1  -1  -9   14.91    0.96
  -1   1   9   16.32    1.11
   0  -1  -9    0.78    0.40
   0  -1  -9    0.93    0.42
   0   1   9    0.56    0.42
   0   1   9    0.69    0.39
  -1  -1  -9    2.48    0.53
  -1  -1  -9    1.95    0.55
   1   1   9    1.84    0.44
   1   1   9    1.86    0.55
  -2  -1  -9   26.38    1.64
   2   1   9   23.17    1.56
   2   1   9   20.80    1.41
  -3  -1  -9    0.46    0.73
   3   1   9   -0.09    0.66
   3   1   9    0.13    0.67
  -4  -1  -9    3.16    0.95
   4   1   9    3.79    1.01
   4   1   9    4.02    0.99
  -5  -1  -9    0.27    1.15
   5   1   9   -2.53    1.12
  -6  -1  -9   19.71    2.58
   6   1   9   17.87    2.61
   8  -2  -9    7.83    1.42
   7  -2  -9   12.67    1.82
  -7   2   9   12.58    1.52
   6  -2  -9    5.55    0.98
  -6   2   9    5.66    0.85
   5  -2  -9   -0.18    0.72
  -5   2   9    0.71    0.61
   4  -2  -9    1.99    0.62
  -4   2   9    2.78    0.58
   3  -2  -9   25.26    1.12
   3  -2  -9   23.51    1.56
  -3   2   9   24.76    1.56
   2  -2  -9    5.65    0.64
   2  -2  -9    4.00    0.60
  -2   2   9    6.55    0.82
  -2   2   9    4.76    0.66
   1  -2  -9   32.70    1.65
   1  -2  -9   34.28    1.88
  -1   2   9   34.83    1.79
   0  -2  -9    0.76    0.47
   0  -2  -9    0.28    0.52
   0   2   9   -0.06    0.47
   0   2   9    0.35    0.38
  -1  -2  -9    0.01    0.52
  -1  -2  -9    0.61    0.59
   1   2   9    0.26    0.63
   1   2   9    0.62    0.44
  -2  -2  -9    5.53    0.89
   2   2   9    3.23    0.61
   2   2   9    4.39    0.76
   3   2   9    5.95    0.83
   3   2   9    5.43    1.04
  -4  -2  -9    5.37    1.19
   4   2   9    6.95    1.24
  -5  -2  -9   17.77    2.35
   5   2   9   11.53    1.66
   7  -3  -9    8.45    1.25
  -7   3   9    7.76    1.24
   6  -3  -9    3.25    0.91
  -6   3   9    4.54    0.97
   5  -3  -9   -0.42    0.66
  -5   3   9   -0.06    0.69
   4  -3  -9    0.85    0.64
  -4   3   9    0.34    0.54
   3  -3  -9    1.47    0.67
  -3   3   9    2.18    0.63
   2  -3  -9    7.36    0.79
   2  -3  -9    5.85    0.84
  -2   3   9    6.45    0.89
   1  -3  -9    2.03    0.60
   1  -3  -9    1.54    0.57
  -1   3   9    1.96    0.53
   0  -3  -9   14.58    1.36
   0  -3  -9   14.72    1.28
   0   3   9   15.88    1.38
   0   3   9   15.83    1.10
  -1  -3  -9    3.63    0.79
  -1  -3  -9    3.26    0.79
   1   3   9    4.05    0.90
   1   3   9    4.94    0.78
  -2  -3  -9   21.13    1.81
   2   3   9   18.14    2.29
   2   3   9   19.61    1.39
  -3  -3  -9    3.66    1.12
   3   3   9    3.91    0.99
  -4  -3  -9    1.91    1.34
   4   3   9    3.14    1.30
  -5  -3  -9    7.91    1.68
   5   3   9    9.01    1.73
   7  -4  -9    1.09    1.07
  -7   4   9    0.50    0.91
   6  -4  -9    1.12    0.91
  -6   4   9   -0.71    0.84
   5  -4  -9    0.24    0.81
  -5   4   9    0.31    0.76
   4  -4  -9    2.37    0.79
  -4   4   9    0.53    0.63
   2  -4  -9   13.16    1.33
   2  -4  -9   13.20    1.14
  -2   4   9   13.55    1.18
   1  -4  -9    3.55    0.71
   1  -4  -9    2.93    0.71
  -1   4   9    3.89    0.64
  -1   4   9    3.30    0.75
   0  -4  -9   -0.19    0.75
   0   4   9   -0.07    0.46
   0   4   9   -0.22    1.08
  -1  -4  -9    8.83    1.19
   1   4   9   11.20    1.51
   1   4   9   11.91    1.01
  -2  -4  -9   11.08    1.52
   2   4   9   12.17    1.30
   2   4   9   16.64    1.84
  -3  -4  -9   23.73    2.30
   3   4   9   22.24    2.23
  -4  -4  -9    0.05    1.53
   4   4   9    3.86    1.48
   7  -5  -9   -0.77    1.19
  -7   5   9   -0.97    1.04
   6  -5  -9    1.34    1.03
  -6   5   9   -0.11    0.93
   5  -5  -9    4.17    0.97
  -5   5   9    2.13    0.88
   4  -5  -9   12.96    1.49
  -4   5   9    9.25    1.42
   3  -5  -9    0.11    0.82
  -3   5   9    1.96    0.66
   2  -5  -9    0.15    0.75
   1  -5  -9    1.41    0.81
   1  -5  -9    0.99    0.85
  -1   5   9    0.62    0.62
  -1   5   9    1.80    0.79
   0  -5  -9   18.75    1.82
   0  -5  -9   19.92    1.77
   0   5   9   18.62    1.36
   0   5   9   22.78    1.87
  -1  -5  -9    4.33    1.13
   1   5   9    2.75    1.07
   1   5   9    4.08    0.69
  -2  -5  -9    0.44    1.26
   2   5   9    2.17    1.16
  -3  -5  -9    0.59    1.52
   3   5   9    0.60    1.36
   6  -6  -9    1.91    1.17
  -6   6   9   -0.38    0.93
   5  -6  -9    0.12    1.01
  -5   6   9    0.19    0.95
   4  -6  -9   -0.32    0.97
  -4   6   9    1.09    0.88
   3  -6  -9   -0.88    0.85
  -3   6   9    0.53    0.69
   2  -6  -9    2.57    0.96
  -2   6   9    0.33    0.77
  -2   6   9   -0.08    0.89
   1  -6  -9    4.26    1.05
  -1   6   9    2.85    0.97
   0  -6  -9   13.51    2.08
   0  -6  -9   13.10    1.90
   0   6   9   11.35    1.59
   0   6   9   11.03    1.32
  -1  -6  -9    9.38    1.58
   1   6   9    9.07    1.40
  -2  -6  -9    1.17    1.62
   2   6   9    1.35    1.43
   5  -7  -9    1.05    1.20
  -5   7   9   -1.18    1.05
   4  -7  -9    2.99    1.14
  -4   7   9    1.65    1.04
   3  -7  -9    1.03    1.11
  -3   7   9    0.94    0.93
   2  -7  -9    9.31    1.40
  -2   7   9    9.65    1.48
  -2   7   9    7.66    1.28
   1  -7  -9    3.89    1.22
  -1   7   9    4.99    0.93
  -1   7   9    2.56    1.21
   0  -7  -9    6.22    1.45
   3  -8  -9    3.56    1.37
  -3   8   9    2.02    1.33
  -3   8   9   -0.26    1.06
   2  -8  -9    3.46    1.38
   0  11 -10    0.65    1.45
   0 -11  10    3.12    2.19
   1 -11  10   -3.85    1.98
  -2  11 -10   11.95    1.80
   2 -11  10   11.12    2.35
  -3  11 -10   45.60    2.81
   3 -11  10   42.68    4.07
  -4  11 -10    6.31    1.16
   4 -11  10    5.77    2.38
   5 -11  10    6.00    2.45
   1  10 -10    0.77    1.27
  -1 -10  10    6.08    1.77
   0  10 -10    4.73    1.29
   0 -10  10    9.27    1.97
  -1  10 -10    7.17    1.24
   1 -10  10    9.22    1.95
  -2  10 -10   -0.91    0.86
   2 -10  10    0.33    1.59
  -3  10 -10    4.61    0.96
   3 -10  10    4.78    1.98
  -4  10 -10   15.76    1.61
   4 -10  10   12.67    2.32
  -5  10 -10    4.06    1.00
   5 -10  10   -1.89    1.88
  -6  10 -10    4.81    1.23
   6 -10  10    6.58    2.60
   3   9 -10    3.31    1.52
   2   9 -10    3.32    1.41
  -2  -9  10    4.79    1.65
   1   9 -10    1.52    1.14
  -1  -9  10    4.57    1.49
   0   9 -10    4.34    1.02
   0  -9  10    5.81    1.57
  -1   9 -10   21.45    1.84
   1  -9  10   19.31    2.45
   2  -9  10    3.74    1.54
  -3   9 -10    1.26    0.79
   3  -9  10   -1.70    1.50
  -4   9 -10    2.24    0.79
   4  -9  10    0.02    1.62
  -5   9 -10    0.68    0.86
   5  -9  10    3.34    1.69
  -6   9 -10    8.75    1.26
   6  -9  10   10.26    2.36
   4   8 -10   -3.50    1.55
   3   8 -10    4.47    1.26
  -3  -8  10    2.05    1.50
   2   8 -10   -0.23    1.03
  -2  -8  10   -0.81    1.22
   1   8 -10    9.51    1.32
  -1  -8  10    6.91    1.47
   0   8 -10    3.85    0.90
   0  -8  10    3.38    1.22
  -1   8 -10    0.34    0.66
   1  -8  10   -0.34    1.24
  -2   8 -10    2.90    0.77
   2  -8  10    3.44    1.26
  -3   8 -10    3.52    0.78
   3  -8  10    5.48    1.35
  -4   8 -10   12.94    1.37
   4  -8  10   12.60    1.97
  -5   8 -10   17.18    1.63
   5  -8  10   20.19    3.09
  -6   8 -10   -1.08    0.93
   6  -8  10   -1.02    1.99
  -7   8 -10   10.86    1.45
   7  -8  10    8.16    2.53
   4   7 -10   -0.65    1.65
   4   7 -10   -0.06    1.27
  -4  -7  10    2.62    1.34
   3   7 -10    7.47    1.12
   3   7 -10    8.01    1.32
  -3  -7  10    7.31    1.36
   2   7 -10    0.88    0.86
   1   7 -10    0.38    0.83
  -1  -7  10    1.22    1.05
   0   7 -10    3.34    1.31
   0  -7  10    3.20    1.15
  -1   7 -10    5.33    1.16
   1  -7  10    5.03    1.10
  -3   7 -10    3.54    0.69
   3  -7  10    4.05    1.18
  -4   7 -10    0.10    0.63
   4  -7  10    1.98    1.41
  -5   7 -10   10.30    1.38
   5  -7  10    7.78    1.77
  -6   7 -10    0.28    0.85
   6  -7  10    4.07    1.83
  -7   7 -10    1.90    1.13
   7  -7  10    4.70    2.13
   5   6 -10   10.77    1.41
   5   6 -10    7.52    1.61
  -5  -6  10    9.01    1.75
   4   6 -10   -0.53    1.09
   4   6 -10   -0.57    0.84
  -4  -6  10   -0.99    1.21
   3   6 -10    4.07    0.72
   3   6 -10    4.65    1.00
  -3  -6  10    3.12    1.04
   2   6 -10   33.63    1.72
   2   6 -10   32.10    2.99
  -2  -6  10   35.37    2.39
   1   6 -10    2.89    0.73
   1   6 -10    2.41    0.42
  -1  -6  10    0.88    0.91
   0   6 -10    6.21    0.88
   0  -6  10    6.71    1.20
  -1   6 -10    4.03    0.67
   1  -6  10    3.31    1.01
  -2   6 -10   30.54    1.82
   2  -6  10   33.73    2.53
  -3   6 -10   39.71    2.25
   3  -6  10   42.33    2.96
  -4   6 -10    0.86    0.62
   4  -6  10    1.17    1.47
  -5   6 -10    2.36    0.78
   5  -6  10    2.65    1.49
  -6   6 -10    2.67    0.90
   6  -6  10    3.19    1.77
  -7   6 -10   -0.02    1.10
   7  -6  10    2.32    2.05
   6   5 -10   -2.61    1.22
   6   5 -10    0.46    1.56
   5   5 -10    6.26    1.08
   5   5 -10    6.21    1.38
  -5  -5  10    4.94    1.14
   4   5 -10    9.75    1.29
   4   5 -10   12.26    1.60
  -4  -5  10   10.18    1.72
   3   5 -10    0.20    0.81
   3   5 -10    0.82    0.58
  -3  -5  10    0.85    0.82
   2   5 -10   -0.13    0.67
   2   5 -10   -0.30    0.42
  -2  -5  10   -0.91    0.71
   1   5 -10    3.95    0.45
   1   5 -10    3.17    0.68
  -1  -5  10    3.10    0.74
   0   5 -10    2.01    0.59
   0  -5  10    2.01    0.77
  -1   5 -10    2.26    0.52
   1  -5  10    2.70    0.78
  -2   5 -10    8.46    0.90
   2  -5  10    6.55    1.27
  -3   5 -10    7.49    0.93
   3  -5  10    4.69    1.22
  -4   5 -10    2.18    0.64
   4  -5  10    4.43    1.22
  -5   5 -10   -0.22    0.69
  -6   5 -10    4.63    0.98
   6  -5  10    5.96    1.78
  -7   5 -10    2.44    1.31
   7  -5  10    1.64    1.99
   6   4 -10   -0.54    1.33
   6   4 -10    0.14    1.16
  -6  -4  10    1.73    1.05
   5   4 -10    6.16    1.21
   5   4 -10    8.45    1.45
  -5  -4  10    5.56    1.04
   4   4 -10   15.66    1.65
   4   4 -10   19.88    1.44
  -4  -4  10   15.21    1.63
   3   4 -10    2.08    0.56
   3   4 -10    2.16    0.69
  -3  -4  10    3.17    0.77
   2   4 -10    8.59    1.01
   2   4 -10    8.28    0.79
  -2  -4  10    6.24    1.01
   1   4 -10    7.25    0.86
   1   4 -10    7.61    0.72
  -1  -4  10    6.88    1.12
  -1  -4  10    8.54    0.89
   0   4 -10    2.03    0.50
   0   4 -10    2.18    0.30
   0  -4  10    2.04    0.74
   0  -4  10    2.09    0.37
  -1   4 -10   76.09    3.20
   1  -4  10   70.22    3.62
  -2   4 -10   16.93    1.19
   2  -4  10   16.62    1.54
  -3   4 -10   14.53    1.22
   3  -4  10   15.84    0.90
   3  -4  10   15.42    1.79
  -4   4 -10    1.47    0.61
   4  -4  10    0.58    1.08
   4  -4  10    1.87    0.57
  -5   4 -10    0.21    0.76
   5  -4  10    1.69    1.28
  -6   4 -10   23.62    2.03
   6  -4  10   22.67    3.20
  -7   4 -10    6.86    1.47
   6   3 -10   22.56    2.04
  -6  -3  10   22.47    1.96
   5   3 -10    0.25    0.83
   5   3 -10    1.79    0.91
  -5  -3  10    1.06    0.77
   4   3 -10    2.94    0.75
   4   3 -10    3.71    0.73
  -4  -3  10    3.00    0.73
   3   3 -10    0.96    0.49
   3   3 -10    2.23    0.58
  -3  -3  10    0.55    0.58
   2   3 -10    2.08    0.43
   2   3 -10    3.55    0.60
  -2  -3  10    2.08    0.62
   1   3 -10    0.53    0.52
   1   3 -10    0.56    0.41
  -1  -3  10    0.54    0.47
  -1  -3  10    1.40    0.56
   0   3 -10    0.03    0.28
   0   3 -10    0.39    0.34
   0  -3  10    0.46    0.47
   0  -3  10    0.27    0.48
  -1   3 -10    0.25    0.37
   1  -3  10    0.25    0.31
   1  -3  10    0.83    0.40
   1  -3  10   -0.38    0.58
  -2   3 -10    5.78    0.87
   2  -3  10    6.11    1.02
   2  -3  10    4.74    0.67
   2  -3  10    4.73    0.72
  -3   3 -10   25.75    1.57
   3  -3  10   26.08    2.02
   3  -3  10   23.44    1.56
  -4   3 -10   -0.21    0.62
   4  -3  10    0.04    0.67
   4  -3  10    0.60    1.01
  -5   3 -10    0.39    0.79
   5  -3  10    1.02    1.18
   5  -3  10    0.97    0.86
  -6   3 -10    1.81    0.99
   6  -3  10    0.90    1.52
  -7   3 -10    4.62    1.53
   7   2 -10    5.09    1.34
  -7  -2  10    4.65    1.09
   6   2 -10    6.76    1.15
  -6  -2  10    7.18    1.05
   5   2 -10   20.15    1.67
   5   2 -10   17.93    1.58
  -5  -2  10   22.40    1.55
   4   2 -10   44.84    2.31
   4   2 -10   42.97    2.24
  -4  -2  10   48.73    2.41
   3   2 -10    8.06    0.94
   3   2 -10    8.80    0.94
  -3  -2  10    9.03    1.04
   2   2 -10   24.64    1.41
   2   2 -10   26.01    1.41
  -2  -2  10   26.15    1.63
   1   2 -10   12.90    0.94
   1   2 -10   13.34    0.94
  -1  -2  10   12.18    1.05
   0   2 -10   43.67    1.97
   0   2 -10   40.71    1.82
   0  -2  10   41.70    1.97
   0  -2  10   38.02    2.20
  -1   2 -10   39.64    2.14
  -1   2 -10   48.47    2.23
   1  -2  10   48.14    2.03
   1  -2  10   46.08    2.43
  -2   2 -10   12.41    1.06
   2  -2  10   11.18    0.93
   2  -2  10   11.15    1.08
   2  -2  10   10.67    1.26
  -3   2 -10    0.77    0.63
   3  -2  10    2.90    0.84
   3  -2  10    2.09    0.64
  -4   2 -10   52.37    2.79
   4  -2  10   50.20    3.10
   4  -2  10   54.19    2.69
  -5   2 -10    1.22    0.89
   5  -2  10    0.15    0.93
   5  -2  10    0.43    1.23
  -6   2 -10    0.19    1.18
   6  -2  10   -0.27    1.25
  -7   2 -10    2.83    1.56
   7   1 -10    4.37    1.27
  -7  -1  10    3.94    0.96
   6   1 -10    3.30    0.90
  -6  -1  10    2.22    0.75
   5   1 -10   -0.11    0.69
   5   1 -10    1.04    0.65
  -5  -1  10   -0.27    0.60
   4   1 -10    2.47    0.55
   4   1 -10    1.88    0.62
  -4  -1  10    2.14    0.54
   3   1 -10   12.40    1.08
   3   1 -10   13.58    0.95
  -3  -1  10   13.78    1.07
   2   1 -10   23.38    1.37
   2   1 -10   23.33    1.25
  -2  -1  10   22.96    1.46
   1   1 -10    2.17    0.43
   1   1 -10    1.83    0.43
  -1  -1  10    1.28    0.45
   0   1 -10    2.50    0.48
   0   1 -10    2.00    0.41
   0  -1  10    1.86    0.54
  -1   1 -10   48.80    2.21
  -1   1 -10   51.15    2.31
   1  -1  10   46.35    2.22
   1  -1  10   50.14    2.52
  -2   1 -10    3.19    0.67
   2  -1  10    2.14    0.56
   2  -1  10    2.70    0.69
  -3   1 -10    0.46    0.59
   3  -1  10   -0.06    0.78
   3  -1  10    1.31    0.62
  -4   1 -10    0.47    0.76
   4  -1  10    0.20    0.78
   4  -1  10    1.09    0.93
  -5   1 -10   16.36    1.88
   5  -1  10   15.90    2.28
   5  -1  10   16.89    1.99
  -6   1 -10    5.66    1.47
   6  -1  10    4.92    1.47
   7   0 -10    0.70    1.06
  -7   0  10    1.04    0.94
   6   0 -10    3.32    0.95
  -6   0  10    2.98    0.86
  -5   0  10    4.26    0.77
   4   0 -10    1.55    0.61
   4   0 -10    1.61    0.45
   3   0 -10    0.72    0.36
   3   0 -10   -0.21    0.47
  -3   0  10    0.49    0.47
   2   0 -10   50.36    2.36
   2   0 -10   49.36    2.10
  -2   0  10   46.84    2.38
   1   0 -10   30.60    1.66
   1   0 -10   29.72    1.53
  -1   0  10   31.56    1.73
   0   0 -10   21.91    1.33
   0   0 -10   24.82    1.38
   0   0  10   24.80    1.49
   0   0  10   22.84    1.41
  -1   0 -10    0.52    0.46
  -1   0 -10   -0.01    0.46
   1   0  10   -0.30    0.51
   1   0  10   -0.12    0.49
  -2   0 -10   30.26    1.78
   2   0  10   26.17    1.77
   2   0  10   27.02    1.68
  -3   0 -10   23.19    1.73
   3   0  10   24.41    1.77
   3   0  10   22.02    1.72
  -4   0 -10    4.24    1.08
   4   0  10    5.25    1.03
   4   0  10    6.77    1.18
  -5   0 -10   -0.20    1.10
   5   0  10    0.97    1.18
  -6   0 -10   -1.17    1.46
   6   0  10    1.41    1.48
   7  -1 -10    1.68    1.06
  -7   1  10   -0.88    0.92
   6  -1 -10    6.42    1.04
  -6   1  10    3.92    0.88
   5  -1 -10    0.18    0.72
  -5   1  10    0.66    0.66
   4  -1 -10   27.12    1.75
  -4   1  10   26.36    1.66
   3  -1 -10    4.52    0.74
  -3   1  10    3.76    0.67
   2  -1 -10    2.51    0.57
   2  -1 -10    2.94    0.43
  -2   1  10    2.62    0.54
  -2   1  10    2.71    0.87
   1  -1 -10   12.67    1.09
   1  -1 -10   11.18    0.89
  -1   1  10   10.89    0.97
   0  -1 -10    0.70    0.55
   0  -1 -10   -0.04    0.45
   0   1  10    0.35    0.53
   0   1  10    1.35    0.48
  -1  -1 -10    1.80    0.58
  -1  -1 -10    2.34    0.62
   1   1  10    1.16    0.51
   1   1  10    0.77    0.61
  -2  -1 -10   16.50    1.39
   2   1  10   14.40    1.32
   2   1  10   13.08    1.32
  -3  -1 -10    0.55    0.82
   3   1  10    0.68    0.80
   3   1  10   -0.27    0.81
  -4  -1 -10    1.97    1.03
   4   1  10    0.59    1.03
  -5  -1 -10    0.32    1.39
   5   1  10   -2.90    1.23
   7  -2 -10    4.55    1.13
  -7   2  10    3.11    0.96
   6  -2 -10   -0.10    0.86
  -6   2  10   -0.26    0.81
   5  -2 -10    0.64    0.73
  -5   2  10    0.85    0.71
   4  -2 -10   20.08    1.74
  -4   2  10   20.69    1.49
   3  -2 -10    0.38    0.47
   3  -2 -10    1.79    0.61
   2  -2 -10   17.01    1.07
   2  -2 -10   19.33    1.44
  -2   2  10   16.89    1.34
   1  -2 -10    2.92    0.66
   1  -2 -10    2.59    0.52
  -1   2  10    2.60    0.54
   0  -2 -10   26.97    1.73
   0  -2 -10   23.64    1.55
   0   2  10   27.24    1.57
   0   2  10   23.75    1.67
  -1  -2 -10   16.04    1.46
  -1  -2 -10   18.75    1.50
   1   2  10   16.57    1.47
   1   2  10   17.41    1.30
  -2  -2 -10    6.92    1.07
   2   2  10    8.54    1.15
   2   2  10    7.57    1.04
  -3  -2 -10    3.85    1.07
   3   2  10    4.11    1.09
   3   2  10    3.60    0.90
  -4  -2 -10    4.12    1.27
   4   2  10    1.97    1.24
  -5  -2 -10    1.15    1.58
   5   2  10   -1.73    1.34
   7  -3 -10    2.78    1.17
  -7   3  10    2.10    0.96
   6  -3 -10    9.57    1.29
  -6   3  10   10.80    1.47
   5  -3 -10    9.78    1.27
  -5   3  10   13.60    1.45
   4  -3 -10    1.07    0.72
  -4   3  10    0.86    0.63
  -3   3  10    4.01    0.74
   2  -3 -10    0.61    0.56
   2  -3 -10    0.19    0.67
  -2   3  10    0.12    0.57
   1  -3 -10   31.04    1.83
   1  -3 -10   36.89    2.13
  -1   3  10   33.87    1.87
   0  -3 -10    1.91    0.75
   0  -3 -10    2.73    0.73
   0   3  10    2.47    0.71
   0   3  10    2.28    0.56
  -1  -3 -10    3.29    0.89
   1   3  10    4.10    0.66
  -2  -3 -10    1.98    1.12
   2   3  10    0.93    0.94
   2   3  10   -0.68    0.69
  -3  -3 -10    1.95    1.23
   3   3  10   -1.07    1.09
  -4  -3 -10   -0.37    1.51
   4   3  10    0.91    1.36
   7  -4 -10    3.43    1.19
  -7   4  10    2.48    1.10
   6  -4 -10    3.66    1.08
  -6   4  10    5.13    1.07
   5  -4 -10    3.19    0.95
  -5   4  10    1.49    0.79
   4  -4 -10    1.65    0.82
  -4   4  10    2.01    0.72
   3  -4 -10    6.99    1.11
  -3   4  10    9.10    1.18
   2  -4 -10    0.09    0.73
  -2   4  10    0.81    0.64
   1  -4 -10    2.23    0.82
   1  -4 -10    2.90    0.89
  -1   4  10    2.42    0.82
  -1   4  10    2.78    0.69
   0  -4 -10   36.39    2.29
   0  -4 -10   31.99    2.19
   0   4  10   37.89    2.00
   0   4  10   35.81    2.40
  -1  -4 -10   -1.30    0.93
   1   4  10    0.63    0.92
   1   4  10   -0.18    0.64
  -2  -4 -10    2.41    1.20
   2   4  10    3.62    1.11
  -3  -4 -10    2.53    1.35
   3   4  10   -0.07    1.28
   6  -5 -10    5.79    1.25
  -6   5  10    5.11    1.11
   5  -5 -10   -0.19    1.04
  -5   5  10    0.95    0.92
   4  -5 -10   -0.69    0.94
  -4   5  10   -1.63    0.74
   3  -5 -10    7.63    1.11
  -3   5  10    9.23    1.29
   2  -5 -10   10.75    1.62
  -2   5  10   10.54    1.41
   1  -5 -10   10.87    1.44
  -1   5  10   13.26    1.57
  -1   5  10   12.12    1.33
   0  -5 -10    1.75    1.16
   0  -5 -10    1.27    1.08
   0   5  10    0.13    0.70
   0   5  10    0.50    1.01
  -1  -5 -10    1.61    1.26
   1   5  10    2.09    1.15
  -2  -5 -10    6.85    1.58
   2   5  10   10.03    1.50
   5  -6 -10    5.95    1.24
  -5   6  10    7.96    1.22
   4  -6 -10   -1.04    1.12
  -4   6  10   -1.32    0.87
   3  -6 -10    1.47    1.09
  -3   6  10   -0.69    0.85
   2  -6 -10    1.91    1.03
  -2   6  10    3.00    0.90
  -2   6  10    0.60    1.01
   1  -6 -10    1.55    1.11
  -1   6  10    1.84    0.85
  -1   6  10    1.85    1.11
   0  -6 -10   -0.99    1.17
   0   6  10    0.24    0.82
   0   6  10   -1.67    1.33
   1   6  10    6.23    1.56
   4  -7 -10   18.03    2.51
  -4   7  10   21.83    2.07
   3  -7 -10    2.62    1.30
  -3   7  10    1.35    0.96
   2  -7 -10   -1.65    1.33
  -2   7  10    1.11    1.00
  -2   7  10    3.02    1.37
   1  -7 -10    0.30    1.28
  -1   7  10    5.20    1.36
  -1   7  10    0.75    1.02
  -1  11 -11    2.12    1.30
   1 -11  11    3.10    2.24
  -2  11 -11   -0.49    1.08
   2 -11  11    0.51    2.18
  -3  11 -11    4.21    1.14
   3 -11  11    7.65    2.42
   1  10 -11    0.42    1.32
  -1 -10  11   -0.88    1.96
   0  10 -11    7.30    1.27
   0 -10  11    4.55    1.92
  -1  10 -11   -0.87    1.04
   1 -10  11    0.36    1.90
  -2  10 -11    3.49    1.00
   2 -10  11    2.83    1.91
  -3  10 -11    7.43    1.20
   3 -10  11    9.68    2.04
  -4  10 -11    5.98    1.10
   4 -10  11    7.70    2.13
  -5  10 -11   -0.59    1.04
   5 -10  11    5.33    2.37
   2   9 -11   -0.40    1.29
  -2  -9  11    3.16    1.74
   1   9 -11    3.07    1.22
  -1  -9  11    2.57    1.61
   0   9 -11    4.56    1.10
   0  -9  11    3.93    1.65
  -1   9 -11    5.91    1.11
   1  -9  11    4.19    1.61
  -2   9 -11   -0.26    0.86
   2  -9  11   -0.70    1.59
  -3   9 -11    9.36    1.18
   3  -9  11    9.77    1.91
  -4   9 -11    5.53    0.98
   4  -9  11    4.18    1.83
  -5   9 -11    0.04    0.90
   5  -9  11    1.92    1.85
  -6   9 -11    3.71    1.18
   6  -9  11    4.30    2.53
   3   8 -11    2.83    1.31
  -3  -8  11   -0.24    1.60
   2   8 -11   -1.31    1.06
  -2  -8  11    2.42    1.36
   1   8 -11   -0.49    0.91
  -1  -8  11    1.67    1.37
   0   8 -11    1.67    0.85
   0  -8  11    0.67    1.29
  -1   8 -11    3.04    0.79
   1  -8  11    4.64    1.47
  -2   8 -11   18.27    1.57
   2  -8  11   16.88    2.52
  -3   8 -11    3.84    0.78
   3  -8  11    3.73    1.50
  -4   8 -11    3.46    0.82
   4  -8  11    4.96    1.74
  -5   8 -11    0.04    0.89
   5  -8  11   -3.60    1.92
  -6   8 -11    2.62    1.06
   6  -8  11    3.43    2.17
   4   7 -11   -0.48    1.29
  -4  -7  11    2.49    1.51
   3   7 -11   -0.71    1.08
  -3  -7  11    1.86    1.27
   2   7 -11   10.68    1.38
  -2  -7  11   13.01    1.97
   1   7 -11    5.42    0.88
  -1  -7  11    4.31    1.30
   0   7 -11    3.48    0.84
   0  -7  11    1.18    1.17
  -1   7 -11    0.82    0.67
   1  -7  11   -0.27    1.16
  -2   7 -11    0.32    0.61
   2  -7  11    0.20    1.20
  -3   7 -11    1.74    0.67
   3  -7  11    2.11    1.39
  -4   7 -11    0.71    0.76
   4  -7  11   -1.07    1.40
  -5   7 -11    2.43    0.88
   5  -7  11    3.06    1.76
  -6   7 -11   -0.05    1.00
   6  -7  11    1.31    2.03
   5   6 -11    1.66    1.42
  -5  -6  11    1.39    1.43
   4   6 -11    2.79    1.21
  -4  -6  11    0.56    1.15
   3   6 -11   -0.07    0.88
  -3  -6  11    0.56    1.05
   2   6 -11    4.07    0.91
  -2  -6  11    4.64    1.08
  -1  -6  11    3.05    1.09
   0   6 -11   27.60    1.99
   0  -6  11   26.03    2.66
   1  -6  11    4.90    1.43
  -2   6 -11   11.96    1.19
   2  -6  11   10.93    1.66
  -3   6 -11    5.87    0.81
   3  -6  11    6.96    1.32
  -4   6 -11   17.60    1.58
   4  -6  11   20.72    2.50
  -5   6 -11   30.51    2.10
   5  -6  11   32.08    3.37
  -6   6 -11   14.38    1.75
   6  -6  11   13.48    2.33
   5   5 -11    1.03    1.01
   5   5 -11    0.27    1.22
  -5  -5  11   -0.57    1.16
   4   5 -11    1.51    0.95
   4   5 -11    1.73    0.75
  -4  -5  11    2.01    1.00
   3   5 -11    1.48    0.59
  -3  -5  11    0.67    0.94
   2   5 -11   14.64    1.36
   2   5 -11   15.67    1.12
   1   5 -11    5.25    0.79
   1   5 -11    6.55    0.72
  -1  -5  11    4.94    0.97
   0   5 -11   -0.47    0.50
   0  -5  11   -0.41    0.84
  -1   5 -11   18.96    1.37
   1  -5  11   20.37    1.94
  -2   5 -11   29.33    1.73
   2  -5  11   28.56    2.36
  -3   5 -11    2.01    0.66
  -4   5 -11    3.53    0.83
   4  -5  11    2.21    1.22
  -5   5 -11   30.97    2.16
   5  -5  11   37.73    3.11
  -6   5 -11   -0.19    0.97
   6  -5  11   -2.89    1.85
   6   4 -11    6.56    1.33
   6   4 -11    4.68    1.45
  -6  -4  11    5.84    1.36
   5   4 -11    0.46    0.89
   5   4 -11   -0.29    1.05
  -5  -4  11   -0.37    0.99
   4   4 -11    0.20    0.83
   4   4 -11    2.50    0.74
  -4  -4  11    1.60    0.94
   3   4 -11    2.69    0.60
   3   4 -11    3.24    0.73
  -3  -4  11    2.61    0.85
   2   4 -11    5.48    0.82
   2   4 -11    5.30    0.63
  -2  -4  11    5.79    0.95
   1   4 -11    6.85    0.96
   1   4 -11    6.15    0.80
  -1  -4  11    6.60    1.12
   0   4 -11    9.63    0.65
   0   4 -11    9.48    0.95
   0  -4  11    7.97    1.38
  -1   4 -11   22.60    1.41
   1  -4  11   20.68    1.75
  -2   4 -11   12.65    1.10
   2  -4  11   10.13    1.53
  -3   4 -11   73.70    3.68
   3  -4  11   71.92    4.01
  -4   4 -11   11.72    1.34
   4  -4  11   14.94    2.14
  -5   4 -11    1.46    0.85
   5  -4  11   -0.08    1.45
  -6   4 -11    0.14    1.09
   6  -4  11   -0.66    1.80
   6   3 -11    0.80    1.06
  -6  -3  11    0.54    1.02
   5   3 -11    5.60    0.94
   5   3 -11    3.13    0.96
  -5  -3  11    3.91    1.00
   4   3 -11    5.09    0.85
   4   3 -11    8.48    1.16
  -4  -3  11    5.86    0.94
   3   3 -11   11.98    1.09
   3   3 -11   10.12    1.13
  -3  -3  11    9.46    1.50
   2   3 -11   19.63    1.31
   2   3 -11   20.14    1.27
  -2  -3  11   18.23    1.48
   1   3 -11    2.24    0.57
   1   3 -11    2.80    0.47
  -1  -3  11    1.69    0.69
   0   3 -11    0.99    0.38
   0   3 -11    2.14    0.51
   0  -3  11    1.70    0.67
  -1   3 -11   13.40    1.09
   1  -3  11    9.56    1.37
   1  -3  11   11.65    0.87
  -2   3 -11    8.52    1.02
   2  -3  11    8.26    0.91
   2  -3  11    9.23    1.44
   3  -3  11    3.83    0.99
   3  -3  11    4.41    0.67
  -4   3 -11    0.60    0.70
  -5   3 -11    2.78    0.93
   5  -3  11    1.25    1.42
  -6   3 -11   -1.52    1.21
   6   2 -11    3.63    1.09
  -6  -2  11    5.86    1.05
   5   2 -11    3.60    0.84
   5   2 -11    4.24    0.84
  -5  -2  11    2.76    0.85
   4   2 -11    3.24    0.73
   4   2 -11    3.92    0.79
  -4  -2  11    2.83    0.71
   3   2 -11   13.57    1.18
   3   2 -11   16.15    1.16
   2   2 -11    2.50    0.53
   2   2 -11    1.28    0.52
  -2  -2  11    1.45    0.65
   1   2 -11    2.93    0.49
   1   2 -11    3.17    0.52
  -1  -2  11    3.52    0.75
   0   2 -11    2.87    0.46
   0   2 -11    3.18    0.53
   0  -2  11    2.32    0.75
  -1   2 -11   12.30    0.95
  -1   2 -11   15.75    1.15
   1  -2  11   10.65    0.99
   1  -2  11   14.20    1.37
  -2   2 -11   12.52    1.14
   2  -2  11   12.73    1.13
   2  -2  11   13.86    1.48
  -3   2 -11    2.49    0.80
   3  -2  11    5.34    1.01
   3  -2  11    3.83    0.73
  -4   2 -11    3.05    0.85
   4  -2  11    1.11    1.17
   4  -2  11    1.97    0.86
  -5   2 -11    1.76    1.06
   5  -2  11    0.19    1.17
   5  -2  11    0.53    1.44
  -6   2 -11    3.02    1.39
   6   1 -11    4.04    0.99
  -6  -1  11    2.31    0.86
   5   1 -11   47.28    2.66
  -5  -1  11   49.11    2.59
   4   1 -11   -0.35    0.55
   4   1 -11    0.02    0.64
  -4  -1  11    0.16    0.59
   3   1 -11    0.17    0.56
   3   1 -11   -0.24    0.45
  -3  -1  11    0.58    0.57
   2   1 -11    0.52    0.49
   2   1 -11    0.50    0.43
  -2  -1  11   -0.31    0.53
   1   1 -11   35.07    1.70
   1   1 -11   33.07    1.79
  -1  -1  11   32.96    1.97
   0   1 -11    5.24    0.69
   0   1 -11    5.46    0.83
   0  -1  11    5.94    0.90
   0  -1  11    4.40    0.62
  -1   1 -11    1.60    0.57
  -1   1 -11    2.53    0.55
   1  -1  11    1.17    0.55
   1  -1  11    2.24    0.69
  -2   1 -11    1.52    0.60
   2  -1  11    2.42    0.63
   2  -1  11   -0.04    0.72
  -3   1 -11    0.01    0.72
   3  -1  11    0.52    0.70
   3  -1  11   -1.16    0.88
  -4   1 -11    0.42    0.90
   4  -1  11   -1.18    0.90
   4  -1  11    1.25    1.13
  -5   1 -11    9.28    1.50
   5  -1  11   11.66    1.49
  -6   1 -11    4.19    1.64
   7   0 -11    5.37    1.31
  -7   0  11    2.58    1.03
   6   0 -11    2.14    0.96
  -6   0  11    0.71    0.81
   5   0 -11    5.60    0.97
  -5   0  11    7.09    1.19
   4   0 -11    4.79    0.85
  -4   0  11    4.40    0.83
   3   0 -11   22.36    1.58
   3   0 -11   23.93    1.27
  -3   0  11   22.83    1.55
   2   0 -11    1.27    0.45
   2   0 -11    1.70    0.59
  -2   0  11    2.13    0.53
   1   0 -11    1.51    0.46
   1   0 -11    1.39    0.52
  -1   0  11    1.04    0.48
   0   0 -11   11.20    1.05
   0   0 -11    9.23    0.99
   0   0  11    9.17    1.02
   0   0  11   10.44    1.08
  -1   0 -11    3.64    0.67
  -1   0 -11    4.07    0.71
   1   0  11    4.36    0.77
   1   0  11    3.72    0.65
  -2   0 -11   -1.12    0.69
   2   0  11    0.36    0.78
   2   0  11    0.16    0.69
  -3   0 -11    3.14    0.92
   3   0  11    0.92    0.91
   3   0  11    2.15    0.84
  -4   0 -11    6.35    1.25
   4   0  11    7.18    1.33
   4   0  11    6.85    1.16
  -5   0 -11   24.97    2.52
   5   0  11   25.22    2.46
   7  -1 -11    5.68    1.24
  -7   1  11    4.34    0.99
   6  -1 -11    0.27    0.92
  -6   1  11   -1.23    0.85
   5  -1 -11    3.08    0.90
  -5   1  11    1.00    0.72
  -4   1  11    0.13    0.57
   3  -1 -11    3.34    0.51
   3  -1 -11    3.75    0.79
  -3   1  11    2.39    0.70
   2  -1 -11    7.87    0.82
   2  -1 -11    6.35    0.83
   1  -1 -11    5.69    0.79
   1  -1 -11    5.69    0.84
  -1   1  11    5.52    0.92
   0  -1 -11    4.82    0.73
   0  -1 -11    4.93    0.71
   0   1  11    5.47    0.78
   0   1  11    6.06    0.81
  -1  -1 -11    0.02    0.65
  -1  -1 -11    0.06    0.66
   1   1  11   -0.24    0.67
   1   1  11   -0.23    0.62
  -2  -1 -11    0.09    0.76
   2   1  11   -0.87    0.73
   2   1  11    0.66    0.79
  -3  -1 -11   10.84    1.43
   3   1  11   11.16    1.52
   3   1  11   13.41    1.76
  -4  -1 -11   10.47    1.54
   4   1  11    9.82    1.49
  -5  -1 -11    0.28    1.53
   5   1  11   -0.28    1.50
   6  -2 -11    1.05    0.99
  -6   2  11   -0.71    0.89
   5  -2 -11    3.90    0.93
  -5   2  11    4.32    0.93
   4  -2 -11   19.31    1.68
  -4   2  11   15.24    1.53
  -3   2  11    2.50    0.71
   2  -2 -11    2.15    0.56
   2  -2 -11    2.95    0.79
  -2   2  11    1.75    0.63
   1  -2 -11    0.46    0.69
   1  -2 -11   -0.10    0.56
  -1   2  11   -0.53    0.61
   0  -2 -11   -0.31    0.71
   0  -2 -11   -0.61    0.71
   0   2  11    0.52    0.66
   0   2  11    0.74    0.58
  -1  -2 -11   -0.37    0.77
  -1  -2 -11    0.57    0.77
   1   2  11   -0.20    0.70
   1   2  11    0.04    0.79
  -2  -2 -11    1.81    0.99
   2   2  11    1.48    0.86
   2   2  11    1.02    0.80
  -3  -2 -11    9.54    1.42
   3   2  11    9.04    1.39
  -4  -2 -11   11.30    1.78
   4   2  11   15.83    2.35
   6  -3 -11   -1.08    1.14
  -6   3  11   -0.72    0.89
   5  -3 -11    2.13    0.99
  -5   3  11    1.92    0.90
   4  -3 -11    7.20    1.14
  -4   3  11   11.35    1.39
   3  -3 -11   10.04    1.50
  -3   3  11    7.57    1.29
   2  -3 -11   10.23    1.53
  -2   3  11   10.04    1.20
   1  -3 -11    9.88    1.44
   1  -3 -11    7.80    0.94
  -1   3  11    5.95    0.97
  -1   3  11    7.44    1.10
   0  -3 -11   12.49    1.50
   0  -3 -11   15.66    1.61
   0   3  11   14.31    1.33
   0   3  11   11.07    1.63
  -1  -3 -11    5.92    1.12
   1   3  11    7.10    0.95
   1   3  11    8.59    1.18
  -2  -3 -11    5.22    1.20
   2   3  11    6.69    1.23
   2   3  11    3.46    0.98
  -3  -3 -11    8.88    1.55
   3   3  11    6.17    1.39
   6  -4 -11   19.93    2.23
  -6   4  11   30.43    2.26
   5  -4 -11    1.79    1.02
  -5   4  11    0.75    0.96
   4  -4 -11    0.47    0.95
  -4   4  11    2.07    0.86
   3  -4 -11    0.45    0.92
  -3   4  11    0.04    0.78
   2  -4 -11    0.96    0.88
  -2   4  11    0.19    0.74
   1  -4 -11    1.32    0.90
  -1   4  11    0.49    0.91
  -1   4  11    2.17    0.74
   0  -4 -11    3.48    1.11
   0  -4 -11    2.59    1.08
   0   4  11    4.96    0.81
   0   4  11    5.74    1.19
  -1  -4 -11    5.78    1.37
   1   4  11    8.90    1.47
   1   4  11    8.82    1.33
  -2  -4 -11   15.45    2.26
   2   4  11   12.71    1.68
   5  -5 -11    5.16    1.24
  -5   5  11    4.94    1.07
   4  -5 -11    3.82    1.22
  -4   5  11    4.62    0.98
   3  -5 -11   -0.25    1.06
  -3   5  11    0.54    0.90
   2  -5 -11    1.55    1.16
  -2   5  11    2.10    1.06
  -2   5  11   -0.06    0.77
   1  -5 -11    0.62    1.10
  -1   5  11    2.87    0.86
  -1   5  11    4.42    1.17
   0  -5 -11    5.44    1.36
   0   5  11    8.46    1.40
   0   5  11    5.98    1.36
   1   5  11   18.16    2.50
   4  -6 -11    6.89    1.30
  -4   6  11    5.65    1.11
   3  -6 -11    2.37    1.27
  -3   6  11    1.94    1.06
   2  -6 -11    1.63    1.18
  -2   6  11    0.09    1.03
  -2   6  11   -0.95    1.20
   1  -6 -11    2.07    1.34
  -1   6  11    2.75    1.03
  -1   6  11    4.65    1.31
   0  10 -12   17.94    2.13
  -1  10 -12   -0.81    1.18
   1 -10  12   -0.43    1.85
   2 -10  12    5.02    2.10
  -3  10 -12    9.01    1.31
   3 -10  12    7.30    2.38
  -4  10 -12    3.16    1.13
   4 -10  12    3.43    2.45
   1   9 -12   22.48    2.20
  -1  -9  12   21.50    2.93
   0   9 -12   -0.35    1.04
   0  -9  12    1.41    1.62
  -1   9 -12    4.07    0.98
   1  -9  12    4.13    1.76
  -2   9 -12    1.94    0.90
   2  -9  12   -0.69    1.59
  -3   9 -12    5.91    1.03
   3  -9  12    9.51    2.14
  -4   9 -12    8.62    1.22
   4  -9  12    8.17    2.27
  -5   9 -12    3.60    1.12
   5  -9  12    3.31    2.48
   3   8 -12    6.03    1.46
  -3  -8  12    3.62    1.83
   2   8 -12    5.15    1.26
  -2  -8  12    5.86    1.70
   1   8 -12    6.13    1.24
  -1  -8  12    7.95    1.70
   0   8 -12    0.93    0.92
   0  -8  12   -0.16    1.47
  -1   8 -12    3.72    0.94
   1  -8  12    1.28    1.58
  -2   8 -12    3.39    0.87
   2  -8  12    4.69    1.59
  -3   8 -12    2.46    0.86
   3  -8  12    2.57    1.60
  -4   8 -12   24.80    1.93
   4  -8  12   25.27    3.20
  -5   8 -12   -1.12    1.03
   5  -8  12    2.46    2.06
   3   7 -12   24.09    2.42
  -3  -7  12   25.85    2.56
   2   7 -12    1.58    0.97
  -2  -7  12    1.23    1.24
   1   7 -12    0.42    0.84
  -1  -7  12    1.46    1.27
   0   7 -12   -1.05    0.76
   0  -7  12   -0.89    1.19
  -1   7 -12    5.34    0.91
   1  -7  12    3.85    1.43
  -2   7 -12   19.35    1.53
   2  -7  12   13.93    2.19
  -3   7 -12    2.39    0.79
   3  -7  12    2.72    1.36
  -4   7 -12    1.77    0.87
   4  -7  12    1.94    1.53
  -5   7 -12    0.90    0.95
   5  -7  12    0.44    1.88
  -6   7 -12    2.25    1.17
   6  -7  12    3.05    2.21
   4   6 -12   -0.09    1.16
  -4  -6  12   -0.81    1.27
   3   6 -12    4.86    1.09
  -3  -6  12    5.09    1.30
  -2  -6  12    0.49    1.07
   1   6 -12    3.91    0.82
  -1  -6  12    3.34    1.16
   0   6 -12   22.59    1.64
   0  -6  12   19.91    2.05
  -1   6 -12   37.62    2.16
   1  -6  12   36.15    2.80
  -2   6 -12    0.63    0.66
   2  -6  12    0.47    1.24
  -3   6 -12    3.84    0.84
   3  -6  12    1.35    1.38
  -4   6 -12   24.17    1.88
   4  -6  12   25.72    2.79
  -5   6 -12    0.91    0.85
   5  -6  12    2.92    1.80
  -6   6 -12    2.46    1.23
   6  -6  12    1.64    2.15
   5   5 -12   23.59    2.34
  -5  -5  12   22.84    2.44
   4   5 -12    0.00    1.02
  -4  -5  12    1.02    1.12
   3   5 -12    0.27    0.83
  -3  -5  12   -0.86    1.07
   2   5 -12    6.08    0.98
  -2  -5  12    4.89    1.05
   1   5 -12   24.56    2.28
  -1  -5  12   21.73    2.12
   0   5 -12   22.52    2.17
   0  -5  12   23.51    2.12
  -1   5 -12   20.35    1.68
   1  -5  12   18.63    2.12
   2  -5  12    5.05    1.18
  -3   5 -12   -0.72    0.68
   3  -5  12    2.37    1.26
   4  -5  12    5.95    1.50
  -5   5 -12    0.07    0.91
   5  -5  12    1.99    1.65
  -6   5 -12    4.25    1.30
   6  -5  12   -0.58    2.13
   5   4 -12    0.72    0.96
   5   4 -12   -1.26    1.10
  -5  -4  12    0.06    1.16
   4   4 -12    1.62    0.74
   4   4 -12    2.25    0.87
  -4  -4  12    1.04    1.00
   3   4 -12    1.32    0.80
   3   4 -12    1.95    0.64
  -3  -4  12    0.45    0.89
   2   4 -12    7.16    1.01
   2   4 -12    8.20    1.09
  -2  -4  12    9.99    1.48
   1   4 -12    0.67    0.56
   1   4 -12    0.43    0.44
  -1  -4  12    0.33    0.87
   0   4 -12    1.96    0.58
   0  -4  12    0.84    0.89
  -1   4 -12    7.76    0.97
  -2   4 -12   18.57    1.53
   2  -4  12   16.50    1.97
  -3   4 -12    3.85    0.78
   3  -4  12    5.03    1.21
  -4   4 -12    2.28    0.81
   4  -4  12    0.15    1.32
  -5   4 -12   13.69    1.79
   5  -4  12   11.38    2.04
  -6   4 -12    3.25    1.30
   6  -4  12    5.99    2.22
   5   3 -12   -0.17    0.88
  -5  -3  12   -0.51    0.95
   4   3 -12    1.40    0.78
   4   3 -12    0.76    0.76
  -4  -3  12    1.54    0.92
   3   3 -12    8.57    1.09
   3   3 -12    7.98    1.09
   2   3 -12   11.03    1.07
   2   3 -12    8.77    1.06
  -2  -3  12    9.41    1.39
   1   3 -12   21.04    1.29
   1   3 -12   20.63    1.39
  -1  -3  12   20.76    1.72
   0   3 -12    8.43    0.98
   0   3 -12    6.54    0.79
   0  -3  12    7.12    1.15
   0  -3  12    6.54    0.79
  -1   3 -12    9.46    1.19
   1  -3  12    9.49    1.01
  -2   3 -12    1.10    1.05
  -3   3 -12    1.31    0.72
   3  -3  12    2.14    1.34
   4  -3  12    8.94    1.63
  -5   3 -12    1.69    1.09
   5  -3  12    4.27    1.73
  -6   3 -12    2.31    1.37
   6   2 -12    4.85    1.13
  -6  -2  12    3.53    1.15
   5   2 -12    6.91    1.09
  -5  -2  12    7.65    1.14
   4   2 -12   -0.27    0.69
   4   2 -12    0.07    0.68
  -4  -2  12    0.87    0.82
   3   2 -12    0.85    0.65
   3   2 -12    1.05    0.59
  -3  -2  12    1.08    0.72
   2   2 -12    0.66    0.55
   2   2 -12    0.91    0.58
  -2  -2  12    1.06    0.62
   1   2 -12    0.12    0.49
   1   2 -12    0.23    0.52
  -1  -2  12    0.00    0.68
   0   2 -12    2.52    0.64
   0   2 -12    2.56    0.53
   0  -2  12    2.18    0.54
  -1   2 -12    5.77    0.84
   1  -2  12    6.47    0.97
   1  -2  12    6.16    1.14
   2  -2  12    4.25    1.04
   2  -2  12    3.51    0.75
  -3   2 -12    1.17    0.76
   3  -2  12    0.26    1.15
   3  -2  12    0.99    0.84
  -4   2 -12   10.85    1.36
  -5   2 -12    1.22    1.18
   5  -2  12    3.66    1.70
   6   1 -12    4.60    1.14
   5   1 -12   17.15    1.73
  -5  -1  12   14.70    1.60
   4   1 -12   34.77    2.13
  -4  -1  12   36.95    2.25
   3   1 -12   10.31    1.06
   3   1 -12    8.45    1.20
  -3  -1  12    8.91    1.25
   2   1 -12    1.40    0.62
   2   1 -12    2.32    0.56
  -2  -1  12    1.58    0.71
   1   1 -12    0.55    0.55
   1   1 -12   -0.03    0.51
  -1  -1  12    0.04    0.68
   0   1 -12   -0.03    0.52
   0   1 -12   -0.62    0.50
   0  -1  12   -0.43    0.57
  -1   1 -12    3.40    0.71
  -1   1 -12    2.79    0.65
   1  -1  12    3.60    0.71
   1  -1  12    2.50    0.74
  -2   1 -12   32.35    2.28
   2  -1  12   29.55    2.22
   2  -1  12   28.80    1.86
  -3   1 -12    1.52    0.90
   3  -1  12    1.58    1.11
   3  -1  12    2.35    0.86
  -4   1 -12    0.06    1.07
   4  -1  12   -1.19    1.04
   4  -1  12   -0.13    1.35
  -5   1 -12    0.25    1.34
   6   0 -12    0.37    1.05
  -6   0  12    0.00    0.90
   5   0 -12    6.94    1.03
  -5   0  12    5.37    0.94
   4   0 -12   11.97    1.52
  -4   0  12   14.52    1.43
   3   0 -12    1.17    0.65
   3   0 -12    1.02    0.72
  -3   0  12    1.36    0.58
   2   0 -12   -0.36    0.65
   2   0 -12   -0.72    0.50
  -2   0  12    0.16    0.60
   1   0 -12   11.12    1.05
   1   0 -12   12.83    1.24
  -1   0  12   10.07    1.26
   0   0 -12    5.85    0.77
   0   0  12    5.73    0.81
   0   0  12    3.61    1.46
  -1   0 -12    4.77    0.77
  -1   0 -12    6.32    0.90
   1   0  12    4.72    0.93
   1   0  12    5.10    0.90
  -2   0 -12    4.35    1.01
   2   0  12    5.00    1.00
   2   0  12    4.42    1.01
  -3   0 -12    4.93    1.06
   3   0  12    4.31    1.21
   3   0  12    4.58    1.06
  -4   0 -12    4.29    1.36
   4   0  12    5.11    1.27
   6  -1 -12    3.26    1.16
  -6   1  12   -0.06    0.96
   5  -1 -12    3.06    0.98
  -5   1  12    2.55    0.82
   4  -1 -12    1.43    0.81
  -4   1  12    1.45    0.76
  -3   1  12    6.88    1.01
   2  -1 -12    1.68    0.57
   2  -1 -12    1.48    0.76
  -2   1  12    1.44    0.60
   1  -1 -12    2.36    0.77
   1  -1 -12    0.72    0.60
  -1   1  12    1.26    0.68
   0  -1 -12   17.04    1.43
   0  -1 -12   15.98    1.55
   0   1  12   16.95    1.57
   0   1  12   17.28    1.44
  -1  -1 -12   10.70    1.47
  -1  -1 -12    8.34    1.04
   1   1  12    8.29    1.07
  -2  -1 -12    3.03    1.15
   2   1  12    4.37    1.08
   2   1  12    4.32    1.00
  -3  -1 -12   -0.05    1.08
   3   1  12    1.93    1.13
   3   1  12    0.50    1.15
  -4  -1 -12    1.96    1.39
   4   1  12   -2.03    1.32
   6  -2 -12    0.88    1.15
  -6   2  12    2.52    1.04
   5  -2 -12    4.44    1.04
  -5   2  12    3.44    0.90
   4  -2 -12    1.66    0.96
  -4   2  12    1.16    0.72
   3  -2 -12    1.39    0.83
  -3   2  12    1.13    0.66
   2  -2 -12   10.87    1.52
  -2   2  12   10.74    1.28
   1  -2 -12    5.21    0.89
   1  -2 -12    6.35    1.09
  -1   2  12    5.26    0.88
  -1   2  12    4.14    1.08
   0  -2 -12    1.92    0.89
   0  -2 -12    3.72    0.91
   0   2  12    4.10    0.87
   0   2  12    3.49    0.95
  -1  -2 -12    0.63    1.04
   1   2  12    0.91    0.94
   1   2  12   -1.28    0.89
  -2  -2 -12    8.81    1.29
   2   2  12    4.85    1.14
   2   2  12    5.57    1.08
  -3  -2 -12    0.56    1.39
   3   2  12    1.44    1.29
   5  -3 -12    0.90    1.06
  -5   3  12    1.93    0.91
   4  -3 -12    5.30    1.08
  -4   3  12    4.21    0.99
   3  -3 -12    0.39    0.94
  -3   3  12    0.44    0.81
   2  -3 -12    1.77    0.94
  -2   3  12    3.14    0.82
   1  -3 -12   21.87    2.00
  -1   3  12   25.08    1.73
  -1   3  12   22.13    1.96
   0  -3 -12    1.32    0.97
   0  -3 -12   -1.61    0.98
   0   3  12   -0.28    0.79
   0   3  12    0.86    1.05
  -1  -3 -12    1.79    1.13
   1   3  12    0.63    0.93
   1   3  12   -0.86    1.07
  -2  -3 -12    7.02    1.43
   2   3  12    3.22    1.31
   5  -4 -12    0.43    1.24
  -5   4  12    1.33    1.09
   4  -4 -12    3.66    1.21
  -4   4  12    3.33    1.01
   3  -4 -12   18.12    1.97
  -3   4  12   19.59    1.81
   2  -4 -12    9.64    1.41
  -2   4  12   12.07    1.55
   1  -4 -12   -1.95    1.10
  -1   4  12    1.17    1.09
  -1   4  12    1.18    0.84
   0  -4 -12    1.88    1.20
   0   4  12    0.10    0.88
   0   4  12    0.33    1.24
   1   4  12    2.47    1.35
   3  -5 -12   12.01    1.50
  -3   5  12   13.72    1.76
   2  -5 -12    4.08    1.28
  -2   5  12    2.85    1.29
  -2   5  12    4.67    1.10
   1  -5 -12   -0.39    1.27
  -1   5  12   -1.23    0.99
  -1   5  12   -0.57    1.35
   0   9 -13    3.25    1.14
   0  -9  13    5.05    2.00
  -1   9 -13    2.83    1.04
   1  -9  13    1.47    1.87
  -2   9 -13    4.95    1.11
   2  -9  13    4.58    2.00
  -3   9 -13    1.69    0.98
  -4   9 -13    1.74    1.12
   4  -9  13    2.86    2.18
   2   8 -13   -2.03    1.17
  -2  -8  13   -0.37    1.64
   1   8 -13    4.22    1.15
  -1  -8  13    3.08    1.75
   0   8 -13    4.33    0.97
   0  -8  13    3.05    1.68
  -1   8 -13    2.04    0.89
   1  -8  13    0.08    1.74
  -2   8 -13    1.49    0.96
   2  -8  13   -0.78    1.62
  -3   8 -13    0.87    0.92
   3  -8  13    1.98    1.86
  -4   8 -13    2.17    1.07
   4  -8  13    4.57    2.01
   3   7 -13    3.85    1.24
  -3  -7  13    1.73    1.60
   2   7 -13    0.20    1.01
  -2  -7  13    0.84    1.52
   1   7 -13    8.57    1.13
  -1  -7  13    6.38    1.58
   0   7 -13    8.24    1.14
   0  -7  13    9.42    1.75
  -1   7 -13   10.10    1.41
   1  -7  13    8.38    1.85
  -2   7 -13    4.26    0.95
   2  -7  13    1.84    1.51
  -3   7 -13    1.56    0.84
   3  -7  13    1.74    1.62
  -4   7 -13   21.61    2.02
   4  -7  13   21.87    3.20
  -5   7 -13    1.12    1.05
   5  -7  13   -0.36    2.23
   3   6 -13    2.56    1.13
  -3  -6  13    3.72    1.42
   2   6 -13    1.60    0.86
  -2  -6  13    2.42    1.37
   1   6 -13    0.32    0.76
  -1  -6  13    1.57    1.28
   0   6 -13    2.13    0.77
   0  -6  13    1.34    1.22
  -1   6 -13    3.98    0.75
   1  -6  13    3.84    1.34
  -2   6 -13    1.72    0.73
   2  -6  13    0.97    1.43
  -3   6 -13    3.86    0.89
   3  -6  13    2.37    1.57
  -4   6 -13    2.62    0.95
   4  -6  13    2.89    1.82
   5  -6  13    7.17    2.02
   4   5 -13   -1.03    1.07
  -4  -5  13    0.46    1.29
   3   5 -13    7.22    1.01
  -3  -5  13    3.75    1.30
   2   5 -13   26.02    1.80
  -2  -5  13   22.72    2.31
   1   5 -13    3.15    0.81
  -1  -5  13    0.77    1.09
   0  -5  13    6.80    1.30
  -1   5 -13    2.96    0.74
   1  -5  13    2.29    1.24
   2  -5  13    5.31    1.41
  -3   5 -13   11.33    1.45
   3  -5  13   14.71    2.27
  -4   5 -13    3.49    1.05
   4  -5  13    7.25    1.66
  -5   5 -13   -0.89    1.03
   5  -5  13    1.83    1.94
   4   4 -13    0.99    0.94
  -4  -4  13   -0.36    1.16
   3   4 -13    0.35    0.81
  -3  -4  13    1.21    1.00
  -2  -4  13    0.96    1.05
  -1  -4  13    0.95    0.95
   0   4 -13   10.47    1.19
   0  -4  13    8.79    1.41
   1  -4  13    4.55    1.26
  -2   4 -13    3.29    0.80
   2  -4  13    3.87    1.25
  -3   4 -13   -0.10    0.81
   3  -4  13    0.50    1.33
  -4   4 -13   -0.72    0.96
   4  -4  13   -3.23    1.52
  -5   4 -13    1.95    1.21
   5  -4  13    1.77    1.93
   5   3 -13    2.91    1.04
  -5  -3  13    0.25    1.18
   4   3 -13    0.98    0.87
   4   3 -13    3.42    0.87
  -4  -3  13    2.82    1.05
   3   3 -13    1.72    0.78
   3   3 -13    3.93    0.78
  -3  -3  13    1.78    0.98
   2   3 -13    3.39    0.74
   2   3 -13    3.73    0.67
  -2  -3  13    2.07    0.98
   1   3 -13    0.38    0.61
   1   3 -13    0.89    0.81
  -1  -3  13    0.89    0.95
   0   3 -13    1.55    0.65
   0  -3  13    0.08    0.97
  -1   3 -13   44.87    2.36
   1  -3  13   40.65    2.79
  -2   3 -13    2.80    0.81
   2  -3  13    3.26    1.16
  -3   3 -13    0.04    0.80
   3  -3  13    0.38    1.25
  -4   3 -13    1.51    1.00
   4  -3  13    0.15    1.44
  -5   3 -13    0.65    1.25
   5  -3  13    3.17    1.89
   5   2 -13    2.65    1.08
  -5  -2  13    4.84    1.15
  -4  -2  13    2.51    0.92
   3   2 -13    3.21    0.74
   3   2 -13    1.36    0.79
  -3  -2  13    1.33    0.90
   2   2 -13    1.62    0.65
   2   2 -13    1.05    0.70
  -2  -2  13    1.21    0.84
   1   2 -13    9.72    1.14
   1   2 -13   11.97    1.25
  -1  -2  13    8.55    1.24
   0   2 -13    5.48    0.81
   0   2 -13    5.04    0.70
   0  -2  13    6.42    1.11
   0  -2  13    6.77    1.05
  -1   2 -13   -0.27    0.74
   1  -2  13   -0.24    0.99
  -2   2 -13    0.43    0.80
   2  -2  13    1.47    1.08
  -3   2 -13   -0.21    0.89
   3  -2  13    2.34    1.30
  -4   2 -13    0.94    1.18
   4  -2  13    0.75    1.49
   5   1 -13    4.84    1.08
  -5  -1  13    2.80    1.07
   4   1 -13   13.37    1.70
  -4  -1  13   10.66    1.38
   3   1 -13    7.27    1.06
  -3  -1  13    7.34    1.17
   2   1 -13   13.15    1.44
   2   1 -13   12.30    1.23
  -2  -1  13   12.52    1.55
   1   1 -13   16.91    1.41
   1   1 -13   14.61    1.39
  -1  -1  13   15.45    1.62
   0   1 -13    7.93    1.18
   0   1 -13    7.84    0.97
   0  -1  13    8.57    1.44
   0  -1  13    9.11    1.24
  -1   1 -13    2.91    1.38
   1  -1  13    0.14    0.90
   1  -1  13    1.39    0.76
  -2   1 -13    3.62    0.94
   2  -1  13    4.24    0.94
   2  -1  13    4.14    1.17
  -3   1 -13    1.06    1.08
   3  -1  13    0.58    1.29
  -4   1 -13   26.41    2.40
   4  -1  13   25.10    2.99
   5   0 -13    0.75    1.10
  -5   0  13    3.57    0.95
   4   0 -13    1.35    0.93
  -4   0  13    2.51    0.92
  -3   0  13   10.40    1.27
   2   0 -13   10.12    1.20
   2   0 -13   12.50    1.51
  -2   0  13   11.96    1.40
   1   0 -13    2.94    0.73
   1   0 -13    3.26    0.84
  -1   0  13    2.82    0.84
   0   0 -13    8.95    1.07
   0   0 -13   10.67    1.35
   0   0  13    9.73    1.51
   0   0  13    9.08    1.39
  -1   0 -13    0.07    0.86
   1   0  13    0.38    0.93
   1   0  13    1.46    0.84
  -2   0 -13   13.29    1.69
   2   0  13    8.85    1.39
   2   0  13    9.97    1.25
  -3   0 -13   -0.33    1.25
   3   0  13    1.37    1.16
   3   0  13   -2.54    1.27
  -4   0 -13   -0.92    1.37
   5  -1 -13   13.44    1.96
  -5   1  13   11.98    1.71
   4  -1 -13    1.49    1.00
  -4   1  13   -0.79    0.86
   3  -1 -13   10.89    1.58
  -3   1  13   10.04    1.39
   2  -1 -13    4.25    0.96
  -2   1  13    4.93    0.96
   1  -1 -13    2.26    0.78
  -1   1  13    2.25    1.21
  -1   1  13    2.23    0.80
   0  -1 -13    7.65    1.03
   0   1  13    8.45    1.28
   0   1  13   10.81    1.47
  -1  -1 -13    2.82    1.04
   1   1  13    3.21    1.02
   1   1  13    1.40    1.08
  -2  -1 -13   13.37    1.64
   2   1  13   13.57    2.07
   2   1  13   11.72    2.00
  -3  -1 -13    9.85    1.59
   3   1  13    5.19    1.38
   5  -2 -13    0.42    1.12
  -5   2  13   -1.93    0.96
   4  -2 -13    2.32    1.06
  -4   2  13    2.14    0.91
   3  -2 -13   -0.66    1.01
  -3   2  13    0.38    0.80
   2  -2 -13    1.87    1.00
  -2   2  13    3.06    0.83
   1  -2 -13    9.79    1.24
  -1   2  13    7.24    1.12
  -1   2  13    6.32    1.08
   0  -2 -13    5.22    1.10
   0  -2 -13    5.93    1.10
   0   2  13    3.53    1.05
   0   2  13    4.37    1.14
  -1  -2 -13    1.86    1.15
   1   2  13    1.01    1.15
   1   2  13    2.13    1.13
  -2  -2 -13    8.06    1.51
   2   2  13   10.81    1.78
   2   2  13    9.44    1.50
   4  -3 -13    1.95    1.14
  -4   3  13    1.40    0.97
   3  -3 -13    1.83    1.13
  -3   3  13    0.91    0.91
   2  -3 -13    6.81    1.23
  -2   3  13    5.06    1.05
   1  -3 -13    1.36    1.62
  -1   3  13    3.31    0.99
  -1   3  13    2.61    1.13
   0  -3 -13    4.91    1.33
   0   3  13    4.18    1.12
   0   3  13    5.05    1.29
   1   3  13    1.00    1.25
   1   3  13    0.28    1.32
   3  -4 -13   -1.24    1.22
  -3   4  13   -0.11    1.06
   2  -4 -13    0.33    1.35
  -2   4  13   -0.50    1.04
  -2   4  13    0.90    1.23
   1  -4 -13    9.02    1.50
  -1   4  13   15.44    1.74
  -1   4  13   11.92    1.60
   1   8 -14    2.51    1.16
  -1  -8  14    4.51    1.96
   0   8 -14    7.25    1.22
   0  -8  14    9.28    1.97
  -1   8 -14   11.24    1.66
   1  -8  14    5.40    1.97
  -2   8 -14    0.43    0.97
   2  -8  14   -0.96    1.95
  -3   8 -14    9.27    1.29
   3  -8  14    8.97    2.30
   2   7 -14    1.21    1.02
  -2  -7  14    0.79    1.70
   1   7 -14    0.22    0.94
  -1  -7  14    4.68    1.72
   0   7 -14    0.58    0.98
   0  -7  14   -1.78    1.46
  -1   7 -14    6.54    1.01
   1  -7  14    6.31    1.71
  -2   7 -14   13.21    1.56
   2  -7  14    8.69    1.97
  -3   7 -14    5.91    1.16
   3  -7  14    4.42    1.93
  -4   7 -14    3.28    1.18
   4  -7  14    7.78    2.13
   3   6 -14    2.54    1.09
   2   6 -14    7.00    1.08
  -2  -6  14    3.94    1.48
   1   6 -14    3.80    0.94
  -1  -6  14    2.45    1.40
   0   6 -14    0.25    0.79
   0  -6  14    1.13    1.45
  -1   6 -14    0.79    0.84
   1  -6  14   -0.26    1.31
  -2   6 -14    1.65    0.89
   2  -6  14   -0.87    1.51
  -3   6 -14    1.04    0.94
   3  -6  14   -1.36    1.73
  -4   6 -14    2.81    1.05
   4  -6  14    6.14    2.05
   3   5 -14    6.40    1.05
  -3  -5  14    3.87    1.50
   2   5 -14    9.66    1.50
  -2  -5  14    6.84    1.49
   1   5 -14    1.97    0.86
  -1  -5  14    0.27    1.25
   0   5 -14   26.83    1.92
   0  -5  14   27.05    2.46
  -1   5 -14    5.83    0.94
   1  -5  14    3.60    1.50
  -2   5 -14    4.24    1.08
   2  -5  14    4.95    1.61
  -3   5 -14    1.18    0.91
   3  -5  14    1.51    1.54
  -4   5 -14   -0.12    1.06
   4  -5  14    3.22    1.81
  -4  -4  14    0.59    1.38
   3   4 -14    2.00    0.88
  -3  -4  14    1.05    1.17
   2   4 -14   13.51    1.52
  -2  -4  14   13.29    2.07
   1   4 -14    0.78    0.73
  -1  -4  14    0.17    1.25
   0   4 -14    0.36    0.74
   0  -4  14   -1.23    1.10
  -1   4 -14   -0.22    0.88
   1  -4  14   -1.29    1.24
  -2   4 -14   28.25    2.03
   2  -4  14   28.76    2.69
  -3   4 -14    0.68    0.95
   3  -4  14    1.68    1.53
  -4   4 -14    1.73    1.13
   4  -4  14   -1.30    1.70
  -4  -3  14   18.00    2.19
  -3  -3  14   -0.14    1.17
  -2  -3  14    7.31    1.24
   1   3 -14    0.35    0.79
  -1  -3  14   -0.59    1.10
   0   3 -14    2.41    0.90
   0  -3  14    1.47    1.02
  -1   3 -14    2.25    0.85
   1  -3  14    1.56    1.18
  -2   3 -14    0.15    0.87
   2  -3  14   -0.15    1.29
  -3   3 -14   19.02    1.86
   3  -3  14   14.87    2.05
  -4   3 -14    3.99    1.25
   4  -3  14    3.95    1.73
   4   2 -14    7.20    1.35
  -4  -2  14    7.32    1.31
   3   2 -14    1.88    1.26
  -3  -2  14    0.38    1.06
   2   2 -14    6.81    0.93
  -2  -2  14    6.42    1.21
   1   2 -14   -0.99    0.74
  -1  -2  14    0.13    1.05
   0   2 -14   -0.05    0.77
   0  -2  14    0.58    1.09
  -1   2 -14   12.13    1.52
   1  -2  14    8.42    1.37
  -2   2 -14    2.68    0.97
   2  -2  14    1.70    1.25
  -3   2 -14    2.80    1.07
   3  -2  14    3.20    1.53
   4   1 -14    0.06    1.01
  -4  -1  14   -0.47    1.02
   3   1 -14    0.61    1.08
  -3  -1  14    2.09    1.02
   2   1 -14   -0.30    0.92
  -2  -1  14    0.29    0.84
   1   1 -14   -0.23    0.73
   1   1 -14    1.26    0.86
  -1  -1  14   -0.72    0.98
   0   1 -14    1.13    0.97
   0   1 -14    0.21    0.85
   0  -1  14    0.37    1.05
  -1   1 -14    3.49    0.90
   1  -1  14    1.98    1.21
  -2   1 -14    8.71    1.23
   2  -1  14    8.70    1.44
  -3   1 -14    6.99    1.32
   3  -1  14    6.32    1.59
   4   0 -14    2.93    1.12
  -4   0  14    1.91    1.08
   3   0 -14   -0.81    1.00
  -3   0  14   -0.12    0.87
   2   0 -14   -1.82    0.96
  -2   0  14    0.96    0.89
   1   0 -14   10.66    1.62
   1   0 -14    9.81    1.25
  -1   0  14   10.82    1.68
  -1   0  14    8.67    1.11
   0   0 -14    3.29    1.13
   0   0 -14    3.88    0.99
   0   0  14    2.64    1.17
   0   0  14    4.65    1.03
  -1   0 -14   14.39    1.99
   1   0  14   13.58    1.97
  -2   0 -14    1.68    1.22
   2   0  14   -1.31    1.31
   4  -1 -14    2.42    1.19
  -4   1  14    2.78    1.02
   3  -1 -14   17.09    2.09
  -3   1  14   16.48    1.90
   2  -1 -14    3.90    1.11
  -2   1  14    2.72    0.93
   1  -1 -14   -0.24    1.04
  -1   1  14    0.36    1.02
  -1   1  14   -0.62    1.02
   0  -1 -14    8.76    1.36
   0  -1 -14    8.82    1.25
   0   1  14    7.75    1.38
   0   1  14    7.13    1.35
  -1  -1 -14    9.98    1.52
   1   1  14    9.34    1.44
   1   1  14    8.08    1.31
   3  -2 -14    1.21    1.24
  -3   2  14    0.94    1.03
   2  -2 -14    9.70    1.48
   1  -2 -14    4.53    1.32
  -1   2  14    6.85    1.27
  -1   2  14    5.11    1.24
   0  -2 -14   -0.01    1.29
   0   2  14    1.67    1.21
   0   2  14   -0.94    1.32
   0   7 -15    1.15    0.99
   0  -7  15   -1.28    1.79
  -1   7 -15    3.00    1.10
   1  -7  15    2.60    1.98
  -2   7 -15    2.58    1.11
   2  -7  15    0.91    2.05
   1   6 -15    0.19    0.99
  -1  -6  15    0.41    1.75
   0   6 -15    3.21    0.98
   0  -6  15    1.83    1.84
  -1   6 -15    2.46    0.97
   1  -6  15    1.79    1.70
  -2   6 -15   13.89    1.83
   2  -6  15    8.98    2.07
  -3   6 -15    5.40    1.27
   2   5 -15    3.90    1.04
  -2  -5  15    1.86    1.48
   1   5 -15    0.93    0.88
  -1  -5  15    1.12    1.52
   0   5 -15   14.73    1.55
   0  -5  15    8.52    1.68
  -1   5 -15   10.15    1.38
   1  -5  15    7.94    1.79
  -2   5 -15    2.12    1.07
   2  -5  15    3.26    1.60
  -3   5 -15    1.63    1.10
   3  -5  15    2.20    1.73
   2   4 -15    2.82    0.98
  -2  -4  15    0.71    1.38
   1   4 -15    2.51    0.90
  -1  -4  15    0.65    1.43
   0   4 -15   24.09    1.96
   0  -4  15   18.66    2.43
  -1   4 -15    2.90    0.99
   1  -4  15    1.84    1.48
  -2   4 -15    1.99    1.04
   2  -4  15    2.50    1.63
  -3   4 -15    0.02    1.10
   3  -4  15    1.04    1.85
  -3  -3  15   -1.59    1.36
   2   3 -15   14.72    1.70
  -2  -3  15   12.29    1.65
   1   3 -15    1.41    0.97
  -1  -3  15    0.27    1.34
   0   3 -15    6.58    1.08
   0  -3  15    8.38    1.67
  -1   3 -15    0.69    0.98
   1  -3  15    0.53    1.29
  -2   3 -15    1.37    1.10
   2  -3  15   -0.32    1.51
  -3  -2  15    1.51    1.26
  -2  -2  15    5.33    1.34
   1   2 -15    1.32    0.95
  -1  -2  15    1.85    1.21
   0   2 -15    1.27    0.93
   0  -2  15   -0.45    1.27
  -1   2 -15    1.35    1.06
   1  -2  15   -0.17    1.35
  -2   2 -15    6.37    1.29
   2  -2  15    9.26    1.78
  -3  -1  15    0.99    1.23
  -2  -1  15    0.91    1.15
  -1  -1  15    0.57    1.24
   0   1 -15    1.81    1.01
   0  -1  15    0.30    1.29
  -1   1 -15    6.83    1.29
   1  -1  15    4.45    1.45
   2   0 -15   -0.61    1.68
  -2   0  15    0.80    1.18
  -1   0  15   -1.41    1.21
   0   0  15    1.61    1.27
   0   0   0    0.00    0.00
;
_shelx_hkl_checksum              32680
_shelx_res_file
;
TITL  SIR92 run in space group P -1
    shelx.res
    created by SHELXL-2018/3 at 18:54:43 on 16-Jun-2019
CELL   0.71073    7.2599   9.4979  11.9596 106.149  90.236 108.939
ZERR         2    0.0005   0.0007   0.0008   0.002   0.002   0.002
LATT  1
SFAC    C   H  Cl  F   N   O  S
UNIT    28  28  2  2   4   4  2
MERG   2
L.S.   12
ACTA
OMIT 0 50
BOND   $H
REM 137 = CH3
REM 23 = CH2
REM 13 = CH
REM 43 = NH
REM 43 = CH
CONF
HTAB
SIZE 0.18 0.16 0.15
TEMP      173
FMAP   2
PLAN    25
WGHT    0.090900    1.047400
FVAR       0.25796
S1    7    0.806401    0.092148    0.957957    11.00000    0.01753    0.02240 =
         0.02473    0.01284    0.00404    0.00902
CL1   3    0.030658   -0.266568    0.393788    11.00000    0.03481    0.03502 =
         0.02488   -0.00334   -0.00596    0.01350
O2    6    0.459009    0.573009    0.779903    11.00000    0.01909    0.02452 =
         0.03281    0.01726    0.00688    0.01141
F1    4   -0.095960   -0.277956    0.620423    11.00000    0.03789    0.03987 =
         0.03987    0.01093    0.00659    0.00106
O1    6    0.199019    0.444751    0.856184    11.00000    0.01503    0.02513 =
         0.02505    0.00903    0.00385    0.00918
N2    5    0.486443    0.158014    0.921527    11.00000    0.01652    0.01868 =
         0.01795    0.00980    0.00286    0.00516
AFIX  43
H2    2    0.431451    0.099667    0.964027    11.00000   -1.20000
AFIX   0
N1    5    0.768737    0.312819    0.874047    11.00000    0.01344    0.01957 =
         0.02263    0.01206    0.00787    0.00798
AFIX  43
H1    2    0.888114    0.327771    0.858940    11.00000   -1.20000
AFIX   0
C13   1    0.122058   -0.037740    0.734867    11.00000    0.01559    0.02666 =
         0.02303    0.01061    0.00359    0.00795
AFIX  43
H13   2    0.068725   -0.053984    0.802681    11.00000   -1.20000
AFIX   0
C8    1    0.276952    0.097840    0.741212    11.00000    0.01318    0.02031 =
         0.02031    0.00697    0.00089    0.00900
C3    1    0.365914    0.466787    0.831972    11.00000    0.01607    0.01513 =
         0.01441    0.00083   -0.00096    0.00287
C4    1    0.362888    0.215028    0.860910    11.00000    0.01350    0.01977 =
         0.01627    0.00843    0.00317    0.00772
AFIX  13
H4    2    0.254875    0.225653    0.907590    11.00000   -1.20000
AFIX   0
C2    1    0.677028    0.190465    0.915115    11.00000    0.01818    0.01529 =
         0.01336    0.00367    0.00127    0.00365
C1    1    0.821740    0.562068    0.841885    11.00000    0.01595    0.02092 =
         0.02907    0.01115    0.00193    0.00627
AFIX 137
H1A   2    0.838551    0.549769    0.760558    11.00000   -1.50000
H1B   2    0.945410    0.584707    0.884459    11.00000   -1.50000
H1C   2    0.772705    0.646242    0.872113    11.00000   -1.50000
AFIX   0
C7    1    0.483016    0.761486    0.682405    11.00000    0.02566    0.03126 =
         0.04568    0.02249    0.00953    0.01522
AFIX 137
H7A   2    0.607619    0.821085    0.727304    11.00000   -1.50000
H7B   2    0.423767    0.830729    0.664819    11.00000   -1.50000
H7C   2    0.501190    0.692882    0.610805    11.00000   -1.50000
AFIX   0
C5    1    0.483476    0.374247    0.851968    11.00000    0.01708    0.01612 =
         0.01301    0.00485    0.00184    0.00566
C10   1    0.273494    0.009910    0.530784    11.00000    0.02742    0.02845 =
         0.01843    0.00749    0.00475    0.01465
AFIX  43
H10   2    0.322306    0.027342    0.462235    11.00000   -1.20000
AFIX   0
C14   1    0.352309    0.667226    0.751704    11.00000    0.02258    0.02442 =
         0.03047    0.01338    0.00396    0.01494
AFIX  23
H14A  2    0.326826    0.734864    0.822577    11.00000   -1.20000
H14B  2    0.228463    0.601271    0.705837    11.00000   -1.20000
AFIX   0
C6    1    0.679700    0.415264    0.855128    11.00000    0.01760    0.01936 =
         0.01578    0.00764    0.00323    0.00751
C9    1    0.351450    0.120318    0.638248    11.00000    0.01889    0.02105 =
         0.02447    0.00825    0.00264    0.00697
AFIX  43
H9    2    0.454970    0.210554    0.641312    11.00000   -1.20000
AFIX   0
C12   1    0.048108   -0.147063    0.629290    11.00000    0.01262    0.01413 =
         0.03611    0.00460   -0.00385    0.00186
C11   1    0.124122   -0.124905    0.526495    11.00000    0.02423    0.03152 =
         0.01921    0.00099   -0.00492    0.01680
HKLF 4
REM   SIR92 run in space group P -1
REM wR2 = 0.1580, GooF = S = 1.030, Restrained GooF = 1.030 for all data
REM R1 = 0.0543 for 2087 Fo > 4sig(Fo) and 0.0727 for all 2630 data
REM 192 parameters refined using 0 restraints
END
WGHT      0.0959      0.6900
REM Instructions for potential hydrogen bonds
EQIV $1 -x+1, -y, -z+2
HTAB N2 S1_$1
EQIV $2 x+1, y, z
HTAB N1 O1_$2
EQIV $3 x+1, y+1, z
HTAB C1 F1_$3
HTAB C1 O1_$2
EQIV $4 -x+1, -y+1, -z+2
HTAB C14 S1_$4
REM Highest difference peak  1.721,  deepest hole -0.582,  1-sigma level  0.095
Q1    1  -0.0616 -0.3299  0.4289  11.00000  0.05    0.53
Q2    1   0.9135  0.1751  1.0039  11.00000  0.05    0.36
Q3    1  -0.0417 -0.4711  0.5200  11.00000  0.05    0.32
Q4    1   0.6941 -0.0044  0.9293  11.00000  0.05    0.31
Q5    1   0.5749  0.6338  0.8069  11.00000  0.05    0.30
Q6    1   0.8974  0.0615  0.9080  11.00000  0.05    0.30
Q7    1   0.5555  0.1214  0.8735  11.00000  0.05    0.28
Q8    1   0.7155  0.1240  1.0191  11.00000  0.05    0.28
Q9    1   0.0701 -0.0668  0.6831  11.00000  0.05    0.25
Q10   1   0.0101 -0.1403  0.8205  11.00000  0.05    0.25
Q11   1   0.7578  0.1516  1.0381  11.00000  0.05    0.25
Q12   1   0.7490  0.1486  0.9359  11.00000  0.05    0.25
Q13   1   0.0816 -0.0354  0.7763  11.00000  0.05    0.24
Q14   1   0.5716  0.3723  0.8216  11.00000  0.05    0.24
Q15   1   0.1897  0.0200  0.7319  11.00000  0.05    0.23
Q16   1   0.1452 -0.0765  0.8081  11.00000  0.05    0.22
Q17   1   0.7558  0.8559  0.8598  11.00000  0.05    0.22
Q18   1   0.8832  0.3610  0.9011  11.00000  0.05    0.22
Q19   1   0.0085 -0.0367  0.8345  11.00000  0.05    0.22
Q20   1   0.6627  0.5805  0.6612  11.00000  0.05    0.21
Q21   1   0.6175  0.9226  0.8164  11.00000  0.05    0.21
Q22   1   0.0319 -0.4138  0.3705  11.00000  0.05    0.21
Q23   1   0.5634  0.6890  0.6176  11.00000  0.05    0.21
Q24   1   0.4295  0.2968  0.8697  11.00000  0.05    0.21
Q25   1   0.0177 -0.1622  0.6759  11.00000  0.05    0.21
;
_shelx_res_checksum              61363
_shelxl_version_number           2018/3
loop_
_space_group_symop_operation_xyz
'x, y, z'
'-x, -y, -z'
loop_
_atom_site_type_symbol
_atom_site_label
_atom_site_fract_x
_atom_site_fract_y
_atom_site_fract_z
_atom_site_U_iso_or_equiv
_atom_site_adp_type
_atom_site_calc_flag
_atom_site_occupancy
S S1 0.80640(12) 0.09215(10) 0.95796(7) 0.0197(3) Uani d 1
Cl Cl1 0.03066(14) -0.26657(11) 0.39379(8) 0.0338(3) Uani d 1
O O2 0.4590(3) 0.5730(3) 0.7799(2) 0.0226(6) Uani d 1
F F1 -0.0960(3) -0.2780(3) 0.6204(2) 0.0425(6) Uani d 1
O O1 0.1990(3) 0.4448(3) 0.8562(2) 0.0208(5) Uani d 1
N N2 0.4864(4) 0.1580(3) 0.9215(2) 0.0170(6) Uani d 1
H H2 0.431451 0.099667 0.964027 0.020 Uiso calc 1
N N1 0.7687(4) 0.3128(3) 0.8740(2) 0.0167(6) Uani d 1
H H1 0.888114 0.327771 0.858940 0.020 Uiso calc 1
C C13 0.1221(5) -0.0377(4) 0.7349(3) 0.0209(8) Uani d 1
H H13 0.068725 -0.053984 0.802681 0.025 Uiso calc 1
C C8 0.2770(5) 0.0978(4) 0.7412(3) 0.0169(7) Uani d 1
C C3 0.3659(5) 0.4668(4) 0.8320(3) 0.0166(7) Uani d 1
C C4 0.3629(5) 0.2150(4) 0.8609(3) 0.0153(7) Uani d 1
H H4 0.254875 0.225653 0.907590 0.018 Uiso calc 1
C C2 0.6770(5) 0.1905(4) 0.9151(3) 0.0162(7) Uani d 1
C C1 0.8217(5) 0.5621(4) 0.8419(3) 0.0212(8) Uani d 1
H H1A 0.838551 0.549769 0.760558 0.032 Uiso calc 1
H H1B 0.945410 0.584707 0.884459 0.032 Uiso calc 1
H H1C 0.772705 0.646242 0.872113 0.032 Uiso calc 1
C C7 0.4830(6) 0.7615(5) 0.6824(4) 0.0304(9) Uani d 1
H H7A 0.607619 0.821085 0.727304 0.046 Uiso calc 1
H H7B 0.423767 0.830729 0.664819 0.046 Uiso calc 1
H H7C 0.501190 0.692882 0.610805 0.046 Uiso calc 1
C C5 0.4835(5) 0.3742(4) 0.8520(3) 0.0153(7) Uani d 1
C C10 0.2735(5) 0.0099(4) 0.5308(3) 0.0233(8) Uani d 1
H H10 0.322306 0.027342 0.462235 0.028 Uiso calc 1
C C14 0.3523(5) 0.6672(4) 0.7517(3) 0.0229(8) Uani d 1
H H14A 0.326826 0.734864 0.822577 0.027 Uiso calc 1
H H14B 0.228463 0.601271 0.705837 0.027 Uiso calc 1
C C6 0.6797(5) 0.4153(4) 0.8551(3) 0.0167(7) Uani d 1
C C9 0.3514(5) 0.1203(4) 0.6382(3) 0.0211(8) Uani d 1
H H9 0.454970 0.210554 0.641312 0.025 Uiso calc 1
C C12 0.0481(5) -0.1471(4) 0.6293(3) 0.0223(8) Uani d 1
C C11 0.1241(5) -0.1249(4) 0.5265(3) 0.0245(8) Uani d 1
loop_
_atom_site_aniso_label
_atom_site_aniso_U_11
_atom_site_aniso_U_22
_atom_site_aniso_U_33
_atom_site_aniso_U_12
_atom_site_aniso_U_13
_atom_site_aniso_U_23
S1 0.0175(5) 0.0224(5) 0.0247(5) 0.0090(4) 0.0040(3) 0.0128(4)
Cl1 0.0348(6) 0.0350(6) 0.0249(5) 0.0135(5) -0.0060(4) -0.0033(4)
O2 0.0191(13) 0.0245(13) 0.0328(14) 0.0114(11) 0.0069(10) 0.0173(11)
F1 0.0379(14) 0.0399(14) 0.0399(13) 0.0011(12) 0.0066(11) 0.0109(11)
O1 0.0150(13) 0.0251(13) 0.0251(13) 0.0092(11) 0.0039(10) 0.0090(10)
N2 0.0165(15) 0.0187(14) 0.0180(14) 0.0052(12) 0.0029(11) 0.0098(12)
N1 0.0134(14) 0.0196(14) 0.0226(14) 0.0080(12) 0.0079(11) 0.0121(12)
C13 0.0156(17) 0.0267(19) 0.0230(17) 0.0080(16) 0.0036(14) 0.0106(15)
C8 0.0132(17) 0.0203(17) 0.0203(17) 0.0090(15) 0.0009(13) 0.0070(14)
C3 0.0161(18) 0.0151(16) 0.0144(15) 0.0029(14) -0.0010(13) 0.0008(13)
C4 0.0135(17) 0.0198(17) 0.0163(16) 0.0077(14) 0.0032(13) 0.0084(14)
C2 0.0182(18) 0.0153(16) 0.0134(15) 0.0037(14) 0.0013(13) 0.0037(13)
C1 0.0159(18) 0.0209(18) 0.0291(19) 0.0063(15) 0.0019(14) 0.0112(15)
C7 0.026(2) 0.031(2) 0.046(2) 0.0152(18) 0.0095(18) 0.0225(19)
C5 0.0171(18) 0.0161(16) 0.0130(15) 0.0057(14) 0.0018(13) 0.0048(13)
C10 0.027(2) 0.028(2) 0.0184(17) 0.0147(17) 0.0047(15) 0.0075(15)
C14 0.0226(19) 0.0244(19) 0.0305(19) 0.0149(16) 0.0040(15) 0.0134(16)
C6 0.0176(17) 0.0194(17) 0.0158(16) 0.0075(15) 0.0032(13) 0.0076(14)
C9 0.0189(18) 0.0210(18) 0.0245(18) 0.0070(15) 0.0026(14) 0.0083(15)
C12 0.0126(17) 0.0141(17) 0.036(2) 0.0019(15) -0.0038(15) 0.0046(15)
C11 0.024(2) 0.032(2) 0.0192(17) 0.0168(18) -0.0049(15) 0.0010(15)
loop_
_atom_type_symbol
_atom_type_description
_atom_type_scat_dispersion_real
_atom_type_scat_dispersion_imag
_atom_type_scat_source
C C 0.0033 0.0016 'International Tables Vol C Tables 4.2.6.8 and 6.1.1.4'
H H 0.0000 0.0000 'International Tables Vol C Tables 4.2.6.8 and 6.1.1.4'
Cl Cl 0.1484 0.1585 'International Tables Vol C Tables 4.2.6.8 and 6.1.1.4'
F F 0.0171 0.0103 'International Tables Vol C Tables 4.2.6.8 and 6.1.1.4'
N N 0.0061 0.0033 'International Tables Vol C Tables 4.2.6.8 and 6.1.1.4'
O O 0.0106 0.0060 'International Tables Vol C Tables 4.2.6.8 and 6.1.1.4'
S S 0.1246 0.1234 'International Tables Vol C Tables 4.2.6.8 and 6.1.1.4'
loop_
_geom_angle_atom_site_label_1
_geom_angle_atom_site_label_2
_geom_angle_atom_site_label_3
_geom_angle
C3 O2 C14 117.4(3)
C2 N2 C4 124.3(3)
C2 N2 H2 117.8
C4 N2 H2 117.8
C2 N1 C6 123.6(3)
C2 N1 H1 118.2
C6 N1 H1 118.2
C12 C13 C8 120.1(3)
C12 C13 H13 119.9
C8 C13 H13 119.9
C9 C8 C13 118.7(3)
C9 C8 C4 122.2(3)
C13 C8 C4 119.1(3)
O1 C3 O2 123.5(3)
O1 C3 C5 123.5(3)
O2 C3 C5 113.0(3)
N2 C4 C5 108.9(3)
N2 C4 C8 109.9(2)
C5 C4 C8 112.3(3)
N2 C4 H4 108.5
C5 C4 H4 108.5
C8 C4 H4 108.5
N2 C2 N1 116.3(3)
N2 C2 S1 123.4(2)
N1 C2 S1 120.2(2)
C6 C1 H1A 109.5
C6 C1 H1B 109.5
H1A C1 H1B 109.5
C6 C1 H1C 109.5
H1A C1 H1C 109.5
H1B C1 H1C 109.5
C14 C7 H7A 109.5
C14 C7 H7B 109.5
H7A C7 H7B 109.5
C14 C7 H7C 109.5
H7A C7 H7C 109.5
H7B C7 H7C 109.5
C6 C5 C3 126.0(3)
C6 C5 C4 119.9(3)
C3 C5 C4 113.9(3)
C11 C10 C9 119.5(3)
C11 C10 H10 120.2
C9 C10 H10 120.2
O2 C14 C7 105.4(3)
O2 C14 H14A 110.7
C7 C14 H14A 110.7
O2 C14 H14B 110.7
C7 C14 H14B 110.7
H14A C14 H14B 108.8
C5 C6 N1 118.7(3)
C5 C6 C1 127.9(3)
N1 C6 C1 113.3(3)
C10 C9 C8 121.0(3)
C10 C9 H9 119.5
C8 C9 H9 119.5
F1 C12 C13 121.7(3)
F1 C12 C11 117.3(3)
C13 C12 C11 121.0(3)
C10 C11 C12 119.6(3)
C10 C11 Cl1 120.2(3)
C12 C11 Cl1 120.3(3)
loop_
_geom_bond_atom_site_label_1
_geom_bond_atom_site_label_2
_geom_bond_distance
S1 C2 1.688(3)
Cl1 C11 1.732(3)
O2 C3 1.331(4)
O2 C14 1.460(4)
F1 C12 1.316(4)
O1 C3 1.211(4)
N2 C2 1.324(4)
N2 C4 1.467(4)
N2 H2 0.8600
N1 C2 1.361(4)
N1 C6 1.395(4)
N1 H1 0.8600
C13 C12 1.365(5)
C13 C8 1.391(5)
C13 H13 0.9300
C8 C9 1.390(5)
C8 C4 1.527(4)
C3 C5 1.470(5)
C4 C5 1.515(4)
C4 H4 0.9800
C1 C6 1.491(5)
C1 H1A 0.9600
C1 H1B 0.9600
C1 H1C 0.9600
C7 C14 1.502(5)
C7 H7A 0.9600
C7 H7B 0.9600
C7 H7C 0.9600
C5 C6 1.347(5)
C10 C11 1.371(5)
C10 C9 1.390(5)
C10 H10 0.9300
C14 H14A 0.9700
C14 H14B 0.9700
C9 H9 0.9300
C12 C11 1.391(5)
loop_
_geom_hbond_atom_site_label_D
_geom_hbond_atom_site_label_H
_geom_hbond_atom_site_label_A
_geom_hbond_site_symmetry_A
_geom_hbond_distance_DH
_geom_hbond_distance_HA
_geom_hbond_distance_DA
_geom_hbond_angle_DHA
N2 H2 S1 2_657 0.86 2.47 3.3010(10) 163
N1 H1 O1 1_655 0.86 2.17 2.998(2) 160
C1 H1A F1 1_665 0.96 2.60 3.368(3) 137
C7 H7B Cg 1_545 0.96 2.62 3.5770(10) 168
loop_
_geom_torsion_atom_site_label_1
_geom_torsion_atom_site_label_2
_geom_torsion_atom_site_label_3
_geom_torsion_atom_site_label_4
_geom_torsion
C12 C13 C8 C9 1.1(5)
C12 C13 C8 C4 -177.4(3)
C14 O2 C3 O1 0.3(5)
C14 O2 C3 C5 177.6(3)
C2 N2 C4 C5 -32.1(4)
C2 N2 C4 C8 91.4(4)
C9 C8 C4 N2 -102.3(3)
C13 C8 C4 N2 76.1(4)
C9 C8 C4 C5 19.2(4)
C13 C8 C4 C5 -162.4(3)
C4 N2 C2 N1 16.7(4)
C4 N2 C2 S1 -165.0(2)
C6 N1 C2 N2 9.3(4)
C6 N1 C2 S1 -169.1(2)
O1 C3 C5 C6 -162.2(3)
O2 C3 C5 C6 20.5(5)
O1 C3 C5 C4 22.2(4)
O2 C3 C5 C4 -155.2(3)
N2 C4 C5 C6 24.5(4)
C8 C4 C5 C6 -97.6(3)
N2 C4 C5 C3 -159.6(2)
C8 C4 C5 C3 78.4(3)
C3 O2 C14 C7 -173.6(3)
C3 C5 C6 N1 -179.4(3)
C4 C5 C6 N1 -4.0(4)
C3 C5 C6 C1 1.3(5)
C4 C5 C6 C1 176.7(3)
C2 N1 C6 C5 -15.2(5)
C2 N1 C6 C1 164.2(3)
C11 C10 C9 C8 -1.6(5)
C13 C8 C9 C10 -0.1(5)
C4 C8 C9 C10 178.4(3)
C8 C13 C12 F1 178.7(3)
C8 C13 C12 C11 -0.6(5)
C9 C10 C11 C12 2.2(5)
C9 C10 C11 Cl1 -177.9(3)
F1 C12 C11 C10 179.6(3)
C13 C12 C11 C10 -1.1(5)
F1 C12 C11 Cl1 -0.4(4)
C13 C12 C11 Cl1 179.0(3)

_cod_database_fobs_code 1552104
