#------------------------------------------------------------------------------
#$Date: 2019-11-14 06:45:17 +0200 (Thu, 14 Nov 2019) $
#$Revision: 227756 $
#$URL: file:///home/coder/svn-repositories/cod/cif/1/55/28/1552888.cif $
#------------------------------------------------------------------------------
#
# This file is available in the Crystallography Open Database (COD),
# http://www.crystallography.net/
#
# All data on this site have been placed in the public domain by the
# contributors.
#
data_1552888
loop_
_publ_author_name
'Yamaji, Minoru'
'Tomonari, Kazuhiro'
'Ikuma, Keisuke'
'Goto, Kenta'
'Tani, Fumito'
'Okamoto, Hideki'
_publ_section_title
;
 Blue fluorescence from N,O-coordinated BF2 complexes having aromatic
 chromophores in solution and solid state
;
_journal_name_full
'Photochemical &amp; Photobiological Sciences'
_journal_paper_doi               10.1039/C9PP00410F
_journal_year                    2019
_chemical_formula_moiety         'C10 H7 B F2 N2 O2'
_chemical_formula_sum            'C10 H7 B F2 N2 O2'
_chemical_formula_weight         235.98
_space_group_crystal_system      triclinic
_space_group_IT_number           2
_space_group_name_Hall           '-P 1'
_space_group_name_H-M_alt        'P -1'
_atom_sites_solution_hydrogens   geom
_atom_sites_solution_primary     direct
_atom_sites_solution_secondary   difmap
_audit_update_record
;
2018-11-26 deposited with the CCDC.	2019-11-13 downloaded from the CCDC.
;
_cell_angle_alpha                88.519(6)
_cell_angle_beta                 70.424(5)
_cell_angle_gamma                67.994(5)
_cell_formula_units_Z            2
_cell_length_a                   7.1941(3)
_cell_length_b                   8.5967(4)
_cell_length_c                   9.1402(4)
_cell_measurement_reflns_used    5579
_cell_measurement_temperature    123
_cell_measurement_theta_max      68.28
_cell_measurement_theta_min      5.17
_cell_volume                     490.58(5)
_computing_cell_refinement       'RAPID AUTO'
_computing_data_collection       'RAPID AUTO (Rigaku, ????)'
_computing_data_reduction        'RAPID AUTO'
_computing_molecular_graphics    'CrystalStructure 4.1'
_computing_publication_material  'CrystalStructure 4.1 (Rigaku, 2014)'
_computing_structure_refinement  'SHELXL2013 (Sheldrick, 2008)'
_computing_structure_solution    'SIR2011 (Burla, et al., 2012)'
_diffrn_ambient_temperature      123
_diffrn_detector_area_resol_mean 10.000
_diffrn_measured_fraction_theta_full 0.984
_diffrn_measured_fraction_theta_max 0.983
_diffrn_measurement_device_type  'Rigaku R-AXIS RAPID'
_diffrn_measurement_method       \w
_diffrn_radiation_type           'Cu K\a'
_diffrn_radiation_wavelength     1.54187
_diffrn_reflns_av_R_equivalents  0.0458
_diffrn_reflns_Laue_measured_fraction_full 0.984
_diffrn_reflns_Laue_measured_fraction_max 0.983
_diffrn_reflns_limit_h_max       8
_diffrn_reflns_limit_h_min       -8
_diffrn_reflns_limit_k_max       10
_diffrn_reflns_limit_k_min       -10
_diffrn_reflns_limit_l_max       10
_diffrn_reflns_limit_l_min       -10
_diffrn_reflns_number            5873
_diffrn_reflns_point_group_measured_fraction_full 0.984
_diffrn_reflns_point_group_measured_fraction_max 0.983
_diffrn_reflns_theta_full        67.687
_diffrn_reflns_theta_max         68.182
_diffrn_reflns_theta_min         5.170
_diffrn_standards_number         0
_exptl_absorpt_coefficient_mu    1.182
_exptl_absorpt_correction_T_max  0.889
_exptl_absorpt_correction_T_min  0.602
_exptl_absorpt_correction_type   multi-scan
_exptl_absorpt_process_details   'ABSCOR (Rigaku, 1995)'
_exptl_crystal_colour            colorless
_exptl_crystal_density_diffrn    1.597
_exptl_crystal_density_method    'not measured'
_exptl_crystal_description       prism
_exptl_crystal_F_000             240.00
_exptl_crystal_size_max          0.520
_exptl_crystal_size_mid          0.240
_exptl_crystal_size_min          0.100
_refine_diff_density_max         0.68
_refine_diff_density_min         -0.64
_refine_ls_extinction_method     none
_refine_ls_goodness_of_fit_ref   1.015
_refine_ls_hydrogen_treatment    constr
_refine_ls_number_parameters     154
_refine_ls_number_reflns         1767
_refine_ls_number_restraints     0
_refine_ls_R_factor_all          0.0719
_refine_ls_R_factor_gt           0.0665
_refine_ls_shift/su_max          0.000
_refine_ls_structure_factor_coef Fsqd
_refine_ls_weighting_details
'w = 1/[\s^2^(Fo^2^)+(0.1235P)^2^+0.7188P] where P=(Fo^2^+2Fc^2^)/3'
_refine_ls_weighting_scheme      calc
_refine_ls_wR_factor_gt          0.1940
_refine_ls_wR_factor_ref         0.2008
_reflns_number_gt                1576
_reflns_number_total             1767
_reflns_threshold_expression     F^2^>2.0\s(F^2^)
_cod_data_source_file            c9pp00410f2.cif
_cod_data_source_block           2-F@py
_cod_original_cell_volume        490.57(4)
_cod_database_code               1552888
_shelxl_res_file
;
TITL 2-F@py
CELL  1.54187 7.19406 8.59672 9.14023 88.51920 70.42420 67.99360
ZERR  2 0.00029 0.00035 0.00037 0.00620 0.00500 0.00480
LATT 1
SFAC C H O N F B
UNIT 20 14 4 4 4 2
L.S. 10
FMAP 2
PLAN -10
WPDB -2
HTAB
BOND $H
CONF
LIST 4
TEMP -150.0
ACTA
SIZE 0.520 0.240 0.100
WGHT    0.123500    0.718800
FVAR       0.96144
F1    5   -0.024890    0.851082    0.677348    11.00000    0.04754    0.05016 =
         0.04984    0.02739   -0.03664   -0.03281
F2    5    0.329862    0.687059    0.579010    11.00000    0.05589    0.03926 =
         0.02992   -0.00199   -0.00794   -0.02359
O1    3    0.290010    0.672662    1.192790    11.00000    0.06131    0.04563 =
         0.04885    0.01811   -0.03366   -0.02829
O2    3    0.151032    0.724452    0.847385    11.00000    0.03826    0.03282 =
         0.02770    0.01102   -0.02097   -0.02298
N1    4    0.296502    0.881330    0.945716    11.00000    0.03098    0.02903 =
         0.02311    0.00776   -0.01281   -0.01539
N2    4    0.222813    0.959279    0.713569    11.00000    0.02313    0.02777 =
         0.02206    0.00697   -0.00993   -0.01113
C1    1    0.231951    0.652606    1.071151    11.00000    0.02101    0.02957 =
         0.02279    0.00633   -0.01071   -0.01109
C2    1    0.275155    0.539776    1.281286    11.00000    0.05223    0.03183 =
         0.02672    0.01071   -0.02377   -0.01212
AFIX  43
H1    2    0.303446    0.521249    1.375977    11.00000   -1.20000
AFIX   0
C3    1    0.215042    0.443992    1.211070    11.00000    0.03166    0.02755 =
         0.04207    0.01026   -0.00801   -0.01402
AFIX  43
H2    2    0.194547    0.344743    1.246482    11.00000   -1.20000
AFIX   0
C4    1    0.186746    0.513512    1.075876    11.00000    0.01911    0.01633 =
         0.02242    0.00073   -0.01306   -0.00933
AFIX  43
H3    2    0.144465    0.471330    1.002728    11.00000   -1.20000
AFIX   0
C5    1    0.228285    0.760851    0.947167    11.00000    0.02085    0.02318 =
         0.02286    0.00303   -0.00717   -0.00751
C6    1    0.287934    0.985718    0.829250    11.00000    0.02132    0.02442 =
         0.02227    0.00370   -0.00718   -0.00790
C7    1    0.346013    1.123281    0.832933    11.00000    0.03511    0.03166 =
         0.03000    0.00722   -0.01312   -0.01801
AFIX  43
H4    2    0.394217    1.141982    0.913185    11.00000   -1.20000
AFIX   0
C8    1    0.332976    1.231428    0.719698    11.00000    0.03406    0.02907 =
         0.03514    0.00919   -0.01247   -0.01799
AFIX  43
H5    2    0.371281    1.325527    0.721965    11.00000   -1.20000
AFIX   0
C9    1    0.263975    1.202835    0.602555    11.00000    0.03150    0.03725 =
         0.03524    0.01853   -0.01393   -0.01634
AFIX  43
H6    2    0.253665    1.276911    0.524055    11.00000   -1.20000
AFIX   0
C10   1    0.210722    1.065433    0.601937    11.00000    0.03135    0.04080 =
         0.02958    0.01677   -0.01692   -0.01916
AFIX  43
H7    2    0.164356    1.044327    0.521424    11.00000   -1.20000
AFIX   0
B1    6    0.166509    0.800483    0.701217    11.00000    0.03224    0.03221 =
         0.02563    0.00816   -0.01450   -0.01764
HKLF 4
 
REM  2-F@py
REM R1 =  0.0665 for    1576 Fo > 4sig(Fo)  and  0.0719 for all    1767 data
REM    154 parameters refined using      0 restraints
 
END  
     
WGHT      0.1038      0.7566 

REM Instructions for potential hydrogen bonds
EQIV $1 x, y, z+1
HTAB C2 F2_$1
EQIV $2 -x, -y+1, -z+2
HTAB C3 F1_$2
EQIV $3 -x, -y+2, -z+1
HTAB C10 F1_$3

REM Highest difference peak  0.681,  deepest hole -0.640,  1-sigma level  0.100
Q1    1   0.2088  0.7362  0.5653  11.00000  0.05    0.30
Q2    1   0.3024  0.7834  1.2464  11.00000  0.05    0.27
Q3    1  -0.1888  0.9309  0.6916  11.00000  0.05    0.27
Q4    1   0.2967  1.1895  0.7953  11.00000  0.05    0.26
Q5    1   0.0651  0.7620  1.2648  11.00000  0.05    0.25
Q6    1   0.3623  0.6136  0.7851  11.00000  0.05    0.24
Q7    1   0.4195  0.7676  0.6258  11.00000  0.05    0.24
Q8    1   0.5334  0.6828  0.8487  11.00000  0.05    0.24
Q9    1   0.4473  0.8735  0.6588  11.00000  0.05    0.23
Q10   1   0.2043  0.7042  1.0146  11.00000  0.05    0.23
;
_shelxl_hkl_file
;
   0   0   1  441.56   14.25
   0   0   1  378.90   12.94
   0   0   1  404.29   13.63
   0   0   1  398.54   13.44
   0   0  -1  418.61   13.51
   0   0  -1  378.24   13.27
   0   0  -1  398.52   13.63
   0   0  -1  397.85   13.47
   0   0  -1  394.08   13.44
   0   0   2 1108.67   50.51
   0   0   2 1147.89   52.52
   0   0   2 1038.19   49.15
   0   0   2 1098.53   52.85
   0   0   2 1047.07   50.46
   0   0  -2 1012.89   49.66
   0   0  -2  992.51   47.35
   0   0  -2 1200.95   57.60
   0   0  -2 1058.33   50.15
   0   0   3   55.94    1.33
   0   0   3   46.58    1.15
   0   0   3   49.24    1.47
   0   0   3   51.36    1.58
   0   0   3   47.98    1.49
   0   0  -3   54.60    1.68
   0   0  -3   48.86    1.45
   0   0  -3   50.51    1.58
   0   0  -3   49.35    1.81
   0   0   4   72.05    1.84
   0   0   4   58.12    1.48
   0   0   4   65.39    2.50
   0   0   4   66.05    2.75
   0   0   4   64.39    2.53
   0   0  -4   73.94    2.90
   0   0  -4   64.59    2.44
   0   0  -4   65.60    2.67
   0   0  -4   64.04    2.09
   0   0   5    0.18    0.24
   0   0   5    0.20    0.44
   0   0   5    0.03    0.25
   0   0  -5   -0.18    0.24
   0   0  -5   -0.06    0.28
   0   0  -5    0.23    0.23
   0   0  -5    0.17    0.26
   0   0  -5   -0.26    0.40
   0   0   6   38.45    1.79
   0   0   6   36.69    1.85
   0   0  -6   38.93    1.78
   0   0  -6   33.08    1.67
   0   0  -6   36.42    2.29
   0   0   7   55.18    3.34
   0   0   7   49.98    3.52
   0   0  -7   53.16    3.29
   0   0  -7   49.87    2.40
   0   0   8  323.06   14.47
   0   0  -8  320.66   14.11
   0   0   9  276.61   11.68
   0   0   9  251.08   10.49
   0   0  10    3.80    0.69
   0  -1  10   37.96    2.53
   0  -1  10   33.56    1.49
   0   1  -9   21.50    1.54
   0   1  -9   23.45    1.48
   0  -1   9   24.33    2.53
   0   1  -8    6.58    1.04
   0   1  -8    6.20    0.95
   0  -1   8    5.42    1.71
   0   1  -7  288.59   12.61
   0   1  -7  274.99   11.64
   0  -1   7  277.97   13.33
   0   1  -6   32.40    2.45
   0   1  -6   28.92    1.43
   0   1  -6   37.64    1.68
   0  -1   6   32.72    2.03
   0  -1   6   32.10    1.69
   0   1  -5    5.22    1.04
   0   1  -5    5.34    0.71
   0   1  -5    5.65    0.74
   0   1  -5    4.82    0.63
   0   1  -5    5.63    0.89
   0  -1   5    4.90    0.71
   0  -1   5    4.82    0.61
   0  -1   5    4.52    0.58
   0   1  -4   17.67    1.01
   0   1  -4   15.64    0.90
   0   1  -4   15.88    0.83
   0   1  -4   15.64    1.12
   0  -1   4   15.76    0.89
   0  -1   4   16.04    1.19
   0  -1   4   15.61    0.81
   0   1  -3  556.78   20.70
   0   1  -3  514.66   22.67
   0   1  -3  494.26   21.05
   0   1  -3  551.50   21.67
   0   1  -3  545.41   22.20
   0   1  -3  492.89   20.64
   0  -1   3  658.88   24.60
   0  -1   3  583.81   23.01
   0  -1   3  523.26   21.70
   0  -1   3  527.18   21.50
   0   1  -2   99.52    2.66
   0   1  -2  105.38    3.30
   0   1  -2  103.43    3.78
   0   1  -2   98.53    2.78
   0   1  -2   98.65    2.84
   0   1  -2   98.73    2.79
   0  -1   2   99.47    2.61
   0  -1   2   95.14    2.66
   0  -1   2  104.65    2.92
   0  -1   2   99.95    2.87
   0   1  -1   35.98    0.95
   0   1  -1   36.78    1.33
   0   1  -1   36.85    1.28
   0   1  -1   38.07    0.90
   0   1  -1   36.67    0.91
   0  -1   1   38.65    1.05
   0  -1   1   34.46    0.72
   0  -1   1   36.38    0.89
   0  -1   1   32.80    0.83
   0  -1   1   32.13    1.04
   0   1   0  126.84    3.73
   0   1   0  161.19    4.00
   0   1   0  126.02    3.48
   0   1   0  136.90    3.81
   0  -1   0  138.55    4.10
   0  -1   0  150.78    4.00
   0  -1   0  140.03    3.65
   0  -1   0  129.41    3.64
   0  -1   0  139.48    3.88
   0   1   1  652.63   26.86
   0   1   1  648.31   26.84
   0   1   1  591.29   24.02
   0   1   1  629.25   25.44
   0  -1  -1  642.60   26.20
   0  -1  -1  699.24   26.33
   0  -1  -1  618.83   25.17
   0  -1  -1  630.48   25.32
   0   1   2    8.85    0.42
   0   1   2    8.18    0.50
   0   1   2    9.57    0.69
   0   1   2    7.34    0.39
   0  -1  -2    7.47    0.41
   0  -1  -2    7.73    0.75
   0  -1  -2    7.23    0.44
   0  -1  -2    7.67    0.39
   0   1   3    3.48    0.44
   0   1   3    3.71    0.40
   0   1   3    2.59    0.37
   0   1   3    3.02    0.50
   0  -1  -3    2.71    0.23
   0  -1  -3    3.27    0.60
   0  -1  -3    2.63    0.59
   0   1   4  182.52    6.12
   0   1   4  172.22    5.61
   0   1   4  187.92    7.15
   0   1   4  182.57    6.41
   0   1   4  172.93    6.47
   0  -1  -4  198.43    6.69
   0  -1  -4  178.40    6.88
   0  -1  -4  181.82    6.95
   0  -1  -4  180.02    6.64
   0   1   5    7.18    0.70
   0   1   5    6.71    1.11
   0   1   5    6.70    0.61
   0  -1  -5    8.27    0.52
   0  -1  -5    5.88    0.64
   0  -1  -5    5.72    0.67
   0  -1  -5    5.62    0.61
   0   1   6  219.68    9.77
   0   1   6  218.97    8.87
   0  -1  -6  218.19    9.43
   0   1   7    1.50    0.65
   0   1   7    1.62    1.10
   0  -1  -7    1.55    0.58
   0   1   8   12.05    1.26
   0   1   8   11.17    1.07
   0  -1  -8   11.35    1.18
   0   1   9   40.74    2.07
   0   1   9   32.39    1.72
   0  -1  -9   31.22    1.79
   0   1  10   38.70    1.76
   0   2 -10    0.41    0.35
   0  -2  10    0.41    0.42
   0  -2  10    0.20    0.35
   0   2  -9    9.98    1.78
   0   2  -9   10.02    1.06
   0  -2   9   10.24    1.91
   0   2  -8    6.88    1.87
   0   2  -8    6.66    1.03
   0  -2   8    6.48    1.13
   0   2  -7   41.69    2.56
   0   2  -7   40.93    2.18
   0  -2   7   40.14    2.33
   0   2  -6   13.03    1.26
   0   2  -6   12.21    1.54
   0  -2   6   12.14    1.10
   0   2  -5    3.77    1.17
   0   2  -5    4.20    0.79
   0   2  -5    2.81    0.61
   0   2  -5    3.89    0.91
   0  -2   5    3.76    0.61
   0  -2   5    3.99    0.60
   0  -2   5    6.11    0.90
   0   2  -4 2702.13  177.58
   0   2  -4 2423.13  167.18
   0   2  -4 2437.85  169.87
   0   2  -4 2826.19  188.48
   0   2  -4 2897.66  195.09
   0  -2   4 2420.12  160.10
   0  -2   4 2870.06  189.19
   0  -2   4 2983.04  198.91
   0  -2   4 2925.38  197.04
   0  -2   4 2864.79  193.21
   0   2  -3   88.57    2.51
   0   2  -3   97.78    4.08
   0   2  -3  100.83    3.39
   0   2  -3   91.52    2.75
   0   2  -3   92.64    2.91
   0  -2   3   98.72    2.98
   0  -2   3   89.12    2.62
   0  -2   3   97.75    3.00
   0  -2   3   90.03    2.86
   0  -2   3   97.93    3.57
   0   2  -2    1.30    0.30
   0   2  -2    1.43    0.37
   0   2  -2    2.39    0.33
   0   2  -2    1.09    0.24
   0   2  -2    1.30    0.43
   0  -2   2    1.42    0.35
   0  -2   2    1.55    0.24
   0  -2   2    1.32    0.42
   0  -2   2    1.30    0.43
   0  -2   2    1.38    0.28
   0   2  -1  491.30   18.60
   0   2  -1  382.56   14.77
   0   2  -1  434.74   16.57
   0   2  -1  510.14   18.47
   0   2  -1  412.05   15.33
   0   2  -1  451.29   17.27
   0  -2   1  436.90   17.07
   0  -2   1  480.12   17.35
   0  -2   1  409.44   15.90
   0  -2   1  459.89   17.82
   0   2   0  250.79    8.58
   0   2   0  321.00    9.52
   0   2   0  239.47    8.23
   0   2   0  265.25    9.18
   0  -2   0  262.27    9.03
   0  -2   0  243.35    7.88
   0  -2   0  245.32    8.14
   0  -2   0  249.54    8.69
   0   2   1   22.08    1.27
   0   2   1   19.43    0.70
   0   2   1   20.85    0.70
   0   2   1   19.34    0.65
   0  -2  -1   20.68    1.15
   0  -2  -1   21.87    1.18
   0  -2  -1   20.12    0.73
   0   2   2  228.55    7.74
   0   2   2  218.51    8.11
   0   2   2  210.83    7.34
   0   2   2  218.16    7.60
   0  -2  -2  238.66    8.34
   0  -2  -2  219.26    7.60
   0  -2  -2  219.85    7.42
   0   2   3  115.67    4.02
   0   2   3  100.91    3.10
   0   2   3  106.22    4.20
   0   2   3   99.21    3.24
   0   2   3  101.44    3.17
   0   2   3   98.67    3.13
   0  -2  -3   91.28    2.55
   0  -2  -3  103.61    3.51
   0  -2  -3  101.86    3.87
   0   2   4  776.55   35.98
   0   2   4  711.76   33.16
   0   2   4  794.18   38.10
   0   2   4  732.68   35.01
   0   2   4  704.71   32.46
   0   2   4  727.12   34.50
   0  -2  -4  745.09   36.24
   0  -2  -4  728.32   34.99
   0   2   5  105.23    4.81
   0   2   5   95.41    3.71
   0   2   5  102.22    3.71
   0   2   5  104.80    4.56
   0  -2  -5   97.62    4.64
   0  -2  -5   97.49    4.49
   0   2   6    0.39    0.46
   0   2   6    0.59    0.46
   0   2   6    0.14    0.40
   0   2   7  155.17    7.54
   0   2   7  125.99    6.37
   0  -2  -7  146.03    6.10
   0   2   8   29.72    1.89
   0   2   8   26.39    1.67
   0  -2  -8   29.98    2.68
   0   2   9    3.59    0.73
   0  -2  -9    2.87    1.02
   0   3 -10    0.76    0.42
   0   3 -10    0.41    0.36
   0  -3  10    0.79    0.69
   0   3  -9    2.71    1.27
   0   3  -9    1.93    1.10
   0  -3   9    2.53    1.25
   0   3  -8   26.24    3.20
   0   3  -8   26.43    2.72
   0  -3   8   26.25    2.79
   0   3  -7   28.86    2.22
   0   3  -7   25.75    2.71
   0  -3   7   27.32    2.77
   0   3  -6    0.72    1.08
   0   3  -6    1.12    0.86
   0  -3   6    0.48    0.88
   0   3  -5  422.61   18.81
   0   3  -5  419.70   19.98
   0   3  -5  425.64   19.12
   0  -3   5  429.09   18.99
   0  -3   5  400.05   17.21
   0  -3   5  401.93   18.47
   0   3  -4   27.48    1.07
   0   3  -4   36.92    2.52
   0   3  -4   33.32    1.60
   0   3  -4   29.81    1.23
   0   3  -4   31.02    1.90
   0  -3   4   34.66    1.55
   0  -3   4   27.77    1.11
   0  -3   4   30.71    1.80
   0  -3   4   30.06    1.33
   0  -3   4   30.67    1.92
   0   3  -3 2826.03  183.15
   0   3  -3 1987.17  135.85
   0   3  -3 2422.29  162.13
   0   3  -3 2936.63  190.18
   0   3  -3 2566.14  170.39
   0  -3   3 2355.60  156.69
   0  -3   3 2803.29  180.02
   0  -3   3 2893.49  188.78
   0  -3   3 2771.81  183.18
   0  -3   3 2821.16  185.44
   0   3  -2   46.58    1.44
   0   3  -2   47.72    2.15
   0   3  -2   43.75    1.45
   0   3  -2   42.08    1.37
   0   3  -2   42.19    1.48
   0  -3   2   46.63    1.56
   0  -3   2   40.67    1.29
   0  -3   2   43.01    1.44
   0  -3   2   51.92    1.96
   0  -3   2   44.64    1.57
   0   3  -1   24.28    1.35
   0   3  -1   27.12    1.18
   0   3  -1   22.67    0.92
   0   3  -1   21.59    0.80
   0   3  -1   22.16    1.17
   0  -3   1   23.97    1.01
   0  -3   1   25.47    0.73
   0  -3   1   22.20    0.84
   0  -3   1   22.33    0.88
   0   3   0   14.13    1.10
   0   3   0   14.05    0.44
   0   3   0   13.40    0.47
   0   3   0   13.46    0.61
   0   3   0   13.14    0.61
   0  -3   0   14.04    1.10
   0  -3   0   14.26    0.82
   0  -3   0   12.92    0.61
   0  -3   0   15.31    0.65
   0   3   1   30.68    1.27
   0   3   1   27.45    1.35
   0   3   1   27.31    1.30
   0   3   1   26.46    0.93
   0  -3  -1   29.31    1.63
   0  -3  -1   33.11    1.47
   0  -3  -1   27.30    1.32
   0   3   2  103.00    3.51
   0   3   2   96.08    3.18
   0   3   2   92.24    2.99
   0   3   2   94.48    3.02
   0  -3  -2  103.75    4.00
   0  -3  -2  104.71    3.44
   0  -3  -2   97.84    3.75
   0  -3  -2   92.91    3.61
   0   3   3   27.39    1.70
   0   3   3   25.12    1.61
   0   3   3   23.83    1.43
   0   3   3   23.14    1.37
   0  -3  -3   24.48    1.79
   0  -3  -3   26.04    1.14
   0   3   4   91.37    3.98
   0   3   4   82.71    2.99
   0   3   4   88.04    3.30
   0   3   4   85.43    3.08
   0   3   4   84.94    3.15
   0  -3  -4   81.64    4.16
   0  -3  -4   81.79    3.16
   0   3   5   72.40    3.04
   0   3   5   67.94    2.78
   0   3   6    1.82    1.10
   0   3   6    1.60    0.95
   0  -3  -6    2.17    0.73
   0   3   7   27.06    2.59
   0   3   7   22.64    2.24
   0  -3  -7   25.85    2.65
   0   3   8    9.14    1.06
   0  -3  -8    8.75    1.02
   0   3   9    0.30    0.38
   0  -3  -9    0.41    0.39
   0   4  -9   11.99    1.88
   0   4  -9   10.77    1.72
   0  -4   9   11.21    1.15
   0   4  -8  199.41    9.19
   0   4  -8  195.12    8.46
   0  -4   8  188.51    8.31
   0   4  -7    2.14    1.09
   0   4  -7    4.95    0.92
   0  -4   7    2.59    0.87
   0   4  -6  191.94   10.19
   0   4  -6  183.73    8.97
   0  -4   6  178.09    7.50
   0   4  -5    2.45    0.78
   0   4  -5    2.20    1.02
   0  -4   5    2.24    0.62
   0   4  -4    0.19    0.78
   0   4  -4    0.47    0.67
   0   4  -4    0.95    0.69
   0  -4   4    0.20    0.58
   0  -4   4    1.28    0.40
   0  -4   4    0.35    0.64
   0  -4   4    0.31    0.45
   0   4  -3    4.14    0.42
   0   4  -3    4.11    0.91
   0   4  -3    3.60    0.77
   0   4  -3    3.34    0.32
   0   4  -3    3.69    0.57
   0  -4   3    4.32    0.82
   0  -4   3    3.47    0.79
   0  -4   3    3.64    0.50
   0  -4   3    4.24    0.59
   0   4  -2  147.32    5.09
   0   4  -2  158.40    5.82
   0   4  -2  139.77    4.71
   0   4  -2  153.51    5.31
   0  -4   2  142.24    5.60
   0  -4   2  136.31    4.59
   0  -4   2  139.56    4.84
   0  -4   2  145.86    5.12
   0   4  -1   16.28    0.93
   0   4  -1   14.24    0.55
   0   4  -1   14.07    0.54
   0   4  -1   14.36    0.71
   0   4  -1   13.76    0.76
   0  -4   1   14.49    0.87
   0  -4   1   14.52    0.82
   0  -4   1   14.45    0.76
   0  -4   1   14.55    0.80
   0   4   0  128.08    5.25
   0   4   0  130.43    4.77
   0   4   0  123.76    4.69
   0  -4   0  122.59    5.12
   0  -4   0  124.09    4.46
   0  -4   0  124.56    4.76
   0  -4   0  119.86    4.57
   0   4   1    2.12    0.51
   0   4   1    2.40    0.65
   0   4   1    2.40    0.37
   0  -4  -1    2.21    0.51
   0  -4  -1    1.87    0.65
   0  -4  -1    2.34    0.41
   0   4   2    4.82    0.65
   0   4   2    4.54    0.89
   0   4   2    6.91    0.86
   0   4   2    4.63    0.82
   0  -4  -2    4.64    0.65
   0  -4  -2    4.85    0.92
   0  -4  -2    4.66    0.92
   0   4   3   80.64    3.14
   0   4   3   86.32    3.91
   0   4   3   82.50    3.01
   0   4   3   82.33    3.66
   0  -4  -3   83.98    4.05
   0  -4  -3   79.91    3.69
   0   4   4   17.61    1.78
   0   4   4   18.24    1.91
   0   4   4   17.06    1.66
   0  -4  -4   21.58    1.38
   0   4   5   34.50    2.74
   0   4   5   28.44    2.33
   0  -4  -5   32.94    2.81
   0   4   6   35.52    3.03
   0  -4  -6   34.44    3.11
   0   4   7   74.20    4.45
   0  -4  -7   72.60    3.49
   0   4   8   41.38    2.76
   0  -4  -8   39.41    2.10
   0   5  -9    1.03    0.56
   0   5  -9    1.13    0.82
   0  -5   9    0.96    0.50
   0   5  -8    7.01    1.89
   0   5  -8    7.68    1.06
   0  -5   8    6.59    1.02
   0   5  -7   46.36    4.10
   0   5  -7   44.36    2.60
   0  -5   7   43.39    2.49
   0   5  -6   72.54    3.73
   0   5  -6   67.85    3.41
   0  -5   6   67.15    3.21
   0   5  -5   44.33    3.40
   0   5  -5   40.14    2.22
   0  -5   5   39.79    2.09
   0   5  -4   28.40    2.37
   0   5  -4   27.00    1.62
   0  -5   4   26.72    1.49
   0   5  -3   19.44    1.10
   0   5  -3   18.19    1.59
   0   5  -3   19.25    1.65
   0   5  -3   18.94    1.25
   0  -5   3   19.91    1.99
   0  -5   3   18.44    1.61
   0   5  -2  240.70    9.26
   0   5  -2  217.38    8.71
   0   5  -2  216.80    8.78
   0   5  -2  235.95    9.10
   0  -5   2  228.45   10.05
   0  -5   2  225.42    8.55
   0  -5   2  218.91    8.49
   0  -5   2  232.80    8.97
   0   5  -1   15.01    1.59
   0   5  -1   12.99    1.23
   0   5  -1   13.02    0.87
   0  -5   1   14.39    1.62
   0  -5   1   12.45    0.97
   0  -5   1   12.73    0.85
   0  -5   1   13.65    0.89
   0   5   0  191.18    7.41
   0   5   0  179.22    7.27
   0   5   0  184.29    7.45
   0  -5   0  180.29    7.12
   0  -5   0  186.86    7.19
   0  -5   0  161.84    6.11
   0  -5   0  174.51    6.48
   0   5   1  111.07    5.34
   0   5   1  109.62    4.64
   0   5   1   97.50    4.25
   0   5   1  105.44    4.60
   0  -5  -1  100.14    4.96
   0  -5  -1  102.95    4.40
   0  -5  -1   98.06    4.40
   0   5   2  816.25   43.07
   0   5   2  912.55   45.97
   0   5   2  807.81   41.33
   0   5   2  806.57   40.86
   0  -5  -2  826.16   42.67
   0   5   3   59.48    2.75
   0   5   3   61.54    2.66
   0   5   3   57.49    3.28
   0  -5  -3   60.01    3.59
   0   5   4  112.19    4.94
   0   5   4  116.66    5.75
   0   5   4  108.91    4.59
   0  -5  -4  115.00    4.98
   0   5   5    1.71    1.09
   0  -5  -5    1.84    1.20
   0   5   6    0.53    0.83
   0  -5  -6    0.51    0.95
   0   5   7   13.52    1.09
   0  -5  -7   13.39    1.27
   0   5   8    6.54    0.61
   0  -5  -8    8.54    1.19
   0   6  -8   28.95    1.70
   0   6  -8   31.51    1.77
   0  -6   8   30.13    1.64
   0   6  -7    0.72    1.07
   0   6  -7    0.23    0.65
   0  -6   7    1.48    0.59
   0   6  -6   37.75    2.37
   0   6  -6   37.81    2.35
   0  -6   6   35.09    2.12
   0   6  -5    2.82    1.36
   0   6  -5    3.10    0.89
   0  -6   5    3.17    0.79
   0   6  -4    4.38    1.28
   0   6  -4    4.41    1.42
   0  -6   4    4.17    0.80
   0   6  -3  151.71    6.89
   0   6  -3  140.77    6.86
   0  -6   3  137.74    5.51
   0   6  -2    8.81    1.50
   0   6  -2    9.07    1.48
   0  -6   2    8.78    0.89
   0   6  -1    6.65    0.93
   0   6  -1    6.03    0.78
   0   6  -1    5.90    1.26
   0   6   0   84.24    4.71
   0   6   0   76.81    3.13
   0   6   0   78.63    3.21
   0  -6   0   78.92    3.10
   0   6   1    0.47    0.86
   0   6   1    0.36    0.42
   0   6   1    0.34    0.68
   0  -6  -1    0.00    0.66
   0   6   2   16.80    2.28
   0   6   2   16.63    1.87
   0   6   2   14.56    1.22
   0  -6  -2   27.98    2.08
   0   6   3   72.21    4.44
   0   6   3   74.84    3.34
   0   6   3   62.74    3.83
   0  -6  -3   77.06    4.39
   0   6   4   53.37    2.86
   0   6   4   60.29    2.87
   0  -6  -4   59.54    3.01
   0   6   5    2.96    0.73
   0  -6  -5    2.81    1.29
   0   6   6   18.89    1.30
   0  -6  -6   19.84    2.15
   0   6   7    8.89    1.00
   0  -6  -7   11.28    0.92
   0   7  -7    3.42    1.04
   0   7  -7    5.45    1.28
   0  -7   7    4.88    1.09
   0   7  -6   11.73    1.16
   0   7  -6   19.48    2.13
   0  -7   6   17.73    1.92
   0   7  -5    1.86    1.21
   0  -7   5    1.63    1.06
   0   7  -4   34.62    3.04
   0  -7   4   32.20    2.76
   0   7  -3  222.19    9.58
   0   7  -3  233.52    9.96
   0  -7   3  230.16   10.74
   0   7  -2  169.17    7.27
   0   7  -2  168.36    7.14
   0  -7   2  175.17    8.27
   0   7  -1   10.79    1.86
   0   7  -1   11.08    1.80
   0  -7   1   10.96    1.10
   0   7   0    0.22    0.80
   0   7   0    0.20    0.41
   0   7   0   -0.00    0.40
   0   7   1    2.26    0.84
   0   7   1    2.08    0.63
   0   7   1    2.29    1.00
   0  -7  -1    1.75    0.97
   0   7   2    6.63    1.07
   0   7   2    5.97    1.30
   0  -7  -2    5.87    1.39
   0   7   3    2.84    1.29
   0   7   3    2.77    1.09
   0  -7  -3    2.63    1.18
   0   7   4   15.42    1.27
   0   7   4   16.81    1.78
   0  -7  -4   18.51    2.02
   0   7   5   43.45    2.59
   0  -7  -5   47.76    3.06
   0  -7  -6  140.84    5.33
   0   8  -6   -0.05    0.31
   0  -8   6   -0.01    0.26
   0   8  -5   82.02    3.41
   0  -8   5   75.13    3.15
   0   8  -4    2.13    1.07
   0  -8   4    2.02    0.60
   0   8  -3    1.86    1.00
   0   8  -3    2.84    1.10
   0  -8   3    1.64    0.60
   0   8  -2   29.44    1.76
   0   8  -2   24.45    1.65
   0  -8   2   22.09    2.23
   0   8  -1  504.00   24.95
   0   8  -1  444.55   22.01
   0  -8   1  467.93   22.40
   0   8   0    0.98    0.57
   0   8   0    0.13    0.44
   0  -8   0    0.13    0.44
   0   8   1    0.34    0.49
   0  -8  -1    0.06    0.38
   0   8   2    4.87    0.89
   0   8   2    4.19    0.68
   0   8   3    0.80    0.69
   0   8   3    0.08    0.32
   0  -8  -3    0.25    0.35
   0   8   4    1.71    0.43
   0  -8  -4    1.77    0.46
   0   9  -4    6.62    1.00
   0   9  -3    0.95    0.41
   0   9  -3    1.72    0.70
   0  -9   3    1.07    0.54
   0   9  -2    6.42    0.75
   0   9  -2    5.30    0.65
   0  -9   2    5.49    0.91
   0   9  -1   11.14    1.49
   0   9  -1   10.92    1.13
   0  -9   1    7.49    0.69
   0   9   0   46.25    2.24
   0   9   1    8.60    0.93
   0   9   2    2.49    0.87
  -1   9  -1   17.93    1.52
  -1   9  -2    4.19    0.53
   1  -8  -3   17.89    1.00
  -1   8   3   18.27    1.49
   1  -8  -2    5.91    0.69
  -1   8   2    7.42    0.82
  -1   8   2    5.59    0.88
   1  -8  -1    0.83    0.71
  -1   8   1    1.31    0.59
  -1   8   1    1.01    0.76
  -1   8   0    0.24    0.49
  -1   8   0    0.40    0.66
  -1   8  -1   43.79    2.32
  -1   8  -1   44.15    2.18
  -1   8  -2  223.74   10.70
  -1   8  -2  227.57   10.40
  -1   8  -3    0.45    0.69
  -1   8  -3    0.59    0.51
  -1   8  -4    0.40    0.48
  -1   8  -5   35.10    2.52
  -1   8  -6    0.86    0.71
   1  -7  -5    7.81    1.14
   1  -7  -4    2.51    0.97
  -1   7   4    1.96    0.51
   1  -7  -3    2.17    0.95
  -1   7   3    1.29    1.00
  -1   7   3    1.21    0.50
   1  -7  -2   13.67    1.80
  -1   7   2   13.89    1.36
  -1   7   2   11.40    1.10
   1  -7  -1    5.31    0.87
  -1   7   1    6.09    1.06
  -1   7   1    5.44    0.88
   1  -7   0   44.16    3.15
  -1   7   0   49.32    2.75
  -1   7   0   47.80    3.42
  -1   7  -1    1.53    0.74
  -1   7  -1    1.77    0.70
  -1   7  -2  225.78   10.82
  -1   7  -2  220.39   10.62
  -1   7  -3   22.98    2.29
  -1   7  -3   25.11    2.52
  -1   7  -4    1.77    0.73
  -1   7  -5    0.14    0.47
   1  -7   6    9.63    0.97
  -1   7  -6   14.80    1.23
   1  -7   7   -0.05    0.23
  -1   7  -7    0.39    0.37
   1  -6  -6    1.50    0.51
   1  -6  -5    2.15    1.01
  -1   6   5    1.05    0.45
   1  -6  -4    9.00    1.77
  -1   6   4   10.60    1.67
  -1   6   4    7.14    1.47
   1  -6  -3   71.57    4.54
  -1   6   3   70.95    3.48
  -1   6   3   63.93    4.05
   1  -6  -2  179.99    8.93
  -1   6   2  172.93    7.82
  -1   6   2  168.48    8.38
   1  -6  -1   11.33    1.14
  -1   6   1   11.30    1.33
  -1   6   1   10.14    1.10
   1  -6   0   21.32    2.04
  -1   6   0   20.51    1.63
  -1   6   0   17.72    2.00
   1  -6   1  127.78    5.92
   1  -6   1  110.29    4.55
  -1   6  -1  132.75    6.66
  -1   6  -1  122.22    5.02
   1  -6   2   15.52    1.64
  -1   6  -2   17.23    1.34
  -1   6  -2   17.11    1.39
   1  -6   3   18.24    1.84
  -1   6  -3   21.30    2.02
  -1   6  -3   21.27    2.30
   1  -6   4   69.11    3.97
  -1   6  -4   80.95    4.71
   1  -6   5    0.29    0.79
  -1   6  -5    0.42    0.54
  -1   6  -5    0.88    0.97
   1  -6   6   62.61    3.92
  -1   6  -6   64.66    4.31
  -1   6  -6   71.33    4.56
   1  -6   7    9.13    1.54
  -1   6  -7    9.15    1.78
  -1   6  -7   10.91    1.84
   1  -6   8    1.21    0.77
  -1   6  -8    1.80    0.93
  -1   6  -8    1.84    0.95
   1  -5  -7    7.95    1.29
   1  -5  -6   11.15    1.14
  -1   5   6    8.28    1.30
   1  -5  -5   14.56    2.14
  -1   5   5   13.39    1.93
   1  -5  -4   19.82    2.56
  -1   5   4   19.41    2.28
  -1   5   4   21.62    1.99
  -1   5   4   19.49    1.53
   1  -5  -3   19.60    2.28
  -1   5   3   17.73    2.14
  -1   5   3   16.97    1.81
  -1   5   3   18.05    1.46
   1  -5  -2    2.89    1.22
  -1   5   2    3.56    0.77
  -1   5   2    2.80    0.59
  -1   5   2    2.46    1.08
   1  -5  -1   99.48    4.07
  -1   5   1   97.47    4.17
  -1   5   1   94.50    3.60
  -1   5   1   94.33    3.84
   1  -5   0    1.93    0.53
   1  -5   0    1.78    0.75
  -1   5   0    2.26    0.65
  -1   5   0    2.09    0.69
  -1   5   0    1.82    0.95
   1  -5   1    6.75    0.70
   1  -5   1    5.47    1.00
  -1   5  -1    7.09    1.33
  -1   5  -1    5.82    0.63
  -1   5  -1    6.81    1.29
   1  -5   2   94.10    3.49
   1  -5   2   86.89    3.32
   1  -5   2   83.12    3.32
  -1   5  -2   98.51    3.83
  -1   5  -2   90.77    4.43
   1  -5   3   46.93    2.50
   1  -5   3   55.37    2.18
  -1   5  -3   52.33    2.25
  -1   5  -3   51.26    3.28
   1  -5   4   22.08    1.31
  -1   5  -4   22.23    2.09
  -1   5  -4   23.45    2.23
   1  -5   5  253.51   10.59
  -1   5  -5  256.59   11.16
  -1   5  -5  253.66   12.15
   1  -5   6   54.99    2.76
  -1   5  -6   58.69    4.10
  -1   5  -6   57.07    4.01
   1  -5   7  111.66    4.95
  -1   5  -7  118.66    5.51
  -1   5  -7  117.36    6.51
   1  -5   8   -0.02    0.46
  -1   5  -8    0.98    0.92
  -1   5  -8    0.44    0.79
   1  -5   9    2.58    0.92
  -1   5  -9    2.85    1.15
  -1   5  -9    2.70    1.02
   1  -4  -8    0.31    0.54
   1  -4  -7    9.73    1.54
  -1   4   7    7.99    0.79
  -1   4   7    7.66    0.83
   1  -4  -6    3.12    0.87
  -1   4   6    3.35    1.12
  -1   4   6    3.04    0.73
   1  -4  -5    3.14    1.38
  -1   4   5    2.42    0.69
  -1   4   5    2.61    0.75
   1  -4  -4    7.75    1.66
  -1   4   4    6.33    0.90
  -1   4   4    7.16    0.85
  -1   4   4    7.08    0.96
   1  -4  -3   42.34    3.04
  -1   4   3   43.05    2.93
  -1   4   3   42.37    2.51
  -1   4   3   42.86    2.07
   1  -4  -2    0.26    0.42
   1  -4  -2    0.02    0.33
  -1   4   2    0.53    0.42
  -1   4   2    0.25    0.29
  -1   4   2    0.05    0.61
  -1   4   2    1.09    0.59
   1  -4  -1   18.08    1.61
   1  -4  -1   18.89    1.40
  -1   4   1   19.94    1.25
  -1   4   1   17.21    1.22
  -1   4   1   17.50    1.10
  -1   4   1   16.89    1.05
   1  -4   0  310.91   12.40
   1  -4   0  308.15   11.75
   1  -4   0  233.20   10.13
   1  -4   0  289.85   11.02
  -1   4   0  308.71   12.96
  -1   4   0  275.94   10.29
  -1   4   0  282.32   10.99
   1  -4   1  151.09    5.75
   1  -4   1  144.55    5.63
   1  -4   1  150.24    5.79
   1  -4   1  144.05    6.04
  -1   4  -1  144.12    5.96
  -1   4  -1  138.82    5.14
  -1   4  -1  146.90    5.36
   1  -4   2  450.47   20.52
   1  -4   2  466.16   19.77
   1  -4   2  458.04   18.83
   1  -4   2  452.48   19.01
   1  -4   2  474.49   21.08
  -1   4  -2  464.43   20.21
  -1   4  -2  452.28   19.56
  -1   4  -2  429.18   18.37
  -1   4  -2  441.43   18.64
   1  -4   3   38.83    2.46
   1  -4   3   33.69    1.70
   1  -4   3   34.93    1.39
   1  -4   3   35.14    1.46
   1  -4   3   36.17    2.32
  -1   4  -3   36.95    1.89
  -1   4  -3   41.98    2.42
  -1   4  -3   35.34    1.97
  -1   4  -3   35.21    1.42
  -1   4  -3   35.39    1.63
   1  -4   4   33.74    1.37
   1  -4   4   38.17    1.63
   1  -4   4   36.48    1.62
  -1   4  -4   41.02    2.76
  -1   4  -4   39.45    2.46
  -1   4  -4   37.12    2.01
  -1   4  -4   37.17    1.78
   1  -4   5  149.25    6.66
  -1   4  -5  157.38    6.66
  -1   4  -5  142.54    6.84
   1  -4   6   18.69    1.41
  -1   4  -6   19.58    2.52
  -1   4  -6   17.65    2.16
   1  -4   7    2.62    0.77
  -1   4  -7    2.25    1.51
  -1   4  -7    2.52    1.28
   1  -4   8   72.49    3.47
  -1   4  -8   78.45    4.06
  -1   4  -8   72.88    4.55
   1  -4   9    1.96    0.65
  -1   4  -9    1.69    0.79
  -1   4  -9    2.01    1.02
   1  -4  10   38.75    2.16
  -1   4 -10   40.99    1.84
  -1   4 -10   41.48    1.60
   1  -3  -8    0.57    0.65
  -1   3   8    0.40    0.36
  -1   3   8    0.15    0.54
   1  -3  -7    1.35    1.03
  -1   3   7    1.20    0.95
  -1   3   7    1.24    0.95
   1  -3  -6   77.74    3.69
  -1   3   6   77.22    3.55
  -1   3   6   76.31    3.55
   1  -3  -5  115.56    4.98
  -1   3   5  122.29    5.93
  -1   3   5  110.58    5.70
   1  -3  -4    1.91    0.95
  -1   3   4    1.05    0.51
  -1   3   4    1.65    0.80
  -1   3   4    1.61    0.90
   1  -3  -3  231.25    9.97
   1  -3  -3  223.57    8.88
   1  -3  -3  229.06    8.80
  -1   3   3  216.72    9.25
  -1   3   3  214.37    9.14
  -1   3   3  218.68    8.22
  -1   3   3  219.65    9.33
  -1   3   3  203.52    8.76
   1  -3  -2  237.01    9.04
   1  -3  -2  250.23    9.57
   1  -3  -2  246.81    9.10
  -1   3   2  234.04    8.98
  -1   3   2  234.79    9.73
  -1   3   2  224.70    8.72
  -1   3   2  229.64    8.73
  -1   3   2  229.29    9.52
   1  -3  -1    3.92    0.57
   1  -3  -1    3.53    0.64
  -1   3   1    3.88    0.57
  -1   3   1    3.59    0.55
  -1   3   1    3.65    0.50
  -1   3   1    4.28    0.50
   1  -3   0   43.08    1.74
   1  -3   0   40.18    1.95
   1  -3   0   42.98    2.00
   1  -3   0   38.39    1.56
   1  -3   0   38.24    1.48
  -1   3   0   40.56    1.61
  -1   3   0   36.06    1.04
  -1   3   0   42.09    1.54
  -1   3   0   39.99    1.53
   1  -3   1  241.97    9.68
   1  -3   1  231.99    8.20
   1  -3   1  283.88    9.92
   1  -3   1  257.52    9.25
  -1   3  -1  250.00    8.99
  -1   3  -1  227.89    8.00
  -1   3  -1  229.33    7.75
  -1   3  -1  232.80    8.39
   1  -3   2   68.81    2.89
   1  -3   2   71.88    2.62
   1  -3   2   70.99    2.14
   1  -3   2   63.67    2.31
   1  -3   2   69.95    2.96
  -1   3  -2   71.64    2.71
  -1   3  -2   74.98    2.50
  -1   3  -2   68.23    2.48
  -1   3  -2   66.22    2.45
  -1   3  -2   69.13    2.85
   1  -3   3  702.75   34.50
   1  -3   3  857.06   39.69
   1  -3   3  835.12   38.78
   1  -3   3  721.57   34.33
   1  -3   3  779.33   37.75
  -1   3  -3  872.11   40.35
  -1   3  -3  689.57   34.64
  -1   3  -3  845.55   39.83
  -1   3  -3  806.59   38.13
  -1   3  -3  868.84   40.45
   1  -3   4  179.59    6.20
   1  -3   4  175.65    6.54
   1  -3   4  216.21    7.90
   1  -3   4  164.33    6.55
   1  -3   4  179.95    6.78
  -1   3  -4  196.01    7.70
  -1   3  -4  188.87    8.04
  -1   3  -4  178.32    6.81
  -1   3  -4  179.31    7.27
   1  -3   5  230.35    8.62
   1  -3   5  252.93   10.48
   1  -3   5  230.48    9.69
  -1   3  -5  260.84   12.12
  -1   3  -5  232.75    9.49
  -1   3  -5  253.20   10.66
   1  -3   6   35.29    2.59
  -1   3  -6   40.35    2.50
  -1   3  -6   36.08    2.66
   1  -3   7    3.30    1.34
  -1   3  -7    3.00    1.07
  -1   3  -7    6.78    1.37
   1  -3   8   25.15    2.75
  -1   3  -8   27.29    3.25
  -1   3  -8   27.01    2.60
   1  -3   9    4.12    1.40
  -1   3  -9    3.66    1.57
  -1   3  -9    3.56    0.78
   1  -3  10    1.82    0.93
  -1   3 -10    1.60    1.01
  -1   3 -10    2.51    0.80
  -1   2   9    0.08    0.25
   1  -2  -8    0.55    0.52
  -1   2   8    0.88    0.54
  -1   2   8    1.41    0.52
   1  -2  -7    2.66    0.77
  -1   2   7    2.22    0.73
  -1   2   7    2.79    0.75
   1  -2  -6   36.51    2.86
  -1   2   6   36.36    2.80
  -1   2   6   36.57    2.80
   1  -2  -5  342.29   14.91
  -1   2   5  358.40   16.28
  -1   2   5  353.40   16.07
   1  -2  -4   58.20    2.46
   1  -2  -4   53.37    2.26
   1  -2  -4   64.35    3.02
  -1   2   4   53.75    2.10
  -1   2   4   52.83    2.03
  -1   2   4   54.69    2.63
  -1   2   4   56.93    2.29
  -1   2   4   51.43    2.18
   1  -2  -3   18.44    1.06
   1  -2  -3   17.17    1.03
   1  -2  -3   16.06    1.17
  -1   2   3   18.27    1.43
  -1   2   3   16.25    1.20
  -1   2   3   18.00    1.19
  -1   2   3   22.48    1.50
  -1   2   3   17.32    0.96
   1  -2  -2  194.12    6.05
   1  -2  -2  237.34    9.22
   1  -2  -2  235.67    8.49
   1  -2  -2  224.38    8.13
  -1   2   2  244.89    8.72
  -1   2   2  232.31    8.76
  -1   2   2  218.77    6.98
  -1   2   2  234.62    7.93
  -1   2   2  222.17    8.53
  -1   2   2  220.52    8.51
   1  -2  -1   88.59    2.88
   1  -2  -1   89.21    3.57
   1  -2  -1   87.25    2.83
  -1   2   1   95.26    3.14
  -1   2   1   87.77    2.90
  -1   2   1   90.45    2.39
  -1   2   1   85.64    2.48
  -1   2   1   85.21    3.28
  -1   2   1   85.24    2.78
   1  -2   0  760.96   34.30
   1  -2   0  780.39   32.85
   1  -2   0  717.75   31.95
   1  -2   0  756.84   33.78
   1  -2   0  736.03   31.97
   1  -2   0  718.64   32.14
  -1   2   0  780.52   34.94
  -1   2   0  760.63   32.38
  -1   2   0  726.06   31.44
  -1   2   0  736.16   32.65
   1  -2   1  463.37   18.83
   1  -2   1  468.20   18.00
   1  -2   1  420.29   16.34
   1  -2   1  471.82   17.88
   1  -2   1  423.39   17.36
  -1   2  -1  474.35   18.99
  -1   2  -1  469.71   18.07
  -1   2  -1  451.97   17.93
  -1   2  -1  497.54   18.24
  -1   2  -1  436.14   17.04
   1  -2   2   17.60    0.94
   1  -2   2   18.63    1.10
   1  -2   2   17.43    0.66
   1  -2   2   18.05    0.83
   1  -2   2   15.62    0.56
   1  -2   2   16.36    1.06
  -1   2  -2   18.47    0.66
  -1   2  -2   18.21    0.76
  -1   2  -2   16.52    0.88
  -1   2  -2   16.63    1.03
   1  -2   3  484.66   19.35
   1  -2   3  511.72   19.97
   1  -2   3  482.34   19.01
   1  -2   3  444.73   18.11
   1  -2   3  487.59   20.42
  -1   2  -3  522.97   19.98
  -1   2  -3  452.26   19.08
  -1   2  -3  464.86   19.89
  -1   2  -3  455.14   18.52
  -1   2  -3  487.93   20.15
   1  -2   4  136.94    4.35
   1  -2   4  134.62    4.46
   1  -2   4  127.66    4.22
   1  -2   4  129.88    4.48
  -1   2  -4  144.71    6.27
  -1   2  -4  139.04    5.83
  -1   2  -4  129.78    4.20
  -1   2  -4  133.20    4.49
   1  -2   5    2.55    0.52
   1  -2   5    0.55    0.39
   1  -2   5    0.55    0.36
   1  -2   5    1.74    0.40
  -1   2  -5    0.73    0.61
  -1   2  -5    0.72    0.88
  -1   2  -5    0.75    0.38
   1  -2   6  243.29    9.34
   1  -2   6  251.88   10.01
  -1   2  -6  266.38   11.16
  -1   2  -6  216.61    9.42
  -1   2  -6  241.00    9.53
   1  -2   7   78.44    3.57
  -1   2  -7   80.19    5.07
  -1   2  -7   77.37    4.19
   1  -2   8   34.34    3.28
  -1   2  -8   38.84    3.61
  -1   2  -8   33.63    2.81
   1  -2   9   25.93    2.65
  -1   2  -9   24.55    2.77
  -1   2  -9   23.86    2.33
   1  -2  10   31.89    2.49
  -1   2 -10   35.01    2.53
  -1   2 -10   33.06    2.15
  -1   1   9   75.31    3.78
  -1   1   9   66.97    3.35
  -1   1   8    6.97    1.50
  -1   1   8    6.37    1.47
   1  -1  -7   16.40    2.11
  -1   1   7   20.15    1.44
  -1   1   7   19.23    1.45
   1  -1  -6    8.01    0.99
  -1   1   6    7.61    1.37
   1  -1  -5    0.76    0.47
   1  -1  -5    0.59    0.46
  -1   1   5    1.42    0.44
   1  -1  -4  126.53    4.53
   1  -1  -4  122.29    4.98
   1  -1  -4  127.10    5.03
   1  -1  -4  129.56    4.62
  -1   1   4  133.39    5.17
  -1   1   4  125.96    4.26
  -1   1   4  135.25    5.24
  -1   1   4  127.24    5.28
   1  -1  -3  446.48   17.68
   1  -1  -3  455.89   19.06
   1  -1  -3  433.23   17.88
   1  -1  -3  434.14   17.61
  -1   1   3  450.27   17.89
  -1   1   3  447.12   18.31
  -1   1   3  437.93   17.50
  -1   1   3  472.59   19.25
  -1   1   3  428.44   18.25
   1  -1  -2 1557.93   83.59
   1  -1  -2 1570.08   86.80
   1  -1  -2 1491.68   82.80
   1  -1  -2 1402.26   77.79
   1  -1  -2 1564.26   85.98
  -1   1   2 1492.87   82.71
  -1   1   2 1508.16   83.60
  -1   1   2 1707.04   93.20
  -1   1   2 1598.07   87.38
  -1   1   2 1538.72   85.92
   1  -1  -111889.95 1304.04
   1  -1  -110906.87 1215.70
   1  -1  -110790.62 1202.05
   1  -1  -112621.06 1389.18
  -1   1   111479.75 1271.78
  -1   1   112264.81 1361.29
  -1   1   111361.92 1252.08
  -1   1   112737.08 1399.86
  -1   1   113080.89 1445.25
  -1   1   113104.81 1453.21
   1  -1   0 1271.03   63.24
   1  -1   0 1258.11   63.71
   1  -1   0 1351.54   66.41
   1  -1   0 1235.39   62.64
  -1   1   0 1256.62   63.57
  -1   1   0 1278.14   64.96
  -1   1   0 1311.40   65.48
  -1   1   0 1247.10   63.35
  -1   1   0 1307.22   64.09
  -1   1   0 1250.10   64.00
   1  -1   1 1715.06   96.25
   1  -1   1 1702.49   95.00
   1  -1   1 1865.60  104.68
   1  -1   1 1826.36  100.08
   1  -1   1 1855.25  104.85
  -1   1  -1 1687.32   94.14
  -1   1  -1 1842.04  103.65
  -1   1  -1 1701.03   96.15
  -1   1  -1 1755.95   99.29
   1  -1   2    2.53    0.35
   1  -1   2    2.32    0.42
   1  -1   2    2.27    0.21
   1  -1   2    2.24    0.32
   1  -1   2    2.76    0.47
  -1   1  -2    2.44    0.29
  -1   1  -2    2.61    0.38
  -1   1  -2    2.96    0.43
  -1   1  -2    2.19    0.26
   1  -1   3   30.53    1.20
   1  -1   3   30.69    1.22
   1  -1   3   27.75    1.17
   1  -1   3   26.32    1.22
  -1   1  -3   28.63    1.17
  -1   1  -3   26.83    1.18
  -1   1  -3   28.92    0.91
  -1   1  -3   26.17    1.16
   1  -1   4  398.79   15.17
   1  -1   4  410.64   16.30
   1  -1   4  396.48   15.31
  -1   1  -4  394.63   16.02
  -1   1  -4  365.20   14.99
  -1   1  -4  390.23   14.94
  -1   1  -4  400.97   15.44
  -1   1  -4  387.57   14.80
   1  -1   5   14.75    1.10
   1  -1   5   14.55    0.88
   1  -1   5   14.38    1.23
  -1   1  -5   16.70    1.18
  -1   1  -5   14.16    1.09
  -1   1  -5   17.31    0.89
  -1   1  -5   14.43    0.77
   1  -1   6   13.75    1.29
   1  -1   6   14.28    1.05
   1  -1   6   12.70    0.95
  -1   1  -6   15.40    1.23
  -1   1  -6   13.00    0.91
  -1   1  -6   12.81    0.87
   1  -1   7  206.30    9.28
   1  -1   7  227.83   10.61
  -1   1  -7  218.63   10.44
  -1   1  -7  207.88    8.41
   1  -1   8  400.48   19.54
   1  -1   8  410.35   20.71
  -1   1  -8  427.79   21.54
  -1   1  -8  411.52   18.69
   1  -1   9    1.32    0.68
  -1   1  -9    0.77    1.05
  -1   1  -9    0.59    0.53
   1  -1  10   16.18    1.25
  -1   1 -10   13.16    1.06
  -1   0   9    1.58    0.95
  -1   0   9    1.80    0.90
  -1   0   8  344.83   15.08
  -1   0   8  327.08   14.36
   1   0  -7   21.78    1.54
  -1   0   7   21.11    1.53
   1   0  -6  112.99    4.45
   1   0  -6  105.64    4.37
   1   0  -6  119.30    5.68
  -1   0   6  117.35    5.57
   1   0  -5   58.36    2.82
   1   0  -5   55.11    2.72
   1   0  -5   56.65    2.94
   1   0  -5   57.92    2.36
  -1   0   5   57.45    2.22
  -1   0   5   60.39    3.04
  -1   0   5   52.89    2.94
   1   0  -4   22.14    0.96
   1   0  -4   20.63    1.28
   1   0  -4   20.78    0.94
   1   0  -4   20.56    1.44
  -1   0   4   18.79    1.03
  -1   0   4   19.15    0.96
  -1   0   4   20.90    0.96
  -1   0   4   20.39    0.96
  -1   0   4   19.37    1.46
   1   0  -3  123.65    4.31
   1   0  -3  105.30    3.29
   1   0  -3  107.20    3.76
   1   0  -3  107.90    3.56
  -1   0   3  120.67    3.51
  -1   0   3  112.53    3.67
  -1   0   3  113.85    3.77
  -1   0   3  120.08    4.19
  -1   0   3  114.40    4.00
  -1   0   3  109.53    4.12
   1   0  -2  168.15    5.08
   1   0  -2  181.73    5.67
   1   0  -2  169.79    5.56
   1   0  -2  165.09    5.40
   1   0  -2  166.82    5.32
  -1   0   2  171.94    5.57
  -1   0   2  186.40    6.41
  -1   0   2  179.04    5.57
  -1   0   2  168.12    5.12
  -1   0   2  169.89    5.92
   1   0  -1 1185.03   58.74
   1   0  -1 1195.70   58.80
   1   0  -1 1223.33   60.22
   1   0  -1 1130.33   56.56
   1   0  -1 1151.97   55.94
   1   0  -1 1267.19   63.19
  -1   0   1 1176.93   58.05
  -1   0   1 1228.66   61.38
  -1   0   1 1249.75   60.30
  -1   0   1 1247.00   62.29
   1   0   0  134.38    3.63
   1   0   0  125.97    3.62
   1   0   0  132.60    3.54
  -1   0   0  130.01    3.83
  -1   0   0  128.94    3.53
  -1   0   0  131.30    3.51
  -1   0   0  124.95    3.32
  -1   0   0  132.49    3.53
   1   0   1 1239.53   61.40
   1   0   1 1204.28   61.02
   1   0   1 1508.71   75.28
   1   0   1 1186.02   57.92
   1   0   1 1371.41   68.02
  -1   0  -1 1415.19   69.60
  -1   0  -1 1235.38   62.33
  -1   0  -1 1453.40   72.65
  -1   0  -1 1402.81   67.98
  -1   0  -1 1356.13   66.88
   1   0   2 1120.78   55.99
   1   0   2 1196.45   59.12
   1   0   2 1252.76   60.84
   1   0   2 1205.58   58.77
  -1   0  -2 1067.34   49.65
  -1   0  -2 1292.55   59.64
  -1   0  -2 1127.97   56.66
  -1   0  -2 1223.83   60.08
  -1   0  -2 1245.45   60.84
  -1   0  -2 1197.79   57.55
   1   0   3 1806.51  108.55
   1   0   3 2091.73  123.05
   1   0   3 2137.65  126.55
   1   0   3 1985.40  116.94
  -1   0  -3 1766.99  107.47
  -1   0  -3 2137.73  126.19
  -1   0  -3 2147.65  126.36
  -1   0  -3 2084.23  121.48
   1   0   4  198.26    6.65
   1   0   4  208.25    7.61
   1   0   4  190.41    6.74
  -1   0  -4  207.07    7.26
  -1   0  -4  198.20    6.75
  -1   0  -4  201.88    7.32
  -1   0  -4  197.93    6.83
   1   0   5  205.74    7.40
   1   0   5  226.37    8.21
   1   0   5  201.60    7.73
  -1   0  -5  243.48    8.99
  -1   0  -5  210.66    8.21
  -1   0  -5  211.03    7.66
  -1   0  -5  213.88    7.98
   1   0   6    0.11    0.30
   1   0   6    0.58    0.58
  -1   0  -6   -0.01    0.37
  -1   0  -6   -0.20    0.40
  -1   0  -6    0.49    0.49
  -1   0  -6    0.04    0.41
   1   0   7    0.70    0.56
   1   0   7    0.91    1.03
  -1   0  -7    1.30    0.57
  -1   0  -7    1.58    0.48
   1   0   8  516.29   23.89
   1   0   8  480.58   22.88
  -1   0  -8  485.01   23.24
  -1   0  -8  465.47   21.98
   1   0   9   11.43    1.13
   1   0   9   10.98    2.03
  -1   0  -9   10.57    1.01
   1   0  10    0.80    0.95
  -1  -1   9   21.85    1.41
  -1  -1   9   21.61    1.37
   1   1  -8  164.43    8.33
   1   1  -8  175.94    7.46
  -1  -1   8  172.68    7.42
   1   1  -7   16.87    2.04
   1   1  -7   16.07    1.39
  -1  -1   7   15.85    1.38
   1   1  -6  117.42    4.80
   1   1  -6   97.72    5.16
  -1  -1   6  109.07    5.26
   1   1  -5  438.18   19.50
   1   1  -5  406.59   17.58
   1   1  -5  381.95   16.31
   1   1  -5  425.75   18.68
  -1  -1   5  389.95   16.59
  -1  -1   5  413.94   18.04
  -1  -1   5  397.30   17.69
   1   1  -4    3.91    0.56
   1   1  -4    3.69    0.59
   1   1  -4    3.37    0.52
   1   1  -4    3.63    0.48
   1   1  -4    3.39    0.49
  -1  -1   4    3.55    0.41
  -1  -1   4    4.05    0.59
  -1  -1   4    3.45    0.72
  -1  -1   4    3.20    0.50
   1   1  -3   34.57    1.14
   1   1  -3   39.76    1.47
   1   1  -3   34.19    0.96
   1   1  -3   35.85    1.24
   1   1  -3   35.89    1.66
  -1  -1   3   34.33    0.99
  -1  -1   3   39.10    1.55
  -1  -1   3   37.39    1.08
  -1  -1   3   34.97    1.18
  -1  -1   3   36.61    1.30
   1   1  -2   73.97    2.21
   1   1  -2   83.08    2.62
   1   1  -2   77.19    2.08
   1   1  -2   79.17    2.27
   1   1  -2   79.14    2.32
  -1  -1   2   73.45    2.26
  -1  -1   2   86.65    2.77
  -1  -1   2   82.92    2.24
  -1  -1   2   73.38    2.38
  -1  -1   2   85.55    2.81
   1   1  -1  633.65   25.41
   1   1  -1  620.85   26.46
   1   1  -1  686.53   26.39
   1   1  -1  664.94   25.65
   1   1  -1  649.51   26.67
  -1  -1   1  626.80   25.73
  -1  -1   1  595.81   25.42
  -1  -1   1  601.65   23.96
  -1  -1   1  616.42   25.37
   1   1   0 1852.39  100.81
   1   1   0 1386.60   77.06
   1   1   0 1896.96  100.13
   1   1   0 1880.27  101.16
   1   1   0 1731.79   92.97
  -1  -1   0 1795.96   97.52
  -1  -1   0 1404.41   77.57
  -1  -1   0 1974.06  104.19
  -1  -1   0 1851.40   99.73
  -1  -1   0 1832.94   98.08
   1   1   1 1656.40   90.54
   1   1   1 1848.20  101.05
   1   1   1 1715.63   94.00
   1   1   1 1849.80  101.45
  -1  -1  -1 1702.34   93.02
  -1  -1  -1 1820.17   99.52
  -1  -1  -1 1691.54   92.82
  -1  -1  -1 1903.42  104.24
   1   1   2  621.77   23.95
   1   1   2  635.10   25.74
   1   1   2  567.58   22.96
   1   1   2  632.07   25.45
   1   1   2  604.03   23.40
  -1  -1  -2  610.44   23.69
  -1  -1  -2  631.76   25.37
  -1  -1  -2  559.30   23.37
  -1  -1  -2  563.61   23.39
  -1  -1  -2  638.40   24.59
   1   1   3  874.37   36.00
   1   1   3  786.62   34.80
   1   1   3  745.72   33.93
   1   1   3  748.83   33.69
   1   1   3  796.44   34.83
  -1  -1  -3  940.64   38.54
  -1  -1  -3  677.42   30.36
  -1  -1  -3  746.27   34.32
  -1  -1  -3  767.52   34.40
  -1  -1  -3  825.27   35.85
   1   1   4    2.08    0.60
   1   1   4    2.36    0.42
   1   1   4    2.44    0.28
  -1  -1  -4    2.36    0.54
  -1  -1  -4    2.25    0.43
  -1  -1  -4    2.25    0.42
   1   1   5  242.41    9.08
   1   1   5  259.61   10.56
   1   1   5  252.20    9.80
  -1  -1  -5  251.80    9.76
  -1  -1  -5  238.32    9.84
  -1  -1  -5  243.11    9.18
  -1  -1  -5  254.03    9.07
   1   1   6   89.66    3.47
   1   1   6   93.86    4.51
   1   1   6   86.79    3.29
  -1  -1  -6   84.12    3.61
  -1  -1  -6   84.69    3.58
   1   1   7    0.13    0.89
   1   1   7    1.30    0.59
  -1  -1  -7    0.47    0.69
   1   1   8   49.92    3.52
   1   1   8   44.62    3.61
   1   1   9   64.23    4.35
   1   1  10   90.45    4.57
  -1  -1 -10   76.23    3.62
   1   2  -9    0.70    0.49
   1   2  -9    0.71    0.52
  -1  -2   9    0.45    0.87
   1   2  -8   18.81    1.58
   1   2  -8   19.68    1.54
  -1  -2   8   18.39    1.56
   1   2  -7   12.54    2.18
   1   2  -7   11.92    1.95
  -1  -2   7   11.28    1.89
   1   2  -6  130.64    6.76
   1   2  -6  124.31    6.18
  -1  -2   6  115.86    5.75
   1   2  -5    2.71    0.65
   1   2  -5    1.74    0.63
   1   2  -5    1.67    0.54
  -1  -2   5    1.52    0.82
  -1  -2   5    1.49    0.84
  -1  -2   5    1.63    0.87
   1   2  -4 1031.16   51.57
   1   2  -4 1065.10   55.88
   1   2  -4 1111.40   59.27
   1   2  -4  996.12   49.88
   1   2  -4 1165.03   59.00
  -1  -2   4  876.44   44.33
  -1  -2   4 1002.03   49.47
  -1  -2   4 1221.05   62.12
  -1  -2   4 1163.97   60.05
  -1  -2   4 1195.31   60.60
   1   2  -3  611.25   26.91
   1   2  -3  654.09   31.37
   1   2  -3  805.78   33.63
   1   2  -3  702.73   31.23
  -1  -2   3  735.75   32.29
  -1  -2   3  696.19   32.20
  -1  -2   3  656.94   27.79
  -1  -2   3  735.98   32.94
  -1  -2   3  729.84   33.07
  -1  -2   3  751.08   33.29
   1   2  -2  125.27    3.91
   1   2  -2  129.19    4.95
   1   2  -2  128.85    3.22
   1   2  -2  132.12    4.33
  -1  -2   2  122.76    3.93
  -1  -2   2  133.75    4.99
  -1  -2   2  118.41    3.60
  -1  -2   2  124.42    4.25
  -1  -2   2  124.49    3.83
   1   2  -1 2132.59  125.13
   1   2  -1 1715.69  104.07
   1   2  -1 2341.33  137.74
   1   2  -1 2174.96  128.10
  -1  -2   1 2169.14  128.80
  -1  -2   1 1811.71  110.49
  -1  -2   1 2262.79  134.56
  -1  -2   1 2133.62  125.78
   1   2   0  875.34   40.25
   1   2   0  926.84   42.56
   1   2   0  947.06   41.69
   1   2   0  942.58   43.36
   1   2   0  949.16   42.71
  -1  -2   0  928.24   43.48
  -1  -2   0  952.83   43.62
  -1  -2   0 1002.31   43.95
  -1  -2   0  944.69   43.58
  -1  -2   0  960.50   42.86
   1   2   1 1160.35   57.72
   1   2   1 1225.13   58.79
   1   2   1 1234.95   61.19
   1   2   1 1105.47   55.99
   1   2   1 1236.30   59.37
  -1  -2  -1 1137.79   57.20
  -1  -2  -1 1342.54   64.46
  -1  -2  -1 1175.78   58.15
  -1  -2  -1 1162.06   57.96
  -1  -2  -1 1256.59   59.91
   1   2   2  402.90   15.37
   1   2   2  436.06   15.30
   1   2   2  423.47   15.85
   1   2   2  371.80   14.23
   1   2   2  454.27   16.09
   1   2   2  447.35   15.86
  -1  -2  -2  396.84   15.11
  -1  -2  -2  469.68   16.27
  -1  -2  -2  392.07   14.95
  -1  -2  -2  382.34   14.70
   1   2   3    5.05    0.46
   1   2   3    4.52    0.72
   1   2   3    4.43    0.44
   1   2   3    5.28    0.43
  -1  -2  -3    4.81    0.41
  -1  -2  -3    4.22    0.32
  -1  -2  -3    5.50    0.33
  -1  -2  -3    4.64    0.76
  -1  -2  -3    4.20    0.71
   1   2   4   36.76    1.25
   1   2   4   38.47    1.22
   1   2   4   43.61    2.19
   1   2   4   42.73    2.11
   1   2   4   40.35    1.57
  -1  -2  -4   39.48    1.33
  -1  -2  -4   42.26    1.64
  -1  -2  -4   44.05    1.62
  -1  -2  -4   41.52    1.26
   1   2   5  226.88    8.69
   1   2   5  226.08    9.44
   1   2   5  220.98    8.66
  -1  -2  -5  251.87   10.43
  -1  -2  -5  222.27    8.54
  -1  -2  -5  222.18    8.01
   1   2   6    3.52    1.04
   1   2   6    2.43    0.64
   1   2   6    0.89    0.77
   1   2   7   28.54    2.67
   1   2   7   28.64    1.85
   1   2   8    8.49    1.17
   1   2   8    9.45    1.91
   1   2   9   36.00    3.03
  -1  -2  -9   35.67    2.01
   1   2  10    5.72    0.80
  -1  -2 -10    5.04    0.61
   1   3  -9   52.27    2.57
   1   3  -9   49.79    3.27
  -1  -3   9   50.01    3.28
   1   3  -8    0.66    0.65
   1   3  -8    0.56    1.00
  -1  -3   8    0.26    0.99
   1   3  -7   23.33    2.06
   1   3  -7   22.63    2.64
  -1  -3   7   21.34    2.54
   1   3  -6    5.19    1.73
   1   3  -6    4.59    0.90
  -1  -3   6    4.37    1.34
   1   3  -5  144.10    6.18
   1   3  -5  139.06    5.43
  -1  -3   5  140.80    6.28
   1   3  -4  214.79    7.75
   1   3  -4  247.26    9.88
   1   3  -4  234.14   10.28
   1   3  -4  228.22    8.59
  -1  -3   4  232.48    8.73
  -1  -3   4  226.75    9.16
  -1  -3   4  233.13    8.91
  -1  -3   4  224.17    9.16
   1   3  -3   23.38    0.82
   1   3  -3   25.94    1.96
   1   3  -3   24.73    1.24
   1   3  -3   22.61    1.43
  -1  -3   3   23.25    1.19
  -1  -3   3   21.95    1.39
  -1  -3   3   23.26    1.10
  -1  -3   3   22.18    1.39
   1   3  -2   32.52    1.34
   1   3  -2   37.69    1.97
   1   3  -2   34.04    1.51
  -1  -3   2   31.70    1.07
  -1  -3   2   33.50    1.20
  -1  -3   2   33.05    1.24
  -1  -3   2   33.34    1.17
   1   3  -1   15.55    0.67
   1   3  -1   19.44    0.79
   1   3  -1   14.99    0.68
   1   3  -1   15.26    0.60
  -1  -3   1   15.52    0.98
  -1  -3   1   17.44    0.71
  -1  -3   1   15.11    0.34
  -1  -3   1   16.19    0.38
  -1  -3   1   15.84    0.72
  -1  -3   1   15.79    0.60
   1   3   0  443.98   17.59
   1   3   0  494.53   18.62
   1   3   0  408.41   16.76
   1   3   0  484.21   18.54
  -1  -3   0  433.92   17.25
  -1  -3   0  497.26   18.84
  -1  -3   0  477.44   17.53
  -1  -3   0  513.37   18.96
  -1  -3   0  438.73   17.47
  -1  -3   0  451.92   17.13
   1   3   1  336.96   13.42
   1   3   1  414.42   13.31
   1   3   1  366.90   13.55
   1   3   1  299.59   11.85
   1   3   1  361.20   12.98
  -1  -3  -1  341.70   12.81
  -1  -3  -1  443.12   14.35
  -1  -3  -1  329.69   12.96
  -1  -3  -1  336.46   11.84
   1   3   2   12.85    0.69
   1   3   2   14.54    0.68
   1   3   2   12.55    0.71
   1   3   2   12.56    0.63
   1   3   2   12.78    0.62
  -1  -3  -2   13.36    1.02
  -1  -3  -2   12.87    0.65
  -1  -3  -2   12.62    1.06
   1   3   3  125.66    4.17
   1   3   3  122.15    4.25
   1   3   3  121.94    4.81
   1   3   3  121.05    3.99
   1   3   3  124.65    3.81
  -1  -3  -3  126.11    4.48
  -1  -3  -3  130.97    4.57
  -1  -3  -3  123.81    4.31
   1   3   4   48.98    2.11
   1   3   4   53.43    2.11
   1   3   4   48.81    1.99
   1   3   4   48.13    1.58
   1   3   4   48.02    1.96
  -1  -3  -4   48.80    1.62
  -1  -3  -4   51.42    2.79
  -1  -3  -4   49.52    2.63
   1   3   5  131.71    5.12
   1   3   5  131.90    5.07
   1   3   5  114.77    4.06
   1   3   5  118.37    4.26
   1   3   6  188.97    9.03
   1   3   6  196.53    8.17
   1   3   7    6.47    1.07
   1   3   7    6.74    1.09
   1   3   8  107.54    6.14
  -1  -3  -8  104.74    4.78
   1   3   9   22.68    1.61
  -1  -3  -9   22.21    2.18
   1   4  -9    0.43    0.53
   1   4  -9    0.65    0.77
  -1  -4   9    0.59    0.76
   1   4  -8   76.09    3.85
   1   4  -8   75.61    3.62
  -1  -4   8   72.49    4.55
   1   4  -7    7.19    2.20
   1   4  -7    7.36    1.78
  -1  -4   7    6.50    1.71
   1   4  -6    9.35    2.20
   1   4  -6    8.02    1.74
  -1  -4   6    7.43    1.65
   1   4  -5  270.72   13.26
   1   4  -5  255.00   11.66
  -1  -4   5  238.77    9.87
   1   4  -4   24.04    1.37
   1   4  -4   30.47    1.78
   1   4  -4   26.79    2.20
   1   4  -4   26.61    2.03
  -1  -4   4   25.35    1.67
  -1  -4   4   25.93    1.37
  -1  -4   4   23.90    1.93
   1   4  -3  365.04   14.17
   1   4  -3  380.97   15.92
   1   4  -3  355.08   14.60
   1   4  -3  364.50   15.40
  -1  -4   3  375.00   15.76
  -1  -4   3  354.96   14.19
  -1  -4   3  362.37   15.62
  -1  -4   3  353.89   14.25
   1   4  -2  211.36    7.99
   1   4  -2  236.14    8.56
   1   4  -2  206.43    7.99
   1   4  -2  213.53    8.13
  -1  -4   2  207.15    8.07
  -1  -4   2  209.27    7.49
  -1  -4   2  200.84    7.34
  -1  -4   2  200.11    7.84
   1   4  -1   36.42    1.85
   1   4  -1   42.77    1.74
   1   4  -1   36.97    1.52
   1   4  -1   34.13    1.30
   1   4  -1   36.02    1.59
  -1  -4   1   36.95    1.45
  -1  -4   1   32.95    0.92
  -1  -4   1   36.37    1.43
  -1  -4   1   34.76    1.57
   1   4   0  907.13   44.25
   1   4   0  926.02   42.80
   1   4   0  924.13   42.58
   1   4   0  861.67   42.51
   1   4   0  961.13   45.72
  -1  -4   0  876.04   43.71
  -1  -4   0  926.57   42.70
  -1  -4   0  913.68   45.10
  -1  -4   0  876.48   42.40
   1   4   1 1102.91   59.80
   1   4   1 1142.85   60.37
   1   4   1 1270.09   65.20
  -1  -4  -1 1182.86   62.41
  -1  -4  -1 1251.08   64.23
  -1  -4  -1 1204.87   62.75
  -1  -4  -1 1129.02   57.76
   1   4   2  158.99    6.45
   1   4   2  154.13    6.10
   1   4   2  151.94    5.24
   1   4   2  154.45    5.40
  -1  -4  -2  150.04    5.29
  -1  -4  -2  152.79    6.12
   1   4   3  504.39   22.84
   1   4   3  510.00   21.88
   1   4   3  498.53   22.42
   1   4   3  471.91   20.17
   1   4   3  493.92   21.10
  -1  -4  -3  496.03   21.34
  -1  -4  -3  530.48   23.67
  -1  -4  -3  492.74   21.51
   1   4   4   38.88    2.29
   1   4   4   38.81    1.85
   1   4   4   37.63    1.88
  -1  -4  -4   36.34    1.52
  -1  -4  -4   37.34    1.80
   1   4   5  128.12    5.37
   1   4   5  133.84    5.55
   1   4   6   33.06    1.54
  -1  -4  -6    0.21    1.09
   1   4   7   12.55    1.38
  -1  -4  -7   11.99    1.34
   1   4   8    0.49    0.90
  -1  -4  -8    0.39    0.94
   1   4   9   22.09    1.95
  -1  -4  -9   19.86    1.94
   1   5  -9    6.27    0.85
   1   5  -9    6.84    0.77
  -1  -5   9    6.98    1.19
   1   5  -8    3.06    0.86
   1   5  -8    2.94    0.80
  -1  -5   8    2.62    0.79
   1   5  -7   22.96    2.98
   1   5  -7   22.46    1.75
  -1  -5   7   20.24    1.70
   1   5  -6   37.93    2.65
   1   5  -6   35.21    2.28
  -1  -5   6   34.85    2.17
   1   5  -5   17.44    2.49
   1   5  -5   16.57    2.17
  -1  -5   5   15.70    1.32
   1   5  -4   85.28    3.27
   1   5  -4   99.15    5.26
   1   5  -4   91.93    4.71
  -1  -5   4   86.66    3.61
   1   5  -3  168.41    6.98
   1   5  -3  179.16    7.99
   1   5  -3  169.72    6.64
   1   5  -3  168.48    7.31
  -1  -5   3  173.93    6.86
  -1  -5   3  155.54    6.01
  -1  -5   3  153.97    6.91
   1   5  -2    2.28    0.81
   1   5  -2    2.21    0.71
   1   5  -2    2.25    0.44
   1   5  -2    1.94    0.77
  -1  -5   2    2.10    0.54
  -1  -5   2    2.55    0.52
  -1  -5   2    2.24    0.85
  -1  -5   2    1.78    0.47
   1   5  -1   91.47    3.42
   1   5  -1   78.97    2.98
   1   5  -1   88.66    3.22
   1   5  -1   85.30    3.76
   1   5  -1   90.87    3.71
  -1  -5   1   99.56    3.73
  -1  -5   1   91.35    3.38
  -1  -5   1   92.30    3.18
   1   5   0    6.27    0.75
   1   5   0    6.02    0.63
   1   5   0    5.87    0.82
  -1  -5   0    6.32    1.19
  -1  -5   0    5.51    0.39
  -1  -5   0    5.29    1.02
  -1  -5   0    5.87    0.78
   1   5   1  110.88    4.20
   1   5   1  101.39    3.70
   1   5   1   95.85    3.68
   1   5   1   98.00    3.38
  -1  -5  -1  100.16    3.78
  -1  -5  -1  100.16    3.74
  -1  -5  -1   96.17    4.21
   1   5   2   71.65    3.72
   1   5   2   65.51    3.26
   1   5   2   60.61    2.62
   1   5   2   63.08    2.74
  -1  -5  -2   63.12    3.22
  -1  -5  -2   65.56    2.87
  -1  -5  -2   64.97    3.30
   1   5   3   26.94    2.25
   1   5   3   24.73    2.06
  -1  -5  -3   24.50    1.34
   1   5   4  142.83    6.13
   1   5   4  135.00    6.70
  -1  -5  -4  136.03    5.54
   1   5   5  103.46    4.58
  -1  -5  -5   99.74    4.37
   1   5   6   18.85    1.59
  -1  -5  -6   18.58    2.36
   1   5   7   84.73    5.00
  -1  -5  -7   82.32    3.83
   1   5   8   17.70    1.26
  -1  -5  -8   17.45    1.99
   1   6  -8   10.21    1.70
   1   6  -8   10.83    1.05
  -1  -6   8   10.42    1.03
   1   6  -7   28.27    1.98
   1   6  -7   30.92    1.98
  -1  -6   7   28.64    1.85
   1   6  -6  131.49    7.32
   1   6  -6  140.35    6.24
  -1  -6   6  129.09    5.73
   1   6  -5    0.78    1.09
   1   6  -5    0.58    0.66
  -1  -6   5    0.80    0.60
   1   6  -4  310.63   15.53
   1   6  -4  351.06   16.52
  -1  -6   4  327.51   14.20
   1   6  -3  157.53    7.23
   1   6  -3  139.64    6.75
   1   6  -3  157.26    7.38
  -1  -6   3  150.13    6.05
   1   6  -2   27.72    2.26
   1   6  -2   27.61    2.20
  -1  -6   2   26.79    1.55
   1   6  -1   47.74    2.28
   1   6  -1   45.07    2.10
   1   6  -1   45.82    2.02
   1   6   0   29.74    2.40
   1   6   0   27.23    1.46
   1   6   0   26.88    1.36
  -1  -6   0   25.57    1.26
   1   6   1    0.74    0.62
   1   6   1    1.34    0.50
   1   6   1    0.85    0.64
   1   6   1    1.14    0.66
  -1  -6  -1    1.44    0.62
  -1  -6  -1   -0.03    0.69
   1   6   2  257.29   11.01
   1   6   2  240.31   10.04
  -1  -6  -2  241.88    9.78
   1   6   3    7.83    1.68
   1   6   3    8.03    1.61
  -1  -6  -3    8.61    1.42
   1   6   4   31.44    2.76
   1   6   4   35.05    2.88
  -1  -6  -4   33.99    1.94
   1   6   5  301.91   15.03
  -1  -6  -5  313.03   13.85
   1   6   6    8.78    1.72
  -1  -6  -6    8.43    1.71
   1   6   7    5.03    1.25
  -1  -6  -7    4.09    0.80
   1   6   8    1.95    0.44
  -1  -6  -8    1.83    0.79
   1   7  -7   13.14    1.15
   1   7  -7   15.88    1.21
  -1  -7   7   14.35    1.15
   1   7  -6   20.00    2.25
   1   7  -6   24.64    2.47
  -1  -7   6   24.14    1.63
   1   7  -5   10.68    1.86
   1   7  -5   14.65    2.08
  -1  -7   5   13.57    1.30
   1   7  -4   46.73    3.54
  -1  -7   4   44.47    2.42
   1   7  -3   83.31    3.82
   1   7  -3   82.93    3.84
  -1  -7   3   85.34    3.78
   1   7  -2  838.15   43.76
   1   7  -2  815.94   42.61
  -1  -7   2  853.30   43.97
   1   7  -1   43.43    3.28
   1   7  -1   35.56    2.71
   1   7   0  125.17    5.43
   1   7   0  118.15    5.99
   1   7   0  109.98    5.45
   1   7   1   24.18    1.78
   1   7   1   22.80    1.53
   1   7   2    1.80    1.16
   1   7   2    1.42    0.67
   1   7   3   74.07    3.53
   1   7   3   80.21    3.65
  -1  -7  -3   79.69    4.41
   1   7   4    9.83    1.83
   1   7   4   11.66    1.85
  -1  -7  -4   11.24    1.76
   1   7   5   21.94    2.29
  -1  -7  -5   23.19    2.26
   1   7   6    5.05    1.19
  -1  -7  -6    5.19    1.24
   1   7   7   77.63    2.73
  -1  -7  -7   78.01    2.91
   1   8  -6    6.93    0.80
  -1  -8   6    6.85    1.27
   1   8  -5    3.35    0.75
  -1  -8   5    3.18    1.19
   1   8  -4    1.17    0.61
  -1  -8   4    0.69    0.94
   1   8  -3   26.14    2.46
   1   8  -3   25.62    2.47
  -1  -8   3   27.92    2.54
   1   8  -2  228.88   10.92
   1   8  -2  187.46    9.41
  -1  -8   2  213.14    8.86
   1   8  -1   52.57    2.84
  -1  -8   1   50.74    2.65
   1   8   0    1.37    0.82
  -1  -8   0   -0.59    0.47
   1   8   1   11.30    2.16
   1   8   1   10.81    1.81
   1   8   2   59.54    4.11
   1   8   2   59.11    3.68
   1   8   3   79.69    4.62
   1   8   3   77.65    3.37
   1   8   4   14.60    1.20
   1   8   4   18.76    1.21
  -1  -8  -4   15.92    1.15
   1   8   5    6.98    0.69
  -1  -8  -5    6.06    0.67
  -1  -9   5   11.00    1.14
   1   9  -4    9.80    0.78
  -1  -9   4   11.44    1.30
   1   9  -3    3.65    0.64
   1   9  -3    3.46    0.93
  -1  -9   3    3.87    1.03
   1   9  -2    3.24    1.12
  -1  -9   2    3.04    1.04
   1   9  -1   63.26    2.97
  -1  -9   1   60.39    2.61
   1   9   0    0.66    0.84
  -1  -9   0    0.22    0.75
   1   9   1    0.00    0.65
  -1  -9  -1    0.09    0.34
   1   9   2   28.12    2.15
  -1  -9  -2   20.39    1.25
   1   9   3   42.06    2.58
  -2   8   1    1.32    0.45
  -2   8   0    2.05    0.54
  -2   8   0    1.51    0.46
  -2   8  -1  213.16    8.54
  -2   8  -1  203.15    7.86
  -2   8  -2   54.89    3.13
  -2   8  -2   55.77    3.18
  -2   8  -3   11.74    1.22
  -2   8  -3   16.80    1.11
  -2   8  -4    1.68    0.52
  -2   8  -5    0.13    0.51
   2  -7  -3    7.32    1.21
  -2   7   3   11.42    1.21
  -2   7   3    6.08    0.94
   2  -7  -2   13.54    1.67
  -2   7   2   13.18    1.18
  -2   7   2   12.62    0.99
   2  -7  -1    1.17    0.58
  -2   7   1    1.30    0.67
  -2   7   1    0.88    0.89
   2  -7   0   68.57    4.04
  -2   7   0   74.06    3.53
  -2   7   0   70.82    4.27
   2  -7   1   11.49    1.12
  -2   7  -1   13.41    1.29
  -2   7  -1   14.18    1.29
  -2   7  -2   21.42    2.34
  -2   7  -2   22.95    2.48
  -2   7  -3   76.88    3.52
  -2   7  -3   90.98    3.95
  -2   7  -4    4.40    0.89
  -2   7  -5   14.12    1.92
  -2   7  -6    2.55    1.08
  -2   7  -7    0.34    0.61
   2  -6  -5    0.10    0.31
   2  -6  -4    1.21    0.81
  -2   6   4    0.57    0.41
  -2   6   4    0.33    0.42
   2  -6  -3    4.11    1.38
  -2   6   3    3.90    1.33
  -2   6   3    3.97    0.82
   2  -6  -2    2.04    1.30
  -2   6   2    2.64    0.86
  -2   6   2    2.76    0.78
   2  -6  -1   28.81    1.95
  -2   6   1   28.68    1.96
   2  -6   0   18.73    2.28
  -2   6   0   19.71    1.72
  -2   6   0   18.87    2.43
   2  -6   1   10.73    1.18
  -2   6  -1   12.06    1.32
  -2   6  -1   11.70    1.25
   2  -6   2   -0.05    0.35
  -2   6  -2    0.32    0.62
  -2   6  -2   -0.13    0.66
   2  -6   3    0.56    0.47
  -2   6  -3    0.72    0.51
  -2   6  -3    0.11    0.99
  -2   6  -4  102.92    4.66
  -2   6  -5   18.10    1.55
  -2   6  -6  194.95    8.31
  -2   6  -7   13.57    1.79
  -2   6  -7   16.82    1.34
  -2   6  -8    5.64    0.72
  -2   6  -8    6.94    0.77
   2  -5  -6    1.21    0.73
   2  -5  -5    3.29    0.73
  -2   5   5    2.29    0.63
   2  -5  -4    7.60    1.74
  -2   5   4    6.58    0.96
  -2   5   4    7.64    1.50
   2  -5  -3   67.73    4.62
  -2   5   3   63.87    3.19
  -2   5   3   66.21    4.26
   2  -5  -2  137.90    7.29
  -2   5   2  125.33    5.68
  -2   5   2  123.15    6.65
   2  -5  -1   65.40    3.19
  -2   5   1   64.35    4.31
  -2   5   1   63.61    3.07
   2  -5   0    7.86    1.55
  -2   5   0    7.00    1.01
  -2   5   0    6.72    1.62
   2  -5   1   31.04    2.51
  -2   5  -1   29.06    1.80
  -2   5  -1   31.09    1.89
   2  -5   2   10.40    1.01
  -2   5  -2    9.99    1.57
  -2   5  -2    9.21    1.08
   2  -5   3   21.06    2.00
  -2   5  -3   21.88    2.00
  -2   5  -3   20.99    1.56
   2  -5   4    3.19    1.06
  -2   5  -4    4.32    1.35
  -2   5  -5  154.19    8.22
  -2   5  -5  167.64    8.26
  -2   5  -6   24.55    1.81
  -2   5  -6   26.06    2.66
  -2   5  -7  165.05    8.56
  -2   5  -7  172.48    7.32
  -2   5  -8   13.31    1.30
  -2   5  -8   12.82    1.18
  -2   5  -9    3.74    0.70
  -2   5  -9    3.38    0.59
   2  -4  -7   12.05    1.20
   2  -4  -6   79.07    4.40
  -2   4   6   79.79    3.43
   2  -4  -5   33.14    2.13
  -2   4   5   33.90    2.95
   2  -4  -4    1.81    0.82
  -2   4   4    1.43    1.07
  -2   4   4    2.21    1.17
   2  -4  -3    5.33    1.06
  -2   4   3    5.58    0.95
  -2   4   3    5.89    1.52
   2  -4  -2    1.44    0.70
  -2   4   2    1.49    0.68
  -2   4   2    1.56    1.08
   2  -4  -1    6.98    1.51
  -2   4   1    7.13    1.55
  -2   4   1    7.45    0.96
   2  -4   0   50.69    2.33
  -2   4   0   49.72    3.22
  -2   4   0   47.47    3.00
   2  -4   1   12.49    0.99
  -2   4  -1   12.11    1.03
  -2   4  -1   11.44    1.54
   2  -4   2  714.47   33.44
   2  -4   2  665.13   31.44
  -2   4  -2  652.23   31.67
  -2   4  -2  592.47   30.12
  -2   4  -2  692.43   33.76
   2  -4   3    2.80    0.58
  -2   4  -3    4.67    0.85
  -2   4  -3    1.28    0.93
  -2   4  -3    2.94    1.07
  -2   4  -3    2.86    0.51
  -2   4  -3    2.70    1.03
   2  -4   4   71.75    3.58
  -2   4  -4   78.22    3.54
  -2   4  -4   73.03    4.01
   2  -4   5   47.86    2.81
  -2   4  -5   56.28    4.03
  -2   4  -5   49.94    3.25
   2  -4   6    0.70    0.47
  -2   4  -6    0.05    0.62
  -2   4  -6   -0.08    0.83
   2  -4   7    2.10    1.20
  -2   4  -7    3.22    1.47
  -2   4  -7    3.00    1.23
   2  -4   8   14.40    2.04
  -2   4  -8   16.51    2.51
  -2   4  -8   17.39    1.39
   2  -4   9    4.10    1.15
  -2   4  -9    5.54    1.01
  -2   4  -9    5.70    0.79
   2  -3  -7    4.29    1.12
  -2   3   7    4.68    1.13
   2  -3  -6   17.53    2.17
  -2   3   6   18.26    2.13
   2  -3  -5    1.03    1.05
  -2   3   5    0.66    1.03
   2  -3  -4    1.66    0.72
  -2   3   4    1.45    1.01
  -2   3   4    1.40    0.69
   2  -3  -3    1.61    0.70
  -2   3   3    1.49    0.64
  -2   3   3    1.99    1.03
   2  -3  -2   49.99    3.21
  -2   3   2   49.09    3.32
  -2   3   2   47.78    3.05
   2  -3  -1    3.00    0.64
   2  -3  -1    2.83    0.66
  -2   3   1    3.12    1.12
  -2   3   1    2.89    0.67
  -2   3   1    3.04    0.62
  -2   3   1    3.05    0.99
   2  -3   0    2.46    0.55
  -2   3   0    2.46    0.92
  -2   3   0    2.21    0.95
  -2   3   0    2.18    0.53
  -2   3   0    1.73    0.86
   2  -3   1  194.08    6.91
   2  -3   1  201.90    8.14
   2  -3   1  196.80    7.33
   2  -3   1  186.11    6.50
   2  -3   1  195.41    7.27
  -2   3  -1  202.17    7.48
  -2   3  -1  194.90    8.26
  -2   3  -1  196.62    7.20
  -2   3  -1  197.22    7.25
   2  -3   2  197.83    7.30
   2  -3   2  195.36    7.66
   2  -3   2  165.69    5.80
   2  -3   2  174.83    5.88
   2  -3   2  190.75    7.75
  -2   3  -2  191.74    7.44
  -2   3  -2  178.63    7.23
  -2   3  -2  186.96    6.60
  -2   3  -2  185.40    6.70
  -2   3  -2  193.85    7.04
   2  -3   3  220.06    7.97
   2  -3   3  202.11    7.40
   2  -3   3  194.98    7.27
   2  -3   3  212.30    8.72
  -2   3  -3  204.00    7.74
  -2   3  -3  211.63    7.90
  -2   3  -3  199.70    7.35
  -2   3  -3  208.43    7.66
   2  -3   4  103.87    4.31
   2  -3   4  104.01    4.08
   2  -3   4   99.46    3.49
   2  -3   4  104.49    4.72
  -2   3  -4  113.95    4.56
  -2   3  -4  106.10    4.74
  -2   3  -4  105.75    4.37
  -2   3  -4  109.44    4.76
   2  -3   5   74.93    3.47
   2  -3   5   69.70    3.41
   2  -3   5   67.16    3.25
  -2   3  -5   81.51    4.97
  -2   3  -5   73.29    3.62
   2  -3   6   29.35    1.52
   2  -3   6   27.37    1.58
  -2   3  -6   32.75    3.34
  -2   3  -6   27.51    1.60
   2  -3   7   29.28    1.86
  -2   3  -7   34.32    2.40
  -2   3  -7   32.54    1.86
   2  -3   8   43.23    3.47
  -2   3  -8   47.80    2.87
  -2   3  -8   48.82    2.47
   2  -3   9   36.04    2.92
  -2   3  -9   41.33    3.46
  -2   3  -9   37.78    2.72
   2  -3  10   12.33    0.93
  -2   3 -10   16.25    1.24
  -2   3 -10   13.42    0.87
  -2   2   8    0.26    0.33
   2  -2  -7    3.52    0.75
  -2   2   7    4.25    0.79
   2  -2  -6    0.54    0.59
  -2   2   6    1.07    0.97
   2  -2  -5    3.16    0.82
  -2   2   5    3.64    0.83
   2  -2  -4   39.62    2.92
  -2   2   4   37.38    2.72
  -2   2   4   36.15    2.20
  -2   2   4   38.64    2.05
   2  -2  -3   21.94    2.04
   2  -2  -3   19.23    1.50
  -2   2   3   21.84    1.45
  -2   2   3   18.86    1.18
  -2   2   3   19.27    1.29
  -2   2   3   22.71    1.35
   2  -2  -2 3114.41  227.29
   2  -2  -2 3139.37  229.95
   2  -2  -2 2838.86  206.24
  -2   2   2 3420.49  250.35
  -2   2   2 3174.84  231.00
  -2   2   2 3302.67  233.20
  -2   2   2 3164.75  231.40
  -2   2   2 3373.26  243.80
   2  -2  -1   31.03    1.13
   2  -2  -1   36.28    2.14
   2  -2  -1   35.79    2.14
   2  -2  -1   32.69    1.25
  -2   2   1   34.04    2.13
  -2   2   1   34.14    2.18
  -2   2   1   32.17    1.28
  -2   2   1   30.24    1.12
  -2   2   1   33.37    1.43
  -2   2   1   31.86    1.43
   2  -2   0  142.89    4.60
   2  -2   0  136.78    4.79
   2  -2   0  135.23    4.72
   2  -2   0  132.92    4.01
  -2   2   0  131.65    5.19
  -2   2   0  141.38    5.00
  -2   2   0  130.94    4.38
  -2   2   0  121.15    3.59
  -2   2   0  131.15    4.52
  -2   2   0  134.72    5.24
   2  -2   1   23.09    1.08
   2  -2   1   23.34    1.48
   2  -2   1   24.71    0.77
   2  -2   1   22.83    1.05
  -2   2  -1   26.07    1.58
  -2   2  -1   22.35    1.43
  -2   2  -1   22.43    1.10
  -2   2  -1   23.12    1.03
  -2   2  -1   24.60    1.07
   2  -2   2  731.97   33.17
   2  -2   2  669.06   30.93
   2  -2   2  785.23   33.16
   2  -2   2  706.59   30.55
   2  -2   2  671.69   30.51
  -2   2  -2  735.17   33.36
  -2   2  -2  635.37   29.22
  -2   2  -2  659.10   30.36
  -2   2  -2  695.76   31.87
   2  -2   3    7.97    0.97
   2  -2   3    8.01    0.59
   2  -2   3    7.92    0.41
   2  -2   3    7.14    0.55
   2  -2   3    7.98    0.93
  -2   2  -3    7.84    0.65
  -2   2  -3    7.73    0.96
  -2   2  -3    7.54    0.86
  -2   2  -3    7.63    0.55
   2  -2   4  218.37    8.26
   2  -2   4  215.29    8.29
   2  -2   4  215.48    7.49
   2  -2   4  204.60    7.61
   2  -2   4  211.41    7.72
  -2   2  -4  214.02    8.16
  -2   2  -4  210.11    7.60
  -2   2  -4  204.11    7.97
   2  -2   5    7.37    0.64
   2  -2   5    8.02    0.98
   2  -2   5    7.40    0.95
   2  -2   5    7.63    1.13
  -2   2  -5    8.23    1.05
  -2   2  -5    8.01    0.91
  -2   2  -5    7.66    1.01
  -2   2  -5    7.11    0.65
   2  -2   6   71.50    3.55
   2  -2   6   68.74    3.58
  -2   2  -6   74.35    3.72
  -2   2  -6   66.02    3.43
   2  -2   7  288.43   13.11
   2  -2   7  270.52   11.69
  -2   2  -7  292.43   14.98
  -2   2  -7  287.80   13.06
   2  -2   8    7.80    0.97
   2  -2   8    7.43    1.10
  -2   2  -8    7.87    2.01
  -2   2  -8    7.45    1.52
   2  -2   9    0.70    0.53
  -2   2  -9    0.52    0.92
  -2   2  -9   -0.05    0.45
   2  -2  10    9.36    0.95
  -2   2 -10   11.25    1.72
  -2   1   8    2.06    0.51
  -2   1   8    3.76    1.04
  -2   1   7    2.35    0.65
  -2   1   7    3.10    0.76
   2  -1  -6   38.29    2.25
  -2   1   6   49.40    3.36
   2  -1  -5   15.57    1.89
  -2   1   5   14.44    1.04
  -2   1   5   15.37    1.27
   2  -1  -4    0.78    0.45
   2  -1  -4    0.16    0.60
  -2   1   4    0.19    0.66
  -2   1   4    0.11    0.59
  -2   1   4    0.68    0.53
  -2   1   4    0.66    0.45
   2  -1  -3    6.28    0.68
   2  -1  -3    6.60    0.71
   2  -1  -3    6.35    0.63
   2  -1  -3    6.21    0.54
  -2   1   3    6.46    1.06
  -2   1   3    5.94    0.95
  -2   1   3    6.29    0.90
  -2   1   3    5.74    0.68
  -2   1   3    7.34    0.71
  -2   1   3    8.15    1.34
   2  -1  -2  464.66   18.71
   2  -1  -2  516.07   22.49
   2  -1  -2  462.92   20.21
   2  -1  -2  476.56   19.65
  -2   1   2  493.64   20.52
  -2   1   2  467.41   19.65
  -2   1   2  513.21   21.62
  -2   1   2  464.23   18.38
  -2   1   2  488.11   20.33
  -2   1   2  480.18   21.03
   2  -1  -1  272.29    9.36
   2  -1  -1  281.82   10.37
   2  -1  -1  277.62   10.19
   2  -1  -1  266.02    9.05
  -2   1   1  275.33   10.01
  -2   1   1  280.31   10.32
  -2   1   1  277.07   10.15
  -2   1   1  258.00    8.64
  -2   1   1  271.73   10.54
  -2   1   1  273.76   10.73
   2  -1   0    6.60    0.57
   2  -1   0    5.67    0.50
   2  -1   0    5.80    0.25
  -2   1   0    5.72    0.75
  -2   1   0    5.44    0.82
  -2   1   0    8.06    0.60
  -2   1   0    5.38    0.48
  -2   1   0    5.59    0.47
  -2   1   0    5.18    0.45
   2  -1   1    0.45    0.37
   2  -1   1    0.89    0.43
  -2   1  -1    0.66    0.23
  -2   1  -1   -0.02    0.26
  -2   1  -1    0.58    0.22
  -2   1  -1    0.78    0.40
  -2   1  -1    0.81    0.38
   2  -1   2  175.70    5.70
   2  -1   2  167.24    5.99
   2  -1   2  169.95    4.88
   2  -1   2  170.92    4.95
   2  -1   2  173.07    6.05
  -2   1  -2  179.26    5.82
  -2   1  -2  174.27    6.34
  -2   1  -2  171.80    5.61
  -2   1  -2  170.87    5.82
   2  -1   3   58.40    2.50
   2  -1   3   52.82    1.73
   2  -1   3   54.55    1.68
   2  -1   3   48.85    1.52
   2  -1   3   53.41    1.69
  -2   1  -3   56.13    1.67
  -2   1  -3   56.67    2.58
  -2   1  -3   53.69    1.76
  -2   1  -3   53.60    1.92
   2  -1   4   76.35    3.53
   2  -1   4   79.69    3.05
   2  -1   4   77.94    2.37
   2  -1   4   71.70    2.24
   2  -1   4   74.24    2.45
  -2   1  -4   76.16    2.89
  -2   1  -4   72.67    2.91
  -2   1  -4   73.15    2.65
   2  -1   5   32.81    1.83
   2  -1   5   35.23    1.86
   2  -1   5   31.36    1.28
   2  -1   5   33.88    1.94
  -2   1  -5   38.39    1.86
  -2   1  -5   33.26    1.73
  -2   1  -5   30.87    1.33
  -2   1  -5   32.29    1.59
   2  -1   6   86.20    3.25
   2  -1   6   93.71    3.59
   2  -1   6   86.76    3.33
  -2   1  -6   98.86    5.33
  -2   1  -6   76.89    3.05
  -2   1  -6   89.86    3.23
   2  -1   7  475.10   21.44
   2  -1   7  476.87   23.11
  -2   1  -7  474.73   23.99
  -2   1  -7  475.05   22.23
   2  -1   8  148.69    6.23
   2  -1   8  140.35    7.38
  -2   1  -8  159.92    8.61
  -2   1  -8  137.65    6.74
   2  -1   9   42.15    3.16
   2  -1   9   41.07    2.39
  -2   1  -9   47.81    3.77
   2  -1  10    4.07    0.79
  -2   1 -10    5.19    1.30
  -2   0   9   69.50    2.56
  -2   0   8   52.93    2.43
  -2   0   8   54.09    3.47
  -2   0   7    0.45    0.54
  -2   0   7    1.76    0.67
  -2   0   6  180.51    8.46
   2   0  -5    2.52    0.92
   2   0  -5    2.34    0.61
   2   0  -5    3.22    0.69
  -2   0   5    2.71    0.92
   2   0  -4    0.62    0.31
   2   0  -4    0.38    0.32
   2   0  -4    0.12    0.49
   2   0  -4    0.62    0.60
  -2   0   4    0.44    0.51
  -2   0   4    0.19    0.46
  -2   0   4   -0.12    0.42
  -2   0   4    0.05    0.28
  -2   0   4    0.45    0.62
   2   0  -3  230.60    8.40
   2   0  -3  226.32    8.35
   2   0  -3  226.33    8.79
   2   0  -3  236.73    8.55
   2   0  -3  230.15    9.28
  -2   0   3  224.77    8.67
  -2   0   3  213.33    8.31
  -2   0   3  257.87    9.64
  -2   0   3  228.16    8.50
  -2   0   3  223.70    9.20
   2   0  -2    1.58    0.49
   2   0  -2    1.19    0.51
   2   0  -2    1.11    0.43
   2   0  -2    0.88    0.36
   2   0  -2    2.40    0.56
  -2   0   2    1.52    0.31
  -2   0   2    1.05    0.32
  -2   0   2    1.12    0.33
  -2   0   2    1.43    0.57
   2   0  -1   65.23    2.06
   2   0  -1   72.76    2.19
   2   0  -1   75.18    2.25
   2   0  -1   70.60    2.11
   2   0  -1   66.44    1.69
  -2   0   1   66.51    2.56
  -2   0   1   67.54    2.49
  -2   0   1   66.40    1.80
  -2   0   1   65.62    2.41
   2   0   0 8027.95  755.98
   2   0   0 7134.85  673.74
  -2   0   0 7754.03  731.16
  -2   0   0 7836.97  739.83
  -2   0   0 7386.31  697.42
  -2   0   0 7734.60  727.22
   2   0   1 1127.76   54.13
   2   0   1 1039.39   50.64
   2   0   1 1066.72   51.80
  -2   0  -1 1024.70   48.97
  -2   0  -1 1002.57   49.29
  -2   0  -1 1014.82   49.42
  -2   0  -1 1053.17   50.21
   2   0   2    3.69    0.39
   2   0   2    3.55    0.40
  -2   0  -2    4.02    0.65
  -2   0  -2    3.88    0.55
  -2   0  -2    3.31    0.19
  -2   0  -2    3.38    0.23
   2   0   3   40.94    1.44
   2   0   3   36.93    1.22
   2   0   3   40.48    1.34
   2   0   3   40.20    1.37
  -2   0  -3   37.07    0.91
  -2   0  -3   35.14    0.97
  -2   0  -3   41.34    1.98
  -2   0  -3   39.05    1.70
  -2   0  -3   36.47    1.16
  -2   0  -3   37.49    1.18
   2   0   4   36.67    1.48
   2   0   4   34.19    1.64
   2   0   4   35.11    1.51
   2   0   4   38.00    1.44
  -2   0  -4   38.06    1.57
  -2   0  -4   34.97    1.35
  -2   0  -4   33.77    1.08
  -2   0  -4   33.72    1.23
   2   0   5  545.38   24.15
   2   0   5  567.42   25.10
   2   0   5  563.21   24.68
  -2   0  -5  535.91   24.27
  -2   0  -5  535.31   23.51
  -2   0  -5  546.57   22.85
   2   0   6  155.12    6.49
   2   0   6  156.37    5.89
   2   0   6  144.94    6.10
  -2   0  -6  165.05    7.47
  -2   0  -6  145.82    5.59
  -2   0  -6  147.40    6.17
  -2   0  -6  145.49    5.59
   2   0   7    5.41    1.21
   2   0   7    2.72    1.25
  -2   0  -7    6.23    1.34
  -2   0  -7    2.73    0.87
   2   0   8  192.07    9.37
   2   0   8  169.85    7.49
  -2   0  -8  179.89    9.08
   2   0   9  582.51   28.97
   2   0   9  496.39   25.68
  -2   0  -9  532.92   26.60
   2   0  10    5.31    0.77
   2   0  10    5.51    1.46
  -2  -1   9    1.33    0.41
  -2  -1   9    1.87    0.50
  -2  -1   8    0.29    0.46
  -2  -1   8    0.87    0.54
   2   1  -7    0.19    0.87
   2   1  -7    0.18    0.62
  -2  -1   7    1.26    0.54
   2   1  -6   12.89    1.18
   2   1  -6   11.12    1.86
  -2  -1   6   12.00    1.11
   2   1  -5  575.66   28.19
   2   1  -5  563.06   26.32
  -2  -1   5  571.70   27.21
   2   1  -4    2.04    0.50
   2   1  -4    1.35    0.35
   2   1  -4    1.25    0.49
   2   1  -4    1.64    0.84
  -2  -1   4    2.00    0.35
  -2  -1   4    2.10    0.36
  -2  -1   4    1.63    0.61
  -2  -1   4    1.68    0.63
  -2  -1   4    1.84    0.45
  -2  -1   4    1.67    0.50
   2   1  -3  164.33    5.79
   2   1  -3  169.86    6.02
   2   1  -3  160.58    5.29
   2   1  -3  153.42    5.35
   2   1  -3  158.97    6.31
  -2  -1   3  160.88    5.49
  -2  -1   3  174.36    6.36
  -2  -1   3  157.26    5.21
  -2  -1   3  161.86    6.35
   2   1  -2  306.98   11.63
   2   1  -2  329.60   13.02
   2   1  -2  359.08   12.99
   2   1  -2  304.60   10.98
   2   1  -2  324.17   12.58
  -2  -1   2  302.94   11.64
  -2  -1   2  338.98   12.87
  -2  -1   2  316.45   11.16
  -2  -1   2  316.97   11.75
   2   1  -1 1363.70   71.99
   2   1  -1 1390.10   74.34
   2   1  -1 1525.98   78.90
   2   1  -1 1356.04   70.81
   2   1  -1 1354.30   72.21
  -2  -1   1 1335.45   71.78
  -2  -1   1 1373.13   74.62
  -2  -1   1 1405.09   72.45
  -2  -1   1 1419.98   74.83
   2   1   0  246.74    8.70
   2   1   0  244.71    8.88
   2   1   0  250.85    8.12
   2   1   0  254.38    8.42
  -2  -1   0  243.95    8.71
  -2  -1   0  245.36    8.94
  -2  -1   0  243.56    7.93
  -2  -1   0  277.18    8.33
  -2  -1   0  275.16    8.47
  -2  -1   0  250.54    8.01
   2   1   1   16.41    0.58
   2   1   1   16.39    0.66
   2   1   1   15.64    0.70
   2   1   1   15.06    0.46
  -2  -1  -1   16.02    0.54
  -2  -1  -1   17.15    1.00
  -2  -1  -1   16.56    0.59
  -2  -1  -1   15.94    0.56
  -2  -1  -1   16.87    0.48
   2   1   2  379.34   13.14
   2   1   2  348.07   13.39
   2   1   2  361.99   13.54
   2   1   2  388.39   13.84
   2   1   2  434.64   14.18
  -2  -1  -2  365.90   12.94
  -2  -1  -2  343.93   13.31
  -2  -1  -2  332.62   12.67
  -2  -1  -2  380.09   13.36
  -2  -1  -2  401.60   12.96
   2   1   3   94.98    2.46
   2   1   3   97.94    3.42
   2   1   3   94.77    3.32
   2   1   3  102.75    2.99
   2   1   3  105.18    2.85
  -2  -1  -3   97.65    2.56
  -2  -1  -3  107.98    3.67
  -2  -1  -3   97.02    3.03
  -2  -1  -3  100.43    2.88
  -2  -1  -3   89.68    2.35
   2   1   4   39.70    1.44
   2   1   4   36.45    1.75
   2   1   4   40.86    1.77
   2   1   4   38.57    1.29
  -2  -1  -4   41.01    1.98
  -2  -1  -4   38.75    1.29
  -2  -1  -4   37.25    1.14
   2   1   5    9.79    1.12
   2   1   5   10.26    1.12
   2   1   5    9.57    0.54
  -2  -1  -5   11.06    0.77
  -2  -1  -5   10.39    1.23
  -2  -1  -5    9.79    0.68
  -2  -1  -5    9.76    0.66
   2   1   6   23.53    1.88
   2   1   6   26.28    1.38
   2   1   6   23.28    1.16
  -2  -1  -6   26.56    1.92
  -2  -1  -6   22.82    1.73
   2   1   7   38.08    2.85
   2   1   7   38.16    2.93
  -2  -1  -7   40.64    2.01
   2   1   8    1.56    0.71
   2   1   8    1.17    0.69
   2   1   9    0.78    0.70
   2   1   9    1.75    1.17
   2   1  10    6.00    0.77
  -2  -1 -10    0.24    0.62
  -2  -2   9    2.47    0.83
  -2  -2   9    2.58    0.94
   2   2  -8   11.66    1.72
  -2  -2   8   12.62    1.14
   2   2  -7   36.54    2.27
   2   2  -7   37.50    3.25
  -2  -2   7   35.78    2.11
   2   2  -6    5.45    1.11
   2   2  -6    0.34    1.00
  -2  -2   6    0.23    0.56
   2   2  -5   40.73    2.16
   2   2  -5   40.62    2.05
  -2  -2   5   39.62    2.49
   2   2  -4  169.52    6.36
   2   2  -4  189.86    8.31
   2   2  -4  193.72    7.98
  -2  -2   4  179.12    6.90
  -2  -2   4  179.44    7.41
  -2  -2   4  180.83    7.12
  -2  -2   4  178.28    6.61
  -2  -2   4  183.30    7.64
   2   2  -3   36.93    1.23
   2   2  -3   40.38    2.43
   2   2  -3   37.77    1.48
  -2  -2   3   37.03    1.31
  -2  -2   3   41.79    2.56
  -2  -2   3   36.11    1.64
  -2  -2   3   35.47    1.43
   2   2  -2   95.70    2.93
   2   2  -2  101.56    4.16
   2   2  -2   89.24    2.14
   2   2  -2  100.96    3.15
  -2  -2   2   92.80    3.28
  -2  -2   2  106.64    4.27
  -2  -2   2   94.97    2.84
  -2  -2   2   97.86    3.47
   2   2  -1    0.56    0.24
   2   2  -1    1.03    0.50
   2   2  -1    0.39    0.33
  -2  -2   1    1.46    0.39
  -2  -2   1    0.51    0.29
  -2  -2   1    0.43    0.29
  -2  -2   1    0.96    0.30
   2   2   0   28.09    0.94
   2   2   0   30.08    1.40
   2   2   0   26.42    0.60
   2   2   0   27.38    0.77
   2   2   0   29.44    0.73
  -2  -2   0   27.25    0.93
  -2  -2   0   32.55    1.43
  -2  -2   0   27.99    0.62
  -2  -2   0   29.37    1.00
  -2  -2   0   26.49    0.65
   2   2   1  332.85   12.24
   2   2   1  327.39   12.05
   2   2   1  373.80   12.44
   2   2   1  334.03   11.62
  -2  -2  -1  323.50   11.83
  -2  -2  -1  325.94   11.88
  -2  -2  -1  358.40   12.19
  -2  -2  -1  316.33   11.37
   2   2   2    2.07    0.24
   2   2   2    2.30    0.26
   2   2   2    2.16    0.40
   2   2   2    2.34    0.29
  -2  -2  -2    2.24    0.21
  -2  -2  -2    2.13    0.23
  -2  -2  -2    2.00    0.24
  -2  -2  -2    2.35    0.40
   2   2   3  271.93    9.17
   2   2   3  277.19    9.76
   2   2   3  263.53    9.75
   2   2   3  271.04   10.12
  -2  -2  -3  271.78    9.25
  -2  -2  -3  284.32   10.06
  -2  -2  -3  263.10    9.97
  -2  -2  -3  282.15   10.39
   2   2   4  177.49    5.48
   2   2   4  204.52    7.19
   2   2   4  201.34    6.97
   2   2   4  202.37    6.99
   2   2   4  167.45    5.50
  -2  -2  -4  195.37    5.91
  -2  -2  -4  209.12    7.25
  -2  -2  -4  194.36    7.60
  -2  -2  -4  205.46    7.60
  -2  -2  -4  187.93    5.81
   2   2   5 1739.01  100.25
   2   2   5 1651.49   94.42
  -2  -2  -5 1323.04   76.29
  -2  -2  -5 1587.46   93.31
  -2  -2  -5 1577.26   90.70
   2   2   6   20.96    1.88
   2   2   6   20.59    1.32
   2   2   7    1.53    0.69
   2   2   7    1.67    0.67
   2   2   8    1.04    0.72
   2   2   8    1.47    1.20
   2   2   9    2.51    1.22
   2   2   9    1.84    0.82
   2   2  10   15.11    1.27
  -2  -2 -10   13.67    1.09
   2   3  -9    0.52    0.70
  -2  -3   9    0.59    0.68
  -2  -3   9    1.94    0.51
   2   3  -8   36.69    3.09
   2   3  -8   36.89    3.05
  -2  -3   8   35.50    2.80
   2   3  -7   27.16    3.03
   2   3  -7   25.76    1.88
  -2  -3   7   25.19    2.51
   2   3  -6  115.61    5.32
   2   3  -6  113.54    4.98
  -2  -3   6  110.45    5.70
   2   3  -5    7.75    1.76
   2   3  -5    8.08    1.45
  -2  -3   5    7.74    1.34
   2   3  -4    3.60    0.42
   2   3  -4    5.57    1.34
   2   3  -4    3.76    0.63
  -2  -3   4    4.34    0.52
  -2  -3   4    4.32    0.88
  -2  -3   4    3.50    0.63
  -2  -3   4    3.41    0.96
   2   3  -3  137.26    5.05
   2   3  -3  147.25    6.71
   2   3  -3  140.48    4.97
  -2  -3   3  149.67    5.65
  -2  -3   3  146.57    5.68
  -2  -3   3  140.40    4.83
  -2  -3   3  143.13    5.63
   2   3  -2    4.11    0.68
   2   3  -2    4.81    1.03
   2   3  -2    3.47    0.66
  -2  -3   2    4.06    0.66
  -2  -3   2    4.39    0.64
  -2  -3   2    4.16    0.40
  -2  -3   2    4.28    0.64
   2   3  -1   47.94    1.98
   2   3  -1   52.87    1.86
   2   3  -1   48.01    1.55
   2   3  -1   50.83    1.48
  -2  -3   1   50.36    2.11
  -2  -3   1   55.89    1.90
  -2  -3   1   47.14    1.38
   2   3   0 1618.78   92.80
   2   3   0 1642.83   93.31
   2   3   0 1683.06   95.90
   2   3   0 1708.23   94.67
  -2  -3   0 1728.45   98.29
  -2  -3   0 1689.45   95.82
  -2  -3   0 1766.69  100.97
  -2  -3   0 1700.43   93.95
   2   3   1  182.70    5.97
   2   3   1  186.92    6.08
   2   3   1  193.03    5.95
   2   3   1  172.70    6.12
   2   3   1  175.76    4.91
  -2  -3  -1  178.07    6.35
  -2  -3  -1  193.83    6.27
  -2  -3  -1  174.95    5.43
  -2  -3  -1  184.53    6.53
  -2  -3  -1  180.26    5.05
   2   3   2 1714.18  101.37
   2   3   2 1922.04  110.19
   2   3   2 1962.77  113.41
   2   3   2 1842.86  108.31
  -2  -3  -2 1833.44  108.26
  -2  -3  -2 1940.11  111.64
  -2  -3  -2 1759.37  103.69
  -2  -3  -2 1878.21  110.50
   2   3   3  108.17    3.73
   2   3   3  110.57    3.37
   2   3   3  106.20    3.47
   2   3   3  110.22    3.74
  -2  -3  -3  106.69    3.65
  -2  -3  -3  106.92    3.27
  -2  -3  -3  114.55    4.30
  -2  -3  -3  110.49    4.27
   2   3   4   30.69    1.02
   2   3   4   35.35    1.90
   2   3   4   34.66    1.48
  -2  -3  -4   32.77    1.30
  -2  -3  -4   31.91    0.95
  -2  -3  -4   31.21    0.96
  -2  -3  -4   36.66    1.56
  -2  -3  -4   34.69    1.45
   2   3   5    2.99    0.66
   2   3   5    4.10    0.65
  -2  -3  -5    3.36    0.69
  -2  -3  -5    3.33    0.63
   2   3   6   31.16    2.61
   2   3   6   31.50    1.83
   2   3   7    6.18    1.05
   2   3   7    6.96    1.07
   2   3   8    1.40    1.13
   2   3   8    0.57    1.15
   2   3   9   16.39    1.17
  -2  -3  -9    0.13    0.97
   2   3  10   10.56    1.54
  -2  -3 -10   10.50    1.39
   2   4  -8   22.42    1.73
   2   4  -8   21.18    2.35
  -2  -4   8   21.73    1.49
   2   4  -7   94.33    6.06
   2   4  -7   97.18    5.65
  -2  -4   7   87.40    4.04
   2   4  -6  147.06    6.96
   2   4  -6  152.26    7.88
  -2  -4   6  142.77    6.15
   2   4  -5   40.82    3.63
   2   4  -5   38.71    2.12
  -2  -4   5   38.05    2.00
   2   4  -4   24.38    1.14
   2   4  -4   28.03    2.75
   2   4  -4   24.35    1.41
  -2  -4   4   24.13    1.83
  -2  -4   4   24.94    1.96
   2   4  -3  146.10    5.78
   2   4  -3  152.86    7.17
   2   4  -3  140.03    5.83
  -2  -4   3  147.79    5.34
  -2  -4   3  145.91    5.97
  -2  -4   3  141.77    5.24
   2   4  -2  187.97    7.22
   2   4  -2  201.66    8.43
   2   4  -2  183.14    6.48
  -2  -4   2  182.06    6.55
  -2  -4   2  191.38    7.19
  -2  -4   2  193.56    7.42
  -2  -4   2  185.72    7.04
   2   4  -1    3.81    0.63
   2   4  -1    1.52    0.40
   2   4  -1    1.34    0.38
   2   4  -1    1.43    0.28
  -2  -4   1    1.24    0.37
  -2  -4   1    2.43    0.64
  -2  -4   1    2.25    0.41
  -2  -4   1    1.25    0.27
   2   4   0 1209.25   63.76
   2   4   0 1226.59   64.35
   2   4   0 1228.74   65.46
   2   4   0 1207.47   62.05
  -2  -4   0 1199.43   64.20
  -2  -4   0 1287.14   67.99
  -2  -4   0 1271.44   67.29
  -2  -4   0 1213.17   62.34
   2   4   1 1249.10   67.70
   2   4   1 1300.45   66.89
   2   4   1 1221.65   64.99
   2   4   1 1192.93   60.66
  -2  -4  -1 1304.49   69.37
  -2  -4  -1 1326.35   68.51
  -2  -4  -1 1198.93   62.26
  -2  -4  -1 1286.80   69.52
  -2  -4  -1 1322.29   67.01
   2   4   2   24.81    1.10
   2   4   2   22.28    0.70
   2   4   2   26.84    0.96
   2   4   2   24.65    1.57
   2   4   2   20.88    0.75
   2   4   2   23.04    0.69
  -2  -4  -2   25.71    1.09
  -2  -4  -2   24.62    0.76
  -2  -4  -2   24.71    0.94
  -2  -4  -2   26.28    1.15
   2   4   3   32.97    1.39
   2   4   3   39.00    1.47
   2   4   3   34.90    1.55
  -2  -4  -3   37.02    1.49
  -2  -4  -3   33.96    1.39
  -2  -4  -3   34.67    2.12
   2   4   4   61.92    2.83
   2   4   4   69.99    2.69
   2   4   4   71.16    3.61
  -2  -4  -4   65.75    2.80
  -2  -4  -4   69.30    3.42
   2   4   5    8.43    0.96
   2   4   5    8.29    1.00
   2   4   6   52.14    3.64
   2   4   6   52.85    2.80
   2   4   7   13.29    1.41
   2   4   7   15.26    1.55
   2   4   8  245.12   12.45
   2   4   9   26.18    1.72
  -2  -4  -9   26.27    1.65
   2   5  -8   -0.14    0.75
   2   5  -8    0.09    0.42
  -2  -5   8    0.34    0.65
   2   5  -7   91.37    6.02
   2   5  -7   90.34    4.19
  -2  -5   7   80.14    4.90
   2   5  -6   24.77    2.12
   2   5  -6   23.47    2.72
  -2  -5   6   21.53    2.54
   2   5  -5   39.18    2.58
   2   5  -5   37.54    3.11
  -2  -5   5   34.61    2.82
   2   5  -4   96.26    4.53
   2   5  -4   98.76    5.76
   2   5  -4   98.74    4.14
  -2  -5   4   91.99    4.81
   2   5  -3    6.31    1.09
   2   5  -3    6.16    1.45
   2   5  -3    6.11    0.77
  -2  -5   3    5.51    0.73
   2   5  -2    1.83    0.47
   2   5  -2    1.53    0.54
   2   5  -2    1.26    0.51
  -2  -5   2    1.44    0.77
  -2  -5   2    0.83    0.48
  -2  -5   2    1.78    0.52
   2   5  -1   67.72    3.34
   2   5  -1   67.48    2.89
   2   5  -1   69.69    2.54
   2   5  -1   71.03    2.69
   2   5  -1   66.73    2.80
  -2  -5   1   68.43    3.36
  -2  -5   1   72.94    2.83
  -2  -5   1   65.36    2.67
   2   5   0  276.48   11.68
   2   5   0  258.58    9.40
   2   5   0  266.37   11.02
   2   5   0  260.88    9.91
  -2  -5   0  281.79   11.76
  -2  -5   0  279.87   10.93
  -2  -5   0  274.70   10.31
   2   5   1  493.26   22.76
   2   5   1  493.67   22.36
  -2  -5  -1  504.31   22.97
  -2  -5  -1  508.05   22.07
   2   5   2  112.04    4.42
   2   5   2  144.73    5.91
  -2  -5  -2  126.02    4.79
  -2  -5  -2  115.64    3.93
  -2  -5  -2  124.59    4.71
   2   5   3   14.19    1.08
   2   5   3   15.34    1.10
  -2  -5  -3   15.19    0.99
   2   5   4   34.68    2.49
   2   5   4   36.90    1.79
   2   5   4   38.64    2.86
  -2  -5  -4   32.97    2.16
   2   5   5    9.73    1.04
   2   5   5    8.37    1.14
   2   5   6    4.79    0.86
  -2  -5  -6    0.47    0.75
   2   5   7   68.74    3.52
  -2  -5  -7   66.94    3.28
   2   5   8   39.46    3.18
  -2  -5  -8   38.53    3.01
   2   5   9   36.33    1.75
  -2  -5  -9   36.23    1.73
   2   6  -8    0.32    0.71
   2   6  -8    0.30    0.40
  -2  -6   8    0.41    0.64
   2   6  -7   21.09    1.73
   2   6  -7   20.96    1.59
  -2  -6   7   20.74    2.24
   2   6  -6   28.31    3.23
   2   6  -6   35.72    2.14
  -2  -6   6   26.52    2.78
   2   6  -5   22.30    2.55
   2   6  -5   12.53    2.18
  -2  -6   5   13.74    1.37
   2   6  -4    1.79    0.64
   2   6  -4    2.19    0.81
   2   6  -4    4.08    1.27
  -2  -6   4    2.01    0.76
   2   6  -3 1688.06  101.50
   2   6  -3 1358.66   86.25
   2   6  -3 1595.10   96.57
  -2  -6   3 1633.23   96.84
   2   6  -2    1.09    0.61
   2   6  -2    1.24    0.85
   2   6  -2    3.33    0.87
  -2  -6   2    1.19    0.58
   2   6  -1  133.89    6.28
   2   6  -1  129.79    5.09
   2   6  -1  121.74    5.33
  -2  -6   1  119.02    5.02
   2   6   0   15.64    1.27
   2   6   0   16.94    1.17
   2   6   1  102.59    5.28
   2   6   1   95.90    3.90
   2   6   2   15.78    2.02
   2   6   2   14.98    1.87
   2   6   3    8.17    1.62
   2   6   3    8.18    1.60
  -2  -6  -3    7.41    1.20
   2   6   4  294.26   14.76
   2   6   4  298.82   14.34
  -2  -6  -4  310.31   14.35
   2   6   5   66.90    3.37
  -2  -6  -5   67.22    4.17
   2   6   6  143.07    6.41
  -2  -6  -6  146.77    7.54
   2   6   7   34.83    2.08
  -2  -6  -7   33.13    1.92
   2   6   8    0.50    0.68
  -2  -6  -8    0.01    0.64
   2   7  -7    0.88    0.78
   2   7  -7    0.61    0.78
  -2  -7   7    1.20    0.81
   2   7  -6    2.11    1.20
   2   7  -6    2.55    1.16
  -2  -7   6    2.49    1.19
   2   7  -5   47.06    2.66
   2   7  -5   56.31    3.87
  -2  -7   5   49.69    3.55
   2   7  -4    7.21    1.04
   2   7  -4    7.70    1.10
  -2  -7   4    8.11    1.75
   2   7  -3  568.83   26.90
   2   7  -3  471.64   23.16
  -2  -7   3  535.47   26.53
   2   7  -2   24.00    1.72
   2   7  -2   20.26    2.20
  -2  -7   2   22.07    2.50
   2   7  -1    6.94    1.22
  -2  -7   1   -0.10    0.67
   2   7   0    0.72    0.61
   2   7   0    0.10    0.88
   2   7   1    9.80    2.04
   2   7   1    9.10    1.06
   2   7   2   12.03    2.10
   2   7   2   10.95    1.22
   2   7   3  107.38    6.24
   2   7   3   98.67    5.61
   2   7   4   11.36    1.38
   2   7   4   10.83    2.02
  -2  -7  -4    9.83    1.60
   2   7   5  183.87    8.03
  -2  -7  -5  180.28    8.74
   2   7   6  168.68    7.23
  -2  -7  -6  165.17    7.85
   2   7   7   82.34    4.27
  -2  -7  -7   80.70    3.26
   2   8  -6    1.23    0.47
  -2  -8   6    2.02    0.87
   2   8  -5   27.42    1.63
  -2  -8   5   29.31    2.50
   2   8  -4   17.42    2.09
  -2  -8   4   20.37    2.24
   2   8  -3   33.22    2.83
  -2  -8   3   33.48    2.91
   2   8  -2   48.71    3.66
  -2  -8   2   45.53    2.47
   2   8  -1  102.31    4.86
  -2  -8   1  104.43    4.66
   2   8   0    8.16    1.88
   2   8   0    6.84    1.13
   2   8   1   61.82    3.31
   2   8   1   56.80    4.01
   2   8   2   52.52    2.85
   2   8   2   50.49    2.60
   2   8   3    2.87    1.30
   2   8   3    3.54    1.29
   2   8   4   35.62    2.91
   2   8   4   39.63    3.06
   2   8   5   61.18    3.43
  -2  -8  -5   43.58    2.23
   2   8   6    0.59    0.69
  -2  -8  -6    0.59    0.52
  -2  -9   5    2.96    0.88
  -2  -9   4    4.79    0.72
   2   9  -3    5.36    0.80
  -2  -9   3    5.93    1.30
   2   9  -2   20.48    1.46
  -2  -9   2   19.63    2.08
   2   9  -1    9.19    1.78
  -2  -9   1    7.95    1.63
   2   9   0   30.80    2.06
  -2  -9   0   32.14    1.90
   2   9   1   70.88    3.47
   2   9   2   15.18    1.33
   2   9   2   15.81    1.26
   2   9   3    0.74    0.51
   2   9   3    1.04    0.83
   2   9   4    2.75    0.85
   2   9   4    4.96    1.01
   2  10  -2    4.57    0.59
  -2 -10   2    5.34    0.93
   2  10  -1    2.28    0.88
  -2 -10   1    2.01    0.49
   2  10   0    2.05    0.57
  -2 -10   0    1.79    0.46
   2  10   1    5.13    0.72
  -2 -10  -1    4.84    0.91
   3  -7  -1    1.22    0.43
  -3   7   1    1.50    0.77
  -3   7   1    1.23    0.42
   3  -7   0   32.10    2.26
  -3   7   0   33.20    1.75
  -3   7   0   33.07    1.67
   3  -7   1    1.78    0.86
  -3   7  -1    1.94    1.00
  -3   7  -1    2.27    1.00
   3  -7   2   23.43    1.94
  -3   7  -2   27.86    2.31
   3  -7   3   27.73    1.95
  -3   7  -3   29.67    2.06
  -3   7  -3   39.31    2.60
  -3   7  -4   27.24    1.56
  -3   7  -5   54.61    2.33
   3  -6  -3   33.88    1.67
  -3   6   3   29.35    1.46
  -3   6   3   30.01    1.92
   3  -6  -2   65.11    3.92
  -3   6   2   63.71    2.95
  -3   6   2   63.08    3.68
   3  -6  -1   -0.21    0.38
  -3   6   1    0.50    0.57
   3  -6   0    9.91    1.21
  -3   6   0   10.74    1.26
  -3   6   0   10.17    1.14
   3  -6   1    1.80    0.90
  -3   6  -1    0.11    0.57
  -3   6  -1    0.29    0.58
   3  -6   2   18.84    2.21
  -3   6  -2   17.85    2.24
  -3   6  -2   18.79    2.37
   3  -6   3    7.73    0.95
  -3   6  -3    7.30    0.95
  -3   6  -3    8.26    1.77
   3  -6   4   37.12    2.03
  -3   6  -4   44.05    2.31
  -3   6  -5   13.15    1.24
  -3   6  -6  142.95    5.81
  -3   6  -7    0.24    0.38
   3  -5  -4    8.63    0.94
  -3   5   4    7.48    1.20
  -3   5   4    8.58    1.34
   3  -5  -3    0.14    0.47
  -3   5   3    0.21    0.68
  -3   5   3    0.08    0.44
   3  -5  -2    1.85    0.79
  -3   5   2    1.44    0.74
  -3   5   2    2.35    0.74
   3  -5  -1  129.35    5.96
  -3   5   1  127.41    5.85
  -3   5   1  128.59    7.06
   3  -5   0   17.03    2.35
  -3   5   0   16.47    1.54
  -3   5   0   15.98    1.59
   3  -5   1   77.96    3.77
  -3   5  -1   77.48    3.69
  -3   5  -1   76.25    4.83
   3  -5   2    0.37    0.86
  -3   5  -2    0.42    0.80
  -3   5  -2    0.20    0.52
   3  -5   3    8.34    1.68
  -3   5  -3    8.39    1.00
  -3   5  -3    8.73    1.79
   3  -5   4   21.61    2.22
  -3   5  -4   21.96    2.48
   3  -5   5   39.88    2.91
  -3   5  -5   42.72    3.27
  -3   5  -6   10.06    1.85
  -3   5  -6   15.05    1.97
  -3   5  -7    2.08    0.69
  -3   5  -7    2.32    1.11
  -3   5  -8    0.62    0.51
  -3   5  -8    0.87    0.75
   3  -4  -5    0.34    0.72
  -3   4   5    0.13    0.51
  -3   4   5    1.15    0.76
   3  -4  -4   12.19    1.27
  -3   4   4   10.95    1.08
  -3   4   4   13.24    1.32
   3  -4  -3   10.21    1.33
  -3   4   3   11.01    1.94
  -3   4   3   10.38    1.33
   3  -4  -2   12.00    1.45
  -3   4   2   11.95    1.37
  -3   4   2   12.06    1.41
   3  -4  -1   25.45    2.77
  -3   4   1   23.25    2.77
  -3   4   1   23.07    2.77
   3  -4   0   26.22    1.80
  -3   4   0   26.57    2.68
  -3   4   0   24.35    1.71
   3  -4   1   24.11    2.46
  -3   4  -1   24.27    1.66
  -3   4  -1   23.54    2.45
   3  -4   2  232.20    9.90
  -3   4  -2  240.02   11.13
  -3   4  -2  226.95   10.88
   3  -4   3    2.31    0.72
  -3   4  -3    2.92    0.62
  -3   4  -3    2.76    0.72
   3  -4   4   31.14    1.77
  -3   4  -4   27.75    2.92
  -3   4  -4   30.52    1.82
   3  -4   5  160.19    7.69
  -3   4  -5  161.61    7.34
  -3   4  -5  151.98    6.38
   3  -4   6   50.23    3.20
  -3   4  -6   51.97    4.26
  -3   4  -6   48.35    3.41
  -3   4  -7   42.47    2.66
  -3   4  -7   41.11    3.12
  -3   4  -8   38.76    2.25
  -3   4  -8   38.19    2.76
  -3   4  -9    0.67    0.83
  -3   4  -9    0.38    0.36
   3  -3  -6   19.78    1.79
  -3   3   6   24.22    2.09
   3  -3  -5    5.64    0.95
  -3   3   5    5.92    0.97
   3  -3  -4   49.35    3.73
  -3   3   4   46.19    2.52
  -3   3   4   50.20    2.77
   3  -3  -3  107.44    6.32
  -3   3   3  101.75    5.82
  -3   3   3  104.81    4.91
   3  -3  -2    4.71    1.61
  -3   3   2    5.22    0.98
  -3   3   2    4.73    0.96
   3  -3  -1   19.45    1.56
  -3   3   1   19.51    2.49
  -3   3   1   17.94    2.09
   3  -3   0   30.81    2.51
  -3   3   0   23.88    2.50
  -3   3   0   24.04    1.60
   3  -3   1   26.80    1.57
  -3   3  -1   26.14    2.30
  -3   3  -1   25.31    1.48
   3  -3   2   15.31    1.30
   3  -3   2   15.98    1.18
  -3   3  -2   16.53    1.10
  -3   3  -2   14.54    0.99
  -3   3  -2   16.72    1.72
   3  -3   3   59.29    3.05
   3  -3   3   56.41    2.48
  -3   3  -3   55.99    2.25
  -3   3  -3   52.99    2.27
  -3   3  -3   52.33    2.24
   3  -3   4   98.80    3.96
  -3   3  -4   98.04    3.91
   3  -3   5    0.32    0.50
  -3   3  -5    2.61    0.75
  -3   3  -5    0.33    0.47
   3  -3   6    3.92    1.19
  -3   3  -6    4.35    2.00
  -3   3  -6    3.97    1.22
   3  -3   7   52.37    3.37
  -3   3  -7   62.02    5.28
  -3   3  -7   55.41    3.55
   3  -3   8    7.39    0.94
  -3   3  -8    9.64    2.14
  -3   3  -8    8.25    1.49
  -3   3  -9   10.85    1.25
  -3   3  -9    9.12    0.92
  -3   3 -10   21.79    1.43
  -3   2   7    1.36    0.49
   3  -2  -6    7.25    0.90
  -3   2   6    9.63    1.63
   3  -2  -5   26.67    2.69
  -3   2   5   26.00    1.93
   3  -2  -4   16.13    1.51
  -3   2   4   15.09    1.36
  -3   2   4   16.58    1.51
   3  -2  -3   22.67    1.67
  -3   2   3   23.06    1.84
  -3   2   3   22.24    1.63
   3  -2  -2   15.00    1.33
  -3   2   2   15.88    2.36
  -3   2   2   14.93    1.23
   3  -2  -1   75.19    4.09
  -3   2   1   70.63    4.14
  -3   2   1   67.80    3.73
   3  -2   0   67.48    2.73
   3  -2   0   70.63    2.89
   3  -2   0   68.32    3.54
  -3   2   0   66.17    3.61
  -3   2   0   71.27    3.88
  -3   2   0   61.78    2.75
  -3   2   0   67.67    2.71
  -3   2   0   63.80    3.46
   3  -2   1  204.20    7.30
   3  -2   1  201.57    7.84
  -3   2  -1  209.47    8.72
  -3   2  -1  206.94    7.74
  -3   2  -1  215.37    8.12
  -3   2  -1  212.82    8.97
   3  -2   2   70.83    2.52
   3  -2   2   65.24    2.64
  -3   2  -2   75.82    2.77
  -3   2  -2   68.83    3.18
  -3   2  -2   68.23    3.27
  -3   2  -2   68.17    3.04
   3  -2   3   17.22    1.46
   3  -2   3   16.43    1.06
   3  -2   3   16.54    1.44
  -3   2  -3   16.52    1.20
  -3   2  -3   15.48    1.44
  -3   2  -3   15.86    1.44
  -3   2  -3   14.39    1.28
   3  -2   4  151.24    6.61
   3  -2   4  154.72    5.70
   3  -2   4  141.25    5.35
  -3   2  -4  141.79    5.57
  -3   2  -4  138.99    5.29
  -3   2  -4  144.74    5.24
   3  -2   5   15.61    1.73
  -3   2  -5   17.29    1.50
   3  -2   6  713.50   35.72
  -3   2  -6  655.21   33.92
  -3   2  -6  720.92   35.82
   3  -2   7   63.40    3.79
  -3   2  -7   66.90    3.96
  -3   2  -7   63.08    2.84
   3  -2   8   33.06    1.95
  -3   2  -8   34.41    2.45
   3  -2   9    1.06    1.08
  -3   2  -9    4.00    0.90
  -3   2 -10   29.28    1.77
  -3   1   7   16.68    1.28
  -3   1   6   -0.16    0.84
   3  -1  -5   23.23    1.75
  -3   1   5   28.01    1.87
   3  -1  -4    9.31    1.14
  -3   1   4    9.92    2.00
  -3   1   4   11.04    1.17
   3  -1  -3  111.47    4.71
  -3   1   3  108.34    4.65
  -3   1   3  111.87    4.65
   3  -1  -2  189.22    7.60
   3  -1  -2  226.43    8.90
   3  -1  -2  203.51    8.70
  -3   1   2  216.56    9.65
  -3   1   2  221.00    8.74
  -3   1   2  207.62    7.99
  -3   1   2  216.76    8.46
  -3   1   2  191.74    7.68
   3  -1  -1 3984.28  308.69
   3  -1  -1 3747.85  297.79
   3  -1  -1 3921.60  309.49
  -3   1   1 4087.66  318.46
  -3   1   1 4114.69  324.51
  -3   1   1 4000.04  314.13
  -3   1   1 4219.97  330.29
   3  -1   0  511.55   21.91
   3  -1   0  512.90   22.10
   3  -1   0  480.75   20.81
  -3   1   0  500.68   21.44
  -3   1   0  515.68   22.40
  -3   1   0  507.69   22.28
  -3   1   0  506.22   22.38
   3  -1   1   38.47    1.88
   3  -1   1   35.57    1.49
  -3   1  -1   36.38    1.43
  -3   1  -1   35.36    1.78
  -3   1  -1   36.67    1.97
  -3   1  -1   35.12    1.82
  -3   1  -1   37.20    1.92
   3  -1   2  275.91   10.80
   3  -1   2  294.64   10.93
  -3   1  -2  275.39   10.54
  -3   1  -2  261.36   10.56
  -3   1  -2  263.43   10.59
  -3   1  -2  263.61    9.61
   3  -1   3  415.81   17.62
   3  -1   3  397.42   16.83
   3  -1   3  419.96   17.50
  -3   1  -3  381.68   15.21
  -3   1  -3  405.84   17.59
  -3   1  -3  378.25   16.19
  -3   1  -3  380.09   15.30
   3  -1   4    3.28    0.96
   3  -1   4    3.38    0.86
   3  -1   4    4.47    0.79
  -3   1  -4    3.50    1.02
  -3   1  -4    3.09    0.55
  -3   1  -4    3.40    0.62
   3  -1   5   91.15    4.60
   3  -1   5   88.88    3.33
   3  -1   5   91.33    3.45
  -3   1  -5   88.18    4.76
  -3   1  -5   83.05    3.92
  -3   1  -5   85.16    2.92
   3  -1   6   67.18    2.76
   3  -1   6   66.93    2.76
   3  -1   6   51.36    2.10
   3  -1   6   59.46    3.34
  -3   1  -6   71.37    3.40
  -3   1  -6   65.91    2.99
   3  -1   7  365.07   15.75
   3  -1   7  347.06   17.28
  -3   1  -7  361.97   18.74
   3  -1   8  859.60   42.71
   3  -1   8  666.89   35.98
  -3   1  -8  771.17   42.26
   3  -1   9    0.58    0.95
   3  -1   9    1.13    0.61
  -3   1  -9    0.54    1.12
   3  -1  10   12.54    1.65
   3  -1  10    9.47    1.64
  -3   1 -10   17.72    1.29
  -3   0   8   13.23    1.00
  -3   0   7   15.04    1.38
  -3   0   6    6.63    1.75
  -3   0   5   29.34    1.92
   3   0  -4   11.16    0.93
   3   0  -4   10.17    1.01
  -3   0   4   10.34    1.71
  -3   0   4   11.56    1.14
   3   0  -3   66.37    3.17
   3   0  -3   62.63    3.26
   3   0  -3   59.56    3.01
  -3   0   3   63.82    2.66
  -3   0   3   58.41    3.08
  -3   0   3   69.87    2.95
  -3   0   3   65.55    2.74
   3   0  -2  305.16   11.93
   3   0  -2  319.39   12.75
   3   0  -2  300.14   12.52
  -3   0   2  306.80   12.08
  -3   0   2  291.62   12.61
  -3   0   2  335.00   14.23
  -3   0   2  305.02   12.15
   3   0  -1   96.67    3.92
   3   0  -1   87.53    3.00
  -3   0   1   88.77    3.19
  -3   0   1   88.15    3.30
  -3   0   1   88.78    3.14
  -3   0   1  111.17    4.13
   3   0   0  143.87    5.38
   3   0   0  140.09    5.19
  -3   0   0  150.13    5.25
  -3   0   0  144.13    5.46
  -3   0   0  141.23    4.72
  -3   0   0  150.94    5.49
   3   0   1  259.47    9.96
   3   0   1  258.53    9.84
  -3   0  -1  263.53    9.65
  -3   0  -1  255.40    9.14
  -3   0  -1  253.84    9.31
   3   0   2  168.49    6.39
   3   0   2  153.16    5.19
  -3   0  -2  161.07    5.13
  -3   0  -2  155.51    6.17
  -3   0  -2  148.42    5.60
  -3   0  -2  154.20    5.08
  -3   0  -2  149.23    4.72
   3   0   3   54.39    1.94
   3   0   3   56.27    1.92
   3   0   3   48.86    1.30
   3   0   3   56.26    2.02
  -3   0  -3   55.63    1.79
  -3   0  -3   60.10    2.81
  -3   0  -3   54.43    2.40
  -3   0  -3   50.40    1.44
   3   0   4   51.69    2.02
   3   0   4   49.23    2.34
   3   0   4   45.55    1.41
   3   0   4   52.43    2.05
  -3   0  -4   51.64    2.13
  -3   0  -4   50.17    2.41
  -3   0  -4   43.51    1.26
  -3   0  -4   46.00    1.60
   3   0   5   59.88    3.23
   3   0   5   56.71    2.79
   3   0   5   57.43    2.49
   3   0   5   58.34    2.50
  -3   0  -5   60.42    3.47
  -3   0  -5   56.69    2.28
  -3   0  -5   54.04    1.81
  -3   0  -5   53.20    1.68
   3   0   6   15.59    1.60
   3   0   6   16.03    1.55
  -3   0  -6   14.47    0.88
   3   0   7    5.65    1.39
   3   0   7    6.20    0.93
  -3   0  -7    5.45    1.70
   3   0   8  225.49   11.03
   3   0   8  205.81   10.63
  -3   0  -8  242.42   12.11
   3   0   9    0.98    0.91
   3   0   9    0.14    0.55
  -3   0  -9    0.49    0.91
   3   0  10    8.62    0.96
   3   0  10    6.64    0.93
  -3   0 -10    7.49    0.93
  -3  -1   8    3.70    0.70
  -3  -1   7    7.03    1.68
   3   1  -6   61.97    3.78
  -3  -1   6   66.69    3.20
   3   1  -5  148.45    6.32
   3   1  -4    1.35    0.59
   3   1  -4    1.88    0.60
  -3  -1   4    1.61    0.85
  -3  -1   4    1.24    0.43
   3   1  -3   24.14    1.87
   3   1  -3   23.27    1.28
  -3  -1   3   21.62    1.13
  -3  -1   3   21.38    1.62
  -3  -1   3   22.47    1.41
  -3  -1   3   19.33    1.19
   3   1  -2  180.64    6.50
   3   1  -2  202.00    7.39
   3   1  -2  196.34    7.20
   3   1  -2  181.62    6.64
   3   1  -2  183.54    6.72
  -3  -1   2  187.61    7.46
  -3  -1   2  195.86    8.10
  -3  -1   2  175.43    6.04
  -3  -1   2  184.71    7.19
   3   1  -1  301.91   11.37
   3   1  -1  329.09   13.31
   3   1  -1  318.35   11.88
   3   1  -1  319.68   12.07
  -3  -1   1  303.16   12.27
  -3  -1   1  323.01   13.17
  -3  -1   1  284.11    9.78
  -3  -1   1  305.81   11.43
   3   1   0    5.68    0.51
   3   1   0    6.25    0.88
   3   1   0    6.46    0.57
  -3  -1   0    5.85    0.54
  -3  -1   0    7.01    0.61
  -3  -1   0    5.37    0.21
  -3  -1   0    5.56    0.20
  -3  -1   0    5.91    0.39
   3   1   1  104.49    3.73
   3   1   1   99.00    3.81
   3   1   1  104.15    3.12
  -3  -1  -1  105.08    3.78
  -3  -1  -1  104.00    4.10
  -3  -1  -1  105.24    3.19
  -3  -1  -1   99.13    2.79
  -3  -1  -1  104.83    2.93
   3   1   2  449.90   18.09
   3   1   2  442.54   18.04
   3   1   2  438.71   17.38
   3   1   2  509.38   18.26
  -3  -1  -2  439.61   17.32
  -3  -1  -2  467.69   19.20
  -3  -1  -2  454.19   18.10
  -3  -1  -2  530.03   18.85
  -3  -1  -2  472.41   17.49
   3   1   3 1133.25   55.86
   3   1   3 1028.36   53.98
   3   1   3 1170.64   59.34
   3   1   3 1033.78   51.09
  -3  -1  -3 1103.60   54.44
  -3  -1  -3  980.87   51.00
  -3  -1  -3 1161.84   58.40
  -3  -1  -3 1160.07   56.01
  -3  -1  -3 1179.48   55.80
   3   1   4  718.37   33.13
   3   1   4  736.19   33.88
   3   1   4  703.76   31.35
   3   1   4  661.29   28.88
  -3  -1  -4  687.44   29.03
  -3  -1  -4  709.37   30.27
  -3  -1  -4  728.27   33.88
  -3  -1  -4  747.96   34.93
  -3  -1  -4  683.25   30.15
  -3  -1  -4  706.44   29.79
   3   1   5   91.71    3.46
   3   1   5   87.05    3.88
   3   1   5   91.17    3.61
  -3  -1  -5   90.44    3.41
  -3  -1  -5   84.84    3.31
   3   1   6    1.03    0.65
   3   1   6    0.59    0.61
  -3  -1  -6    0.22    0.48
  -3  -1  -6    0.29    0.32
   3   1   7    4.24    1.28
   3   1   7    4.61    0.79
  -3  -1  -7    5.07    1.46
   3   1   8   34.52    2.10
   3   1   8   35.66    2.19
  -3  -1  -8   37.65    2.22
   3   1   9  110.81    4.87
   3   1   9  105.75    6.08
  -3  -1  -9   97.28    4.40
   3   1  10   14.71    1.87
   3   1  10   12.31    1.81
   3   2  -8    0.10    0.48
  -3  -2   8    0.38    0.43
  -3  -2   8    0.74    0.72
   3   2  -7   12.05    1.78
  -3  -2   7   11.27    1.58
  -3  -2   7   12.46    1.21
   3   2  -6   25.94    1.82
   3   2  -6   25.31    1.80
  -3  -2   6   23.09    2.25
   3   2  -5   34.86    2.95
   3   2  -5   32.17    2.79
  -3  -2   5   31.65    2.33
   3   2  -4   41.07    2.19
   3   2  -4   39.47    2.01
  -3  -2   4   37.71    2.23
   3   2  -3  234.74    9.67
   3   2  -3  280.38   11.31
   3   2  -3  267.34   10.42
  -3  -2   3  240.34    9.96
  -3  -2   3  278.94   11.45
  -3  -2   3  248.34    9.73
  -3  -2   3  255.49   10.74
   3   2  -2   61.21    2.68
   3   2  -2   67.41    3.39
   3   2  -2   64.80    2.30
  -3  -2   2   59.63    2.18
  -3  -2   2   66.66    2.67
  -3  -2   2   60.46    2.19
  -3  -2   2   60.61    2.15
   3   2  -1  265.97   10.16
   3   2  -1  273.42   10.25
   3   2  -1  225.35    7.50
   3   2  -1  251.70    8.36
   3   2  -1  270.59    9.49
  -3  -2   1  253.09    9.29
  -3  -2   1  272.10   10.92
  -3  -2   1  248.89    8.55
  -3  -2   1  263.41    9.68
   3   2   0  227.54    7.99
   3   2   0  235.41    9.12
   3   2   0  227.83    7.34
   3   2   0  239.55    7.82
  -3  -2   0  232.26    8.20
  -3  -2   0  254.24    9.82
  -3  -2   0  226.80    7.37
  -3  -2   0  218.38    7.04
  -3  -2   0  235.81    7.86
  -3  -2   0  228.20    7.69
   3   2   1    2.32    0.35
   3   2   1    2.28    0.39
   3   2   1    2.21    0.22
   3   2   1    2.41    0.27
  -3  -2  -1    2.03    0.55
  -3  -2  -1    2.49    0.40
  -3  -2  -1    2.27    0.34
  -3  -2  -1    2.56    0.20
   3   2   2   22.70    1.11
   3   2   2   22.76    1.30
   3   2   2   22.47    0.76
   3   2   2   22.90    0.68
  -3  -2  -2   21.76    0.75
  -3  -2  -2   23.78    0.99
  -3  -2  -2   22.84    0.76
  -3  -2  -2   23.51    0.88
   3   2   3    2.79    0.27
   3   2   3    2.73    0.41
   3   2   3    3.61    0.36
   3   2   3    2.77    0.32
  -3  -2  -3    2.45    0.40
  -3  -2  -3    2.39    0.62
  -3  -2  -3    2.38    0.37
  -3  -2  -3    2.87    0.26
   3   2   4   69.84    2.13
   3   2   4   84.17    3.34
   3   2   4   77.51    3.13
   3   2   4   85.40    2.77
  -3  -2  -4   74.21    2.29
  -3  -2  -4   79.32    2.68
  -3  -2  -4   82.92    3.47
  -3  -2  -4   80.28    2.57
   3   2   5  364.63   15.55
   3   2   5  354.08   15.21
   3   2   5  361.41   15.48
  -3  -2  -5  370.48   15.76
  -3  -2  -5  377.85   16.52
  -3  -2  -5  344.98   13.91
   3   2   6   30.07    2.30
   3   2   6   30.59    2.25
  -3  -2  -6   33.12    1.64
   3   2   7   25.52    1.69
   3   2   7   29.42    2.45
  -3  -2  -7   27.15    1.66
   3   2   8   36.87    2.25
   3   2   8   36.03    2.21
   3   2   9   38.02    3.35
   3   2   9   37.96    3.32
   3   2  10    2.80    0.71
   3   2  10    2.62    0.74
   3   3  -8   10.17    0.90
  -3  -3   8    9.99    0.77
  -3  -3   8   11.02    0.98
   3   3  -7   15.14    1.42
   3   3  -7   15.19    1.38
  -3  -3   7   13.80    1.80
   3   3  -6  116.08    6.84
   3   3  -6  110.65    6.22
  -3  -3   6  106.92    5.61
   3   3  -5  119.50    5.54
   3   3  -5  113.21    4.96
  -3  -3   5  117.86    5.67
   3   3  -4   24.84    1.83
   3   3  -4   29.41    1.92
   3   3  -4   27.19    2.29
  -3  -3   4   27.32    1.96
   3   3  -3  153.94    6.26
   3   3  -3  156.54    7.54
   3   3  -3  154.39    5.78
  -3  -3   3  159.57    5.91
  -3  -3   3  144.25    5.69
  -3  -3   3  141.04    5.37
   3   3  -2  156.03    6.16
   3   3  -2  169.31    6.60
   3   3  -2  162.37    5.72
  -3  -3   2  147.96    5.95
  -3  -3   2  164.15    7.18
  -3  -3   2  152.54    5.14
  -3  -3   2  154.58    6.00
   3   3  -1   99.16    3.96
   3   3  -1  109.66    4.72
   3   3  -1  104.68    3.67
  -3  -3   1   95.49    3.85
  -3  -3   1  102.35    4.32
  -3  -3   1   96.09    3.29
  -3  -3   1   94.93    3.35
   3   3   0  138.60    4.70
   3   3   0  138.62    5.44
   3   3   0  137.29    4.30
   3   3   0  138.43    4.33
  -3  -3   0  134.73    5.21
  -3  -3   0  144.23    5.63
  -3  -3   0  148.39    4.97
  -3  -3   0  125.78    3.89
   3   3   1  134.38    4.97
   3   3   1  128.43    3.83
   3   3   1  139.67    4.34
  -3  -3  -1  135.35    4.49
  -3  -3  -1  144.25    4.75
  -3  -3  -1  127.43    3.84
  -3  -3  -1  138.69    4.69
   3   3   2  102.52    3.30
   3   3   2  100.99    3.22
   3   3   2  101.68    3.30
   3   3   2  103.38    3.61
  -3  -3  -2  108.76    3.41
  -3  -3  -2  103.41    3.28
  -3  -3  -2   98.96    3.27
  -3  -3  -2  104.16    3.60
   3   3   3  145.18    5.11
   3   3   3  153.23    5.02
   3   3   3  142.81    5.15
   3   3   3  161.52    5.31
  -3  -3  -3  133.22    4.36
  -3  -3  -3  143.95    4.77
  -3  -3  -3  140.84    4.73
  -3  -3  -3  141.82    5.17
   3   3   4   46.15    1.75
   3   3   4   47.56    1.64
   3   3   4   47.18    1.77
   3   3   4   48.24    1.87
  -3  -3  -4   45.20    1.46
  -3  -3  -4   48.41    2.05
  -3  -3  -4   48.95    2.47
  -3  -3  -4   46.93    1.75
   3   3   5  374.73   16.01
   3   3   5  406.50   17.93
   3   3   5  443.79   19.37
  -3  -3  -5  388.78   16.27
  -3  -3  -5  398.16   18.21
  -3  -3  -5  395.08   16.57
   3   3   6    5.54    1.34
   3   3   6    6.99    1.38
   3   3   7   42.44    2.39
   3   3   7   41.52    3.20
   3   3   8  117.05    6.57
   3   3   8  114.85    6.53
   3   3   9   16.22    2.32
   3   3   9   17.24    1.55
   3   3  10   56.07    3.37
   3   4  -8  126.99    5.74
  -3  -4   8  113.22    4.34
  -3  -4   8  125.73    4.75
   3   4  -7    3.19    0.92
   3   4  -7    3.89    1.32
  -3  -4   7    2.93    0.75
   3   4  -6    0.23    0.70
   3   4  -6    0.36    0.57
  -3  -4   6    0.40    0.82
   3   4  -5   43.64    2.80
   3   4  -5   40.23    3.29
  -3  -4   5   42.69    3.03
   3   4  -4    9.23    1.29
   3   4  -4    8.85    2.15
   3   4  -4    9.85    1.02
  -3  -4   4    8.89    1.45
   3   4  -3  152.23    6.49
   3   4  -3  152.20    7.84
   3   4  -3  150.98    6.66
  -3  -4   3  153.76    6.42
   3   4  -2   22.79    1.68
   3   4  -2   24.88    1.60
   3   4  -2   23.19    1.11
  -3  -4   2   22.17    1.19
  -3  -4   2   24.69    1.51
  -3  -4   2   22.10    1.46
  -3  -4   2   20.84    1.37
   3   4  -1   76.63    3.40
   3   4  -1   90.74    4.10
   3   4  -1   74.70    2.83
  -3  -4   1   77.68    2.87
  -3  -4   1   81.93    3.76
  -3  -4   1   78.92    2.67
  -3  -4   1   74.51    2.40
   3   4   0 1178.50   60.33
   3   4   0 1062.61   56.09
   3   4   0 1110.72   57.31
   3   4   0  987.76   49.19
  -3  -4   0 1207.74   62.16
  -3  -4   0 1146.45   60.39
  -3  -4   0 1046.70   51.75
   3   4   1  457.26   19.77
   3   4   1  463.49   19.41
   3   4   1  439.77   18.02
  -3  -4  -1  447.61   19.34
  -3  -4  -1  457.44   19.22
  -3  -4  -1  457.72   19.47
   3   4   2  139.65    4.91
   3   4   2  135.77    4.77
   3   4   2  139.54    4.77
   3   4   2  143.02    5.53
  -3  -4  -2  133.84    5.19
  -3  -4  -2  147.41    5.20
  -3  -4  -2  141.00    4.53
  -3  -4  -2  142.24    4.93
   3   4   3   25.91    1.12
   3   4   3   21.67    1.06
   3   4   3   25.73    1.44
   3   4   3   23.82    1.64
  -3  -4  -3   24.45    1.46
  -3  -4  -3   23.93    0.90
  -3  -4  -3   23.92    1.42
  -3  -4  -3   26.63    1.71
   3   4   4  182.42    7.09
   3   4   4  187.36    7.66
   3   4   4  189.74    7.20
  -3  -4  -4  182.24    6.66
  -3  -4  -4  181.88    7.01
  -3  -4  -4  181.13    7.73
   3   4   5  174.95    6.90
   3   4   5  175.05    8.07
   3   4   6   48.88    3.37
   3   4   6   51.23    2.63
   3   4   7   81.66    3.87
   3   4   7   78.23    5.05
   3   4   8    9.50    1.97
   3   4   8    9.75    2.03
   3   4   9   62.94    3.06
   3   4  10    3.35    0.99
  -3  -4 -10    3.83    0.63
   3   5  -8   14.17    1.52
  -3  -5   8   12.73    0.82
  -3  -5   8   12.82    0.90
   3   5  -7   59.81    3.15
   3   5  -7   59.12    3.80
  -3  -5   7   57.21    3.48
   3   5  -6   27.63    2.84
  -3  -5   6   27.87    2.58
   3   5  -5    5.34    1.23
   3   5  -5    3.16    0.92
  -3  -5   5    3.60    0.84
   3   5  -4  432.36   19.31
   3   5  -4  416.12   20.16
   3   5  -4  420.25   20.51
  -3  -5   4  418.58   18.62
   3   5  -3   19.82    1.80
   3   5  -3   20.47    1.68
   3   5  -3   18.20    1.27
  -3  -5   3   18.46    1.24
   3   5  -2   73.51    3.72
   3   5  -2   82.97    3.57
   3   5  -2   64.88    3.25
  -3  -5   2   69.68    2.72
  -3  -5   2   62.99    2.44
   3   5  -1   12.84    0.99
   3   5  -1   13.55    1.49
   3   5  -1   11.41    1.05
  -3  -5   1   11.65    0.93
  -3  -5   1   12.91    1.52
  -3  -5   1   13.12    0.91
   3   5   0    5.51    1.18
   3   5   0    5.70    0.84
   3   5   0    5.65    0.96
  -3  -5   0    5.74    1.09
  -3  -5   0    6.31    0.63
   3   5   1  143.35    5.39
   3   5   1  127.96    4.35
   3   5   1  134.44    4.95
  -3  -5  -1  141.92    5.29
  -3  -5  -1  132.83    5.06
  -3  -5  -1  142.87    5.26
   3   5   2   90.99    4.29
   3   5   2   89.06    3.42
  -3  -5  -2   88.83    4.10
  -3  -5  -2   89.00    3.45
   3   5   3  111.47    5.09
   3   5   3  105.94    4.38
   3   5   3  109.20    5.00
  -3  -5  -3  111.56    4.96
  -3  -5  -3  102.48    3.83
   3   5   4   14.88    1.06
   3   5   4   17.04    1.10
   3   5   4   15.89    1.80
  -3  -5  -4   14.53    1.41
   3   5   5   95.30    5.00
   3   5   5   92.61    5.21
   3   5   6    4.44    1.43
   3   5   6    5.05    1.01
   3   5   7   59.61    3.05
   3   5   7   59.89    3.19
   3   5   8   16.59    1.60
  -3  -5  -8    0.99    0.83
   3   5   9   12.34    1.10
  -3  -5  -9   11.89    1.07
   3   6  -7    9.75    1.12
   3   6  -7    9.51    1.47
  -3  -6   7    9.47    0.93
   3   6  -6    0.99    1.38
   3   6  -6    3.67    1.22
  -3  -6   6    1.61    0.68
   3   6  -5   17.59    1.58
  -3  -6   5   17.50    1.49
   3   6  -4  615.34   31.67
   3   6  -4  640.64   32.65
   3   6  -4  587.28   31.14
  -3  -6   4  622.71   30.15
   3   6  -3   68.32    4.12
   3   6  -3   73.52    3.71
   3   6  -3   59.98    3.91
  -3  -6   3   64.43    3.01
   3   6  -2   63.85    3.84
   3   6  -2   61.75    3.83
  -3  -6   2   59.55    3.54
   3   6  -1  156.03    7.44
   3   6  -1  141.04    5.73
  -3  -6   1  156.25    6.13
   3   6   0  197.57    8.15
   3   6   0  185.54    8.42
   3   6   1   39.24    2.09
   3   6   1   35.38    2.50
   3   6   2   60.84    3.79
   3   6   2   61.39    3.60
   3   6   3   86.88    4.94
   3   6   3   88.42    3.84
   3   6   4   87.53    4.13
   3   6   4  108.59    5.65
  -3  -6  -4   99.00    3.96
   3   6   5  750.20   38.63
  -3  -6  -5  762.11   38.77
   3   6   6   24.30    1.89
  -3  -6  -6   24.79    1.67
   3   6   7    5.61    1.03
  -3  -6  -7    5.68    0.89
   3   6   8    3.58    1.21
  -3  -6  -8    2.90    1.06
   3   7  -6   30.86    1.84
   3   7  -6   29.95    1.69
  -3  -7   6   32.92    1.77
   3   7  -5    0.28    0.54
   3   7  -5    0.33    0.49
  -3  -7   5    0.11    0.50
   3   7  -4    5.91    1.31
   3   7  -4    5.77    1.63
   3   7  -4    5.39    1.53
  -3  -7   4    5.66    0.97
   3   7  -3  225.23    9.46
   3   7  -3  169.32    7.87
  -3  -7   3  214.54    8.96
   3   7  -2  209.10   10.26
  -3  -7   2  195.02    8.27
   3   7  -1    5.46    1.59
  -3  -7   1    4.50    0.87
   3   7   0   32.84    2.16
   3   7   0   31.73    1.93
   3   7   1    1.17    0.76
   3   7   1    1.11    0.63
   3   7   2   51.09    3.90
   3   7   2   49.57    3.54
   3   7   3    0.57    0.59
   3   7   3    0.06    0.53
   3   7   4   11.67    1.41
   3   7   4   13.91    2.16
   3   7   5    1.83    0.80
  -3  -7  -5    1.46    0.58
   3   7   6    3.66    0.93
  -3  -7  -6    3.82    0.72
   3   7   7   55.38    2.70
  -3  -7  -7   54.60    3.20
   3   7   8   20.48    1.74
  -3  -7  -8   19.36    1.00
  -3  -8   6   15.16    1.45
   3   8  -5    1.95    0.53
   3   8  -5    2.30    0.82
  -3  -8   5    3.39    0.66
   3   8  -4   22.09    2.03
  -3  -8   4   24.85    1.57
   3   8  -3   76.54    4.54
  -3  -8   3   70.15    3.26
   3   8  -2   11.32    2.07
  -3  -8   2   10.21    1.16
   3   8  -1  205.61    9.20
  -3  -8   1  193.34    9.68
   3   8   0   22.21    1.86
  -3  -8   0   -0.28    0.91
   3   8   1    0.03    0.83
   3   8   1    3.73    1.20
   3   8   2    7.17    1.22
   3   8   2    6.56    1.06
   3   8   3   83.11    4.11
   3   8   3   75.52    4.77
   3   8   4    4.44    1.53
   3   8   4    2.80    1.44
   3   8   5   19.54    1.52
   3   8   6    0.70    0.51
  -3  -9   4   14.84    1.67
   3   9  -3    9.90    0.96
  -3  -9   3   12.18    1.59
   3   9  -2    6.22    0.97
  -3  -9   2    5.39    1.42
   3   9  -1    4.02    1.50
  -3  -9   1    4.26    0.82
   3   9   0    1.36    0.72
  -3  -9   0    1.05    0.68
   3   9   1   23.27    2.40
  -3  -9  -1   11.87    1.32
   3   9   2   23.50    2.57
   3   9   2   22.56    1.62
   3   9   3   96.01    4.15
   3   9   3  102.71    5.23
   3   9   4   45.31    2.88
   3   9   4   56.58    3.24
   3   9   5   16.05    1.58
   3  10  -2   22.64    1.69
  -3 -10   2   26.06    1.84
   3  10  -1    9.40    0.92
  -3 -10   1    8.49    1.32
   3  10   0   25.81    2.19
  -3 -10   0   24.15    1.37
   3  10   1    3.41    1.17
  -3 -10  -1    4.70    1.06
   3  10   2    2.85    0.91
  -3 -10  -2    2.34    0.56
   4  -6  -1    0.66    0.42
  -4   6   1    0.94    0.66
  -4   6   1    0.91    0.63
   4  -6   0   25.90    2.18
  -4   6   0   25.73    2.16
  -4   6   0   26.26    2.07
   4  -6   1    0.61    0.78
  -4   6  -1    0.45    0.77
  -4   6  -1    0.65    0.48
   4  -6   2    2.22    0.61
  -4   6  -2    1.92    0.65
   4  -6   3   40.45    2.64
  -4   6  -3   28.92    2.30
  -4   6  -3   38.29    1.91
   4  -6   4   16.09    1.62
  -4   6  -4   17.41    1.84
   4  -6   5    3.18    0.82
  -4   6  -5    5.60    1.07
  -4   6  -6   17.99    1.51
   4  -5  -2    0.85    0.56
  -4   5   2    0.91    0.85
  -4   5   2    1.12    0.53
   4  -5  -1    0.09    0.42
  -4   5   1    0.17    0.65
  -4   5   1   -0.02    0.41
   4  -5   0   20.58    2.48
  -4   5   0   19.45    1.54
  -4   5   0   19.86    2.34
   4  -5   1   13.80    1.43
  -4   5  -1   13.96    1.31
  -4   5  -1   13.63    1.31
   4  -5   2   26.65    2.74
  -4   5  -2   27.17    2.56
  -4   5  -2   26.20    2.57
   4  -5   3   44.46    2.42
  -4   5  -3   39.97    2.17
  -4   5  -3   42.45    2.38
   4  -5   4   48.66    3.40
  -4   5  -4   48.83    3.39
   4  -5   5    6.99    1.42
  -4   5  -5    7.48    1.51
   4  -5   6    8.48    0.89
  -4   5  -6    9.57    1.47
   4  -5   7    2.03    0.68
  -4   5  -7    2.07    0.82
  -4   5  -7    4.00    0.94
   4  -4  -4    3.43    0.57
  -4   4   4    3.01    0.49
  -4   4   4    4.47    0.99
   4  -4  -3    2.98    1.25
  -4   4   3    3.50    0.69
  -4   4   3    3.83    0.77
   4  -4  -2    1.72    1.22
  -4   4   2    1.49    1.20
  -4   4   2    1.70    0.71
   4  -4  -1   10.21    2.13
  -4   4   1    9.60    1.31
  -4   4   1    9.17    1.21
   4  -4   0   23.87    1.99
  -4   4   0   24.33    1.91
  -4   4   0   23.32    2.68
   4  -4   1    7.95    2.01
  -4   4  -1    7.84    1.18
  -4   4  -1    8.18    1.17
   4  -4   2   70.72    3.62
  -4   4  -2   72.83    4.53
  -4   4  -2   64.54    4.24
   4  -4   3   80.22    5.05
  -4   4  -3   80.62    3.59
  -4   4  -3   83.39    4.77
   4  -4   4   43.33    3.44
  -4   4  -4   44.91    2.43
   4  -4   5    2.99    1.27
  -4   4  -5    2.50    0.90
  -4   4  -5    2.57    0.75
   4  -4   6   28.19    2.46
  -4   4  -6   27.32    3.13
  -4   4  -6   24.69    2.38
   4  -4   7    5.66    1.30
  -4   4  -7    6.83    1.07
  -4   4  -7    5.45    1.30
   4  -4   8   24.44    1.31
  -4   4  -8   26.90    1.62
  -4   4  -8   26.96    1.93
  -4   4  -9   23.53    1.92
  -4   3   5    2.82    1.01
   4  -3  -4   16.92    1.97
  -4   3   4   15.93    1.74
  -4   3   4   19.26    1.46
   4  -3  -3    2.28    0.79
  -4   3   3    1.74    0.73
  -4   3   3    1.88    0.81
   4  -3  -2    9.11    1.32
  -4   3   2   10.62    2.07
  -4   3   2    9.78    1.34
   4  -3  -1    1.45    0.87
  -4   3   1    1.54    0.85
  -4   3   1    2.07    0.84
   4  -3   0   56.40    4.30
  -4   3   0   54.79    2.97
  -4   3   0   51.78    3.79
   4  -3   1   48.86    2.80
  -4   3  -1   47.71    2.58
  -4   3  -1   44.91    2.41
   4  -3   2   40.52    3.43
  -4   3  -2   41.85    2.27
  -4   3  -2   41.19    2.23
   4  -3   3   72.70    4.01
   4  -3   3   72.36    4.50
  -4   3  -3   73.07    4.03
  -4   3  -3   66.42    3.02
   4  -3   4    8.58    1.12
  -4   3  -4    8.71    1.01
   4  -3   5  105.32    4.67
  -4   3  -5  106.02    5.40
  -4   3  -5  104.16    4.37
   4  -3   6   34.07    2.04
  -4   3  -6   36.83    4.06
  -4   3  -6   34.12    1.91
   4  -3   7    4.24    1.35
  -4   3  -7    4.10    1.30
  -4   3  -7    3.93    1.19
   4  -3   8    0.03    0.64
  -4   3  -8    0.28    0.58
   4  -3   9    2.81    0.54
  -4   3  -9    3.04    0.77
  -4   2   6    0.58    0.41
   4  -2  -5    0.69    0.73
  -4   2   5    1.49    0.94
   4  -2  -4    0.46    0.69
  -4   2   4    0.78    1.09
  -4   2   4    4.14    0.79
   4  -2  -3   30.86    3.03
  -4   2   3   29.71    3.17
  -4   2   3   30.30    2.11
   4  -2  -2  823.18   46.98
  -4   2   2  909.90   49.53
  -4   2   2  865.55   46.67
   4  -2  -1  274.15   12.47
  -4   2   1  294.82   13.60
  -4   2   1  270.51   13.28
   4  -2   0  177.19    7.82
  -4   2   0  186.87    9.86
  -4   2   0  179.68    7.57
   4  -2   1   13.74    1.40
   4  -2   1   14.67    2.05
  -4   2  -1   15.47    2.18
  -4   2  -1   14.15    1.82
   4  -2   2    3.53    0.65
   4  -2   2    3.02    1.26
  -4   2  -2    3.47    0.76
  -4   2  -2    3.37    1.03
   4  -2   3    4.57    1.23
   4  -2   3    4.00    1.31
  -4   2  -3    4.47    1.11
  -4   2  -3    6.66    1.15
   4  -2   4  112.01    4.68
   4  -2   4  112.00    4.70
  -4   2  -4  116.14    5.26
   4  -2   5   55.72    2.85
   4  -2   5   56.38    2.75
  -4   2  -5   52.44    2.32
   4  -2   6  108.94    4.75
  -4   2  -6  116.91    5.93
  -4   2  -6  109.14    5.23
   4  -2   7 1148.11   64.98
  -4   2  -7 1039.07   63.87
   4  -2   8   36.95    2.96
  -4   2  -8   42.72    4.44
   4  -2   9   17.11    1.93
  -4   2  -9   17.67    2.54
  -4   2 -10    9.17    1.49
  -4   1   6    2.04    0.62
  -4   1   5   12.69    2.05
  -4   1   4   10.25    2.01
  -4   1   4   10.71    1.32
   4  -1  -3  122.01    7.05
  -4   1   3  159.28    8.97
  -4   1   3  152.60    6.69
   4  -1  -2   97.70    5.74
  -4   1   2  100.84    4.87
  -4   1   2  107.08    4.65
   4  -1  -1   10.51    0.84
   4  -1  -1   11.37    1.80
  -4   1   1   11.08    1.97
  -4   1   1   10.91    1.68
   4  -1   0   72.83    3.44
   4  -1   0   75.61    3.32
  -4   1   0   69.56    4.05
  -4   1   0   69.65    3.67
  -4   1   0   71.05    2.97
   4  -1   1   40.59    1.80
   4  -1   1   38.46    1.93
  -4   1  -1   38.49    2.56
  -4   1  -1   38.01    1.85
  -4   1  -1   40.34    1.84
  -4   1  -1   37.41    1.84
   4  -1   2    1.55    0.82
  -4   1  -2    1.73    0.70
  -4   1  -2    0.01    0.43
  -4   1  -2    1.36    0.48
  -4   1  -2    1.32    0.77
  -4   1  -2    1.07    0.39
  -4   1  -2    1.54    0.45
   4  -1   3    1.61    0.83
   4  -1   3    1.94    0.90
  -4   1  -3    1.94    0.63
  -4   1  -3   -0.00    0.65
  -4   1  -3    1.70    0.64
  -4   1  -3    1.85    0.75
   4  -1   4   -0.14    0.70
   4  -1   4    0.77    0.65
   4  -1   4   -0.06    0.34
  -4   1  -4    0.41    0.43
   4  -1   5  272.21   11.38
   4  -1   5  291.00   12.83
   4  -1   5  233.85    9.81
   4  -1   6   86.04    4.11
   4  -1   6   86.92    4.74
   4  -1   7  363.28   17.53
  -4   1  -7  372.55   17.87
   4  -1   8    0.85    1.00
  -4   1  -8    0.64    0.86
   4  -1   9    8.75    1.66
  -4   1  -9    8.50    1.31
   4  -1  10    6.42    0.80
  -4   1 -10    6.28    0.88
  -4   0   7   16.46    1.51
  -4   0   6   47.45    2.39
  -4   0   5   18.64    2.41
  -4   0   4   22.28    2.68
  -4   0   4   24.01    1.82
   4   0  -3    0.97    0.80
  -4   0   3    1.26    1.15
  -4   0   3    0.89    0.62
   4   0  -2   62.23    3.31
   4   0  -2   54.35    3.38
  -4   0   2   59.99    2.89
  -4   0   2   64.40    2.85
   4   0  -1    3.10    0.97
   4   0  -1    3.16    0.67
   4   0  -1    3.17    0.95
  -4   0   1    2.79    1.13
  -4   0   1    3.03    1.03
  -4   0   1    2.99    1.03
   4   0   0  362.47   15.04
   4   0   0  383.99   16.95
   4   0   0  365.40   16.16
  -4   0   0  364.80   15.15
  -4   0   0  361.45   16.49
  -4   0   0  349.68   15.90
  -4   0   0  372.21   16.12
   4   0   1    2.25    0.48
   4   0   1    2.04    0.46
  -4   0  -1    2.20    0.47
  -4   0  -1   -0.02    0.63
  -4   0  -1    1.77    0.50
  -4   0  -1    2.69    0.46
  -4   0  -1    2.09    0.61
  -4   0  -1    0.07    0.56
   4   0   2   81.34    3.81
   4   0   2   75.79    2.82
  -4   0  -2   78.20    3.26
  -4   0  -2   75.89    3.06
  -4   0  -2   71.09    2.69
  -4   0  -2   70.31    2.76
   4   0   3  886.01   45.43
   4   0   3  910.93   45.14
  -4   0  -3  887.16   43.89
  -4   0  -3  910.24   46.37
  -4   0  -3  882.44   44.05
  -4   0  -3  852.86   41.48
  -4   0  -3  893.09   44.18
   4   0   4    1.21    0.91
   4   0   4    1.29    0.50
  -4   0  -4    1.41    0.97
  -4   0  -4    1.25    0.49
   4   0   5   91.90    4.95
   4   0   5   90.20    3.62
   4   0   6   10.58    2.02
   4   0   6   11.02    1.10
   4   0   7  144.90    6.15
  -4   0  -7  152.74    7.05
   4   0   8   99.89    4.57
  -4   0  -8  109.91    5.45
   4   0   9   24.14    1.73
  -4   0  -9   24.17    1.87
   4   0  10    2.35    0.65
  -4   0 -10    1.85    0.63
  -4  -1   7    0.27    0.40
  -4  -1   6    6.11    0.97
   4   1  -5  134.79    6.82
  -4  -1   5  144.55    7.42
   4   1  -4   58.33    3.64
  -4  -1   4   51.18    3.92
  -4  -1   4   57.30    3.84
   4   1  -3    4.92    1.29
  -4  -1   3    4.30    1.36
  -4  -1   3    4.33    0.81
   4   1  -2    0.69    0.67
  -4  -1   2   -0.09    0.41
  -4  -1   2    0.62    0.63
   4   1  -1   33.61    2.28
   4   1  -1   29.20    1.66
   4   1  -1   31.99    1.81
  -4  -1   1   30.45    1.62
  -4  -1   1   31.09    2.23
  -4  -1   1   34.34    2.01
   4   1   0    0.26    0.35
   4   1   0   -0.04    0.59
   4   1   0    0.67    0.43
   4   1   0    0.56    0.28
  -4  -1   0   -0.05    0.61
  -4  -1   0    0.37    0.65
  -4  -1   0    0.28    0.44
  -4  -1   0    0.01    0.40
   4   1   1  182.78    6.59
   4   1   1  184.88    6.85
   4   1   1  180.66    6.38
  -4  -1  -1  184.50    7.21
  -4  -1  -1  181.34    6.86
  -4  -1  -1  179.96    6.88
  -4  -1  -1  174.50    6.33
   4   1   2  417.22   16.80
   4   1   2  432.21   17.87
   4   1   2  411.66   16.60
  -4  -1  -2  449.90   18.89
  -4  -1  -2  411.61   16.84
  -4  -1  -2  390.99   15.22
   4   1   3   15.71    1.07
   4   1   3   14.19    0.85
  -4  -1  -3   15.21    1.11
  -4  -1  -3   13.52    0.86
   4   1   4  694.98   33.41
   4   1   4  748.61   35.01
  -4  -1  -4  734.93   37.20
  -4  -1  -4  738.14   34.86
   4   1   5   27.80    2.35
   4   1   5   26.27    2.05
   4   1   6   13.93    2.03
   4   1   6   13.55    1.71
   4   1   7    4.10    1.35
  -4  -1  -7    3.77    0.97
   4   1   8   42.00    3.46
  -4  -1  -8   50.57    2.90
   4   1   9   34.65    3.10
  -4  -1  -9   35.77    2.16
   4   1  10    5.63    1.33
  -4  -1 -10    3.20    1.04
  -4  -2   7    1.69    0.58
  -4  -2   6   28.44    2.64
   4   2  -5    1.76    0.71
  -4  -2   5    2.00    0.74
   4   2  -4   27.02    2.33
  -4  -2   4   15.31    2.14
  -4  -2   4   17.49    1.43
  -4  -2   3    0.15    0.35
  -4  -2   3   -0.09    0.34
   4   2  -2  146.56    6.19
   4   2  -2  150.64    6.79
  -4  -2   2  110.36    4.44
   4   2  -1  236.51    9.10
   4   2  -1  246.22    9.79
  -4  -2   1  224.56    8.90
  -4  -2   1  236.65    9.54
  -4  -2   1  239.56    8.90
  -4  -2   1  226.78    9.11
   4   2   0    2.82    0.85
   4   2   0    2.45    0.95
   4   2   0    2.26    0.44
   4   2   0    3.50    0.34
  -4  -2   0    2.49    0.87
  -4  -2   0    3.15    0.64
  -4  -2   0    2.54    0.54
   4   2   1    1.68    0.64
   4   2   1    2.00    0.76
   4   2   1    1.76    0.42
  -4  -2  -1    1.40    0.40
  -4  -2  -1    1.45    0.82
  -4  -2  -1    1.53    0.29
  -4  -2  -1    1.55    0.33
  -4  -2  -1    1.23    0.19
   4   2   2  382.22   15.78
   4   2   2  393.60   16.92
   4   2   2  395.66   15.88
  -4  -2  -2  375.22   15.50
  -4  -2  -2  391.07   17.04
  -4  -2  -2  383.23   15.66
   4   2   3   21.91    1.25
   4   2   3   23.77    1.76
   4   2   3   21.05    0.92
  -4  -2  -3   19.98    1.14
  -4  -2  -3   23.36    1.26
  -4  -2  -3   20.21    0.96
   4   2   4  101.22    3.56
   4   2   4  107.17    3.96
   4   2   4  106.44    3.79
  -4  -2  -4  115.51    4.32
  -4  -2  -4  103.97    4.43
   4   2   5  142.18    6.36
   4   2   5  137.38    5.92
  -4  -2  -5  135.61    6.20
   4   2   6   30.69    2.55
   4   2   6   28.96    2.35
   4   2   6   28.23    2.23
   4   2   7   39.30    3.11
   4   2   7   37.97    3.12
  -4  -2  -7   43.07    2.32
   4   2   8    2.78    0.76
   4   2   8    0.68    1.24
  -4  -2  -8    0.81    0.70
   4   2   9   26.29    1.90
   4   2   9   26.36    2.08
   4   2  10    8.84    1.03
   4   2  10    6.76    1.37
   4   3  -7   -0.26    0.50
  -4  -3   7    0.29    0.51
   4   3  -6    2.88    0.80
  -4  -3   6    2.94    0.76
   4   3  -5   17.87    1.66
  -4  -3   5   -0.05    0.81
   4   3  -4    5.29    1.01
   4   3  -4    4.85    0.85
  -4  -3   4    2.09    0.76
   4   3  -3   27.04    2.23
   4   3  -3   27.06    1.98
   4   3  -3   25.22    2.26
   4   3  -2   98.07    4.56
   4   3  -2  105.20    5.65
   4   3  -2   94.68    4.39
  -4  -3   2   89.07    4.04
   4   3  -1  517.09   22.44
   4   3  -1  529.03   24.94
   4   3  -1  485.92   20.78
  -4  -3   1  488.00   21.58
  -4  -3   1  493.04   23.46
  -4  -3   1  478.16   20.82
   4   3   0  109.26    4.72
   4   3   0  116.31    5.22
  -4  -3   0  106.49    4.02
  -4  -3   0  115.35    5.30
   4   3   1    3.18    0.50
   4   3   1    2.96    0.55
  -4  -3  -1    3.06    0.78
  -4  -3  -1    3.07    0.95
  -4  -3  -1    2.76    0.47
   4   3   2  466.73   19.13
   4   3   2  458.21   19.15
   4   3   2  431.21   17.61
   4   3   2  390.54   15.67
  -4  -3  -2  465.69   19.11
  -4  -3  -2  462.83   20.23
  -4  -3  -2  467.13   19.08
  -4  -3  -2  451.82   18.21
   4   3   3   37.15    1.38
   4   3   3   38.77    2.16
   4   3   3   34.52    1.68
   4   3   3   34.19    1.57
  -4  -3  -3   36.63    1.76
  -4  -3  -3   36.96    2.03
  -4  -3  -3   35.79    1.77
  -4  -3  -3   34.66    1.53
   4   3   4  155.26    5.83
   4   3   4  174.88    6.34
   4   3   4  166.69    6.61
   4   3   4  168.76    6.66
  -4  -3  -4  155.36    5.40
  -4  -3  -4  184.04    6.74
  -4  -3  -4  176.05    7.15
  -4  -3  -4  165.17    6.28
   4   3   5   65.58    3.28
   4   3   5   63.64    2.57
   4   3   5   62.80    3.21
  -4  -3  -5   62.98    3.23
  -4  -3  -5   56.97    2.77
   4   3   6   27.01    1.54
   4   3   6   29.65    2.44
   4   3   6   30.65    2.47
   4   3   7   29.07    1.84
   4   3   7   27.78    1.92
   4   3   8    3.03    0.90
   4   3   8    3.40    1.46
   4   3   9  100.35    5.73
   4   3   9   86.26    5.08
   4   3  10   17.05    1.89
   4   3  10   13.73    1.60
   4   4  -7    8.49    1.61
  -4  -4   7   10.61    1.41
   4   4  -6   24.49    2.09
  -4  -4   6    5.00    1.02
   4   4  -5   96.37    4.83
   4   4  -5   88.25    4.19
   4   4  -4    5.66    1.25
   4   4  -4    5.55    1.19
   4   4  -4    4.71    1.47
  -4  -4   4    4.81    0.76
   4   4  -3    4.20    1.17
   4   4  -3    3.69    1.04
   4   4  -3    3.30    0.73
  -4  -4   3    3.16    0.60
   4   4  -2   13.37    1.03
   4   4  -2   13.69    1.46
   4   4  -2   12.03    0.97
  -4  -4   2   12.69    1.21
   4   4  -1  178.19    6.88
   4   4  -1  203.27    9.38
  -4  -4   1  172.57    6.61
   4   4   0  114.84    5.08
   4   4   0  117.14    4.57
  -4  -4   0  119.33    5.32
  -4  -4   0  114.69    4.45
  -4  -4   0  113.17    3.82
   4   4   1    7.10    1.22
   4   4   1    7.18    0.73
   4   4   1    6.23    0.80
  -4  -4  -1    7.46    1.17
  -4  -4  -1    9.49    1.19
  -4  -4  -1    8.24    0.58
   4   4   2   36.76    1.63
   4   4   2   36.00    2.02
   4   4   2   33.48    1.35
  -4  -4  -2   35.66    1.53
  -4  -4  -2   37.65    2.09
  -4  -4  -2   35.54    1.85
   4   4   3    6.38    0.65
   4   4   3    6.11    0.96
   4   4   3    5.74    0.81
   4   4   3    6.60    0.62
  -4  -4  -3    5.76    0.57
  -4  -4  -3    6.00    0.61
  -4  -4  -3    5.54    0.84
  -4  -4  -3    6.27    0.89
   4   4   4   77.07    3.38
   4   4   4   73.38    3.24
   4   4   4   83.91    3.09
   4   4   4   84.68    3.22
  -4  -4  -4   73.18    3.25
  -4  -4  -4   80.99    3.52
  -4  -4  -4   79.45    3.11
  -4  -4  -4   79.89    3.01
   4   4   5   38.08    1.87
   4   4   5   37.14    2.73
   4   4   6    0.69    0.83
   4   4   6    0.36    0.54
   4   4   7   16.38    1.47
   4   4   7   15.74    1.47
   4   4   8  170.33    7.48
   4   4   8  167.37    7.33
   4   4   9   65.91    4.14
   4   4   9   64.83    4.13
   4   4  10   37.96    1.69
   4   5  -7    2.14    1.01
  -4  -5   7    2.32    0.51
   4   5  -6   28.68    3.04
  -4  -5   6   26.39    2.17
   4   5  -5  431.70   20.63
   4   5  -5  382.16   19.19
  -4  -5   5  387.49   18.70
   4   5  -4    1.26    0.58
   4   5  -4    2.38    0.95
   4   5  -4    1.03    0.68
  -4  -5   4    1.44    0.96
   4   5  -3    2.72    0.69
   4   5  -3    3.06    1.02
   4   5  -3    2.43    1.13
  -4  -5   3    2.54    0.63
   4   5  -2    2.35    0.71
   4   5  -2    3.72    0.98
  -4  -5   2    3.56    0.61
   4   5  -1   43.32    2.85
   4   5  -1   47.07    3.28
  -4  -5   1   42.91    1.79
   4   5   0   13.08    1.16
   4   5   0   12.75    1.60
  -4  -5   0   13.94    0.90
   4   5   1   18.66    1.94
   4   5   1   17.26    1.54
   4   5   1   17.03    1.49
  -4  -5  -1   18.92    1.70
   4   5   2   48.63    2.88
   4   5   2   40.48    2.18
   4   5   2   47.43    2.63
  -4  -5  -2   42.55    1.79
  -4  -5  -2   46.18    2.59
   4   5   3  244.72   10.94
   4   5   3  242.87   10.75
   4   5   4  349.90   16.29
   4   5   4  368.31   16.46
   4   5   4  400.10   18.36
   4   5   5  161.65    7.86
   4   5   5  174.98    7.29
   4   5   6    2.29    0.75
   4   5   6    1.90    1.24
   4   5   7    6.51    1.63
   4   5   7    5.75    1.59
   4   5   8   17.62    1.46
   4   5   8   16.52    1.38
   4   5   9   44.21    1.94
  -4  -5  -9   24.93    1.63
   4   6  -6    5.28    0.95
  -4  -6   6    5.19    1.09
   4   6  -5   -0.29    1.26
   4   6  -5    0.37    0.92
  -4  -6   5    1.12    0.51
   4   6  -4   40.52    3.01
   4   6  -4   44.03    2.91
  -4  -6   4   41.53    2.22
   4   6  -3  571.67   28.74
   4   6  -3  560.35   28.31
  -4  -6   3  535.89   26.71
   4   6  -2   26.92    1.76
   4   6  -2   31.68    3.27
  -4  -6   2   27.36    2.32
   4   6  -1   21.84    1.63
   4   6  -1   19.62    1.46
  -4  -6   1   19.44    1.92
   4   6   0    3.01    1.21
   4   6   0    1.96    0.91
  -4  -6   0    1.52    0.60
   4   6   1   18.46    2.22
   4   6   1   16.94    1.85
   4   6   2   24.74    1.68
   4   6   2   23.33    2.08
   4   6   3   70.98    3.33
   4   6   3   68.11    4.04
   4   6   4  108.60    5.92
   4   6   4  123.07    5.21
   4   6   5    1.74    0.64
   4   6   5    2.60    1.23
   4   6   6  363.70   16.89
   4   6   6  444.83   21.45
   4   6   7   13.63    1.39
  -4  -6  -7    0.22    0.71
   4   6   8    1.64    1.03
  -4  -6  -8    1.64    0.57
   4   6   9    2.57    0.53
  -4  -6  -9    2.40    0.77
   4   7  -6   15.52    1.15
  -4  -7   6    0.99    0.49
   4   7  -5    2.63    0.73
  -4  -7   5    2.09    0.63
   4   7  -4   69.92    3.98
   4   7  -4   75.08    4.74
  -4  -7   4   76.69    4.30
   4   7  -3   72.75    4.36
   4   7  -3   62.55    4.42
  -4  -7   3   67.76    4.08
   4   7  -2   87.78    5.05
   4   7  -2   63.91    3.27
  -4  -7   2   81.04    4.45
   4   7  -1   72.23    3.74
  -4  -7   1   65.70    4.00
   4   7   0   11.28    2.21
  -4  -7   0   11.12    1.15
   4   7   1    8.26    1.25
   4   7   1    7.10    1.02
   4   7   2  104.42    4.92
   4   7   2  102.21    4.43
   4   7   3    0.48    0.63
   4   7   3    0.21    0.88
   4   7   4    4.54    1.59
   4   7   4    5.12    0.96
   4   7   5   93.40    5.51
   4   7   6  131.97    6.99
   4   7   7   37.34    2.78
  -4  -7  -7   34.07    1.75
   4   7   8   14.58    1.49
  -4  -7  -8   12.35    1.19
   4   8  -5    9.62    0.77
  -4  -8   5   14.12    0.89
   4   8  -4    0.74    0.40
   4   8  -4    0.54    0.71
  -4  -8   4    0.70    0.49
   4   8  -3   18.28    2.05
  -4  -8   3   17.51    1.35
   4   8  -2    0.49    0.97
  -4  -8   2    0.55    0.55
   4   8  -1    9.20    1.34
  -4  -8   1    8.40    1.06
   4   8   0   16.21    2.62
  -4  -8   0   14.52    1.37
   4   8   1    7.09    1.39
  -4  -8  -1   -0.24    0.69
   4   8   2  356.82   16.62
   4   8   2  328.56   16.28
   4   8   3   30.33    2.18
   4   8   3   26.37    1.83
   4   8   4    3.23    1.53
   4   8   4    3.82    1.32
   4   8   5   30.11    2.70
   4   8   6   10.17    1.59
   4   8   7    0.64    0.62
  -4  -9   4    3.16    0.83
   4   9  -3   18.90    1.17
  -4  -9   3   19.58    1.22
   4   9  -2    4.97    0.84
  -4  -9   2    4.22    1.25
   4   9  -1   40.45    3.34
  -4  -9   1   37.57    2.77
   4   9   0    4.57    1.04
  -4  -9   0    4.12    1.31
   4   9   1   34.70    3.31
  -4  -9  -1   31.37    1.87
   4   9   2    4.39    1.09
  -4  -9  -2   -0.37    0.54
   4   9   3   19.18    2.36
   4   9   3   17.54    1.39
   4   9   4    1.20    0.53
   4   9   4    1.80    0.92
   4   9   5    1.53    0.85
   4  10  -1   29.31    1.49
  -4 -10   1   28.08    1.38
   4  10   0    9.21    1.42
  -4 -10   0    7.54    1.22
   4  10   1    0.04    0.78
  -4 -10  -1   -0.70    0.42
   4  10   2   -0.29    0.58
  -4 -10  -2    0.02    0.54
   4  10   3    2.76    0.74
  -4 -10  -3    3.39    0.55
   5  -5   0    0.42    0.40
  -5   5   0    0.43    0.37
  -5   5   0    0.40    0.58
   5  -5   1   37.16    1.89
  -5   5  -1   37.76    1.82
  -5   5  -1   36.87    2.45
   5  -5   2   11.82    1.66
  -5   5  -2   12.04    0.98
  -5   5  -2   12.00    1.03
   5  -5   3    7.93    0.88
  -5   5  -3    4.69    1.00
  -5   5  -3    8.17    1.26
   5  -5   4    1.15    0.86
  -5   5  -4    0.95    0.75
   5  -5   5   46.60    2.71
  -5   5  -5   52.59    2.70
   5  -5   6    0.98    0.58
   5  -4  -2    1.02    0.43
  -5   4   2    1.15    0.71
  -5   4   2    1.11    0.48
   5  -4  -1   12.20    1.14
  -5   4   1   11.66    1.08
  -5   4   1   12.61    1.10
   5  -4   0    0.01    0.57
  -5   4   0    0.81    0.82
  -5   4   0    1.36    0.85
   5  -4   1    3.22    1.40
  -5   4  -1    2.95    1.20
  -5   4  -1    3.15    1.19
   5  -4   2  120.20    6.59
  -5   4  -2  110.15    4.77
  -5   4  -2  112.74    4.77
   5  -4   3    0.62    0.62
  -5   4  -3    0.36    0.72
  -5   4  -3    0.44    0.53
   5  -4   4   10.06    1.23
  -5   4  -4    9.72    1.61
   5  -4   5    1.82    1.16
  -5   4  -5    2.68    1.03
   5  -4   6    2.63    0.98
  -5   4  -6    1.14    0.56
  -5   4  -6    1.78    0.83
   5  -4   7   14.20    1.47
  -5   4  -7   12.47    1.56
   5  -3  -3  162.37    6.75
  -5   3   3  172.58    7.64
  -5   3   3  196.81    7.62
   5  -3  -2   27.05    2.48
  -5   3   2   28.16    1.75
  -5   3   2   27.42    1.74
   5  -3  -1    4.77    1.54
  -5   3   1    3.56    1.54
  -5   3   1    4.28    0.86
   5  -3   0   38.01    3.60
  -5   3   0   38.57    3.43
  -5   3   0   37.52    3.15
   5  -3   1    3.28    1.04
  -5   3  -1    3.47    1.44
  -5   3  -1    3.60    0.87
   5  -3   2    0.39    1.01
  -5   3  -2    0.10    0.84
  -5   3  -2    0.33    0.79
   5  -3   3   76.19    3.88
  -5   3  -3   76.22    3.55
  -5   3  -3   74.80    4.40
   5  -3   4   43.02    3.66
  -5   3  -4   38.22    2.61
  -5   3  -4   42.60    2.23
   5  -3   5   83.96    5.21
  -5   3  -5   73.71    4.11
  -5   3  -5   75.14    4.24
   5  -3   6  347.93   16.97
  -5   3  -6  367.36   19.49
   5  -3   7    3.38    1.20
  -5   3  -7    2.33    1.56
   5  -3   8   14.37    1.59
  -5   3  -8   14.66    1.33
  -5   3  -9    0.21    0.36
  -5   2   4    3.20    0.85
  -5   2   4    6.59    1.35
   5  -2  -3   15.10    1.94
  -5   2   3   18.13    2.03
  -5   2   3   21.40    1.56
   5  -2  -2    5.10    0.99
  -5   2   2    5.01    1.04
  -5   2   2    5.80    1.05
   5  -2  -1   74.52    3.97
  -5   2   1   79.69    5.84
  -5   2   1   81.10    5.10
   5  -2   0   14.86    2.51
  -5   2   0   16.20    2.67
  -5   2   0   14.17    2.17
   5  -2   1    7.68    2.04
  -5   2  -1    6.63    1.97
  -5   2  -1    6.86    1.01
   5  -2   2   16.87    1.98
   5  -2   2   16.34    1.66
  -5   2  -2   18.82    2.46
  -5   2  -2   17.16    1.40
   5  -2   3   29.67    1.80
   5  -2   3   28.04    2.01
  -5   2  -3   28.14    1.78
  -5   2  -3   27.20    1.63
   5  -2   4   34.18    2.94
   5  -2   4   31.21    3.12
  -5   2  -4   30.57    1.76
   5  -2   5   40.43    2.44
   5  -2   5   38.64    3.50
   5  -2   6  442.60   20.44
  -5   2  -6  423.17   21.28
   5  -2   7    3.09    0.88
  -5   2  -7    3.35    2.03
   5  -2   8    2.68    0.73
  -5   2  -8    3.45    1.73
   5  -2   9    1.13    0.75
  -5   2  -9    0.73    0.63
  -5   1   5    0.02    0.28
  -5   1   4    7.88    1.39
  -5   1   4    8.31    1.58
  -5   1   3   59.62    4.44
  -5   1   3   61.06    3.05
   5  -1  -2    3.94    0.96
  -5   1   2    5.64    1.32
  -5   1   2    5.15    1.60
   5  -1  -1  489.24   25.10
  -5   1   1  535.16   28.97
  -5   1   1  580.54   29.36
   5  -1   0    2.26    1.06
   5  -1   0    2.09    1.42
  -5   1   0    1.64    0.91
  -5   1   0    2.25    0.78
   5  -1   1   63.51    3.67
   5  -1   1   66.47    4.55
  -5   1  -1   59.54    3.12
  -5   1  -1   63.42    3.74
   5  -1   2   81.28    3.54
   5  -1   2   82.96    5.00
  -5   1  -2   79.38    4.54
  -5   1  -2   79.71    4.20
   5  -1   3    6.72    1.55
   5  -1   3    6.61    1.01
  -5   1  -3    7.50    1.49
  -5   1  -3    5.74    1.13
   5  -1   4   46.86    3.55
   5  -1   4   45.10    3.41
   5  -1   5    2.51    0.88
   5  -1   5    2.91    1.37
   5  -1   6   16.49    1.71
   5  -1   6   15.03    2.27
   5  -1   7  264.41   13.17
  -5   1  -7  267.52   13.13
   5  -1   8   71.80    4.56
  -5   1  -8   85.25    6.34
   5  -1   9    0.30    0.81
  -5   1  -9    0.76    1.07
   5  -1  10   37.03    2.22
  -5   1 -10   35.70    1.75
  -5   0   5   27.31    1.56
  -5   0   4    1.98    1.23
  -5   0   4    2.43    1.17
  -5   0   3    3.67    1.85
  -5   0   3    5.47    1.57
   5   0  -2    1.89    0.65
  -5   0   2    2.15    1.05
  -5   0   2    2.54    1.35
   5   0  -1   97.34    4.16
   5   0  -1   83.50    5.13
  -5   0   1   92.39    6.08
  -5   0   1   99.76    5.40
   5   0   0   12.65    1.17
   5   0   0   12.69    2.02
  -5   0   0   13.56    1.75
   5   0   1  148.39    7.22
   5   0   1  149.91    6.44
  -5   0  -1  133.68    5.62
  -5   0  -1  143.56    5.77
   5   0   2    4.59    0.87
   5   0   2    5.00    1.22
  -5   0  -2    4.76    0.74
   5   0   3  256.97   10.75
   5   0   3  247.36   11.41
  -5   0  -3  260.04   11.32
   5   0   4    1.36    1.04
   5   0   4    0.76    0.58
   5   0   5   20.01    2.50
   5   0   5   20.24    1.54
   5   0   6   37.80    3.57
   5   0   6   39.10    3.23
   5   0   7  121.76    6.59
   5   0   8   12.01    2.11
  -5   0  -8   12.37    2.62
   5   0   9   33.36    2.95
  -5   0  -9   36.33    3.50
   5   0  10    4.82    0.77
  -5   0 -10    4.85    1.13
  -5  -1   6    5.38    0.63
  -5  -1   5   51.74    2.49
   5   1  -4   42.42    2.28
  -5  -1   4   46.56    3.70
  -5  -1   4   53.73    2.64
   5   1  -3    0.79    0.58
  -5  -1   3    0.53    1.29
  -5  -1   3    0.84    1.00
   5   1  -2   10.10    1.80
  -5  -1   2    9.55    1.37
  -5  -1   2   11.32    1.82
   5   1  -1    0.75    0.54
  -5  -1   1    1.13    0.97
  -5  -1   1    0.19    0.51
   5   1   0   23.88    2.25
   5   1   0   19.59    1.21
  -5  -1   0   22.99    1.50
  -5  -1   0   22.60    1.88
   5   1   1   49.04    2.38
   5   1   1   44.26    2.63
  -5  -1  -1   49.02    2.23
   5   1   2   23.07    2.21
   5   1   2   22.94    1.83
  -5  -1  -2   22.38    1.27
   5   1   3  403.17   19.12
   5   1   3  372.92   16.01
  -5  -1  -3  401.27   16.80
   5   1   4   33.58    1.94
   5   1   4   32.87    2.39
   5   1   5   16.73    1.47
   5   1   5   15.80    1.93
   5   1   6   -0.16    0.56
   5   1   6    0.86    0.78
   5   1   7   55.48    3.20
   5   1   7   54.03    2.84
   5   1   8   42.38    2.49
  -5  -1  -8   44.31    3.89
   5   1   9    2.70    0.86
  -5  -1  -9    4.40    1.48
   5   1  10    1.35    0.57
  -5  -1 -10    0.96    0.45
  -5  -2   6    2.95    0.58
   5   2  -5   22.06    2.07
  -5  -2   5   23.63    2.27
   5   2  -4   11.30    1.21
  -5  -2   4   10.24    2.21
  -5  -2   4   11.37    1.24
   5   2  -3   17.98    1.55
  -5  -2   3   16.99    2.54
  -5  -2   3   19.05    1.52
   5   2  -2   50.54    2.77
  -5  -2   2   51.31    2.66
  -5  -2   2   54.44    2.63
   5   2  -1  128.42    5.57
  -5  -2   1  127.23    6.00
   5   2   0   32.16    1.77
   5   2   0   34.49    2.79
   5   2   1   75.77    4.05
   5   2   1   80.53    3.45
   5   2   2  120.29    5.31
   5   2   2  126.14    5.07
   5   2   2  113.70    4.79
  -5  -2  -2  112.17    4.16
   5   2   3  169.35    6.40
   5   2   3  189.73    7.59
   5   2   3  166.20    6.29
  -5  -2  -3  162.50    6.30
   5   2   4   75.62    3.31
   5   2   4   76.93    3.83
   5   2   5   61.96    2.97
   5   2   5   60.22    3.48
   5   2   6   44.05    2.41
   5   2   6   43.76    2.23
   5   2   7   28.70    2.07
   5   2   7   29.89    1.93
   5   2   8   67.05    4.56
  -5  -2  -8   66.63    4.50
   5   2   9    8.40    1.82
  -5  -2  -9    6.94    0.96
   5   2  10    6.47    1.47
   5   3  -6    0.15    0.58
  -5  -3   6    0.58    0.64
   5   3  -5    1.34    0.62
  -5  -3   5    1.17    0.62
   5   3  -4   52.18    3.98
  -5  -3   4   43.89    3.59
  -5  -3   4   50.00    3.49
  -5  -3   3   12.54    1.36
  -5  -3   3   17.20    1.96
   5   3  -2    3.75    0.82
   5   3  -2    3.95    1.56
   5   3  -1  103.78    4.39
   5   3  -1   36.89    2.62
   5   3   0    2.34    0.67
   5   3   0    2.20    0.78
   5   3   1   17.80    1.87
   5   3   1   19.20    1.43
   5   3   2    0.49    0.67
   5   3   2    0.61    0.81
   5   3   3   46.25    2.60
   5   3   3   49.04    3.19
   5   3   3   42.77    2.32
  -5  -3  -3   44.85    2.42
   5   3   4  100.78    4.94
   5   3   4   96.20    3.70
   5   3   5   27.88    1.72
   5   3   5   26.76    2.20
   5   3   6   13.35    1.25
   5   3   6   13.04    1.18
   5   3   7  274.12   13.31
   5   3   8  126.10    6.84
   5   3   9   77.65    4.83
   5   3  10   27.00    1.63
   5   4  -6   58.77    3.29
  -5  -4   6   58.52    2.96
   5   4  -5   24.02    2.70
  -5  -4   5   23.92    2.28
   5   4  -4    3.31    1.60
  -5  -4   4    2.85    0.81
  -5  -4   4    2.98    0.76
   5   4  -3   17.93    1.45
   5   4  -3   18.40    1.84
   5   4  -2   39.03    2.10
   5   4  -2   43.96    4.00
   5   4  -1    3.83    1.32
   5   4  -1    5.09    1.68
   5   4   0   30.11    1.79
   5   4   0   32.09    2.05
   5   4   1  431.82   19.03
   5   4   1  428.16   20.64
   5   4   2   18.87    1.86
   5   4   2   18.74    1.99
   5   4   3  307.49   13.85
   5   4   3  332.62   15.27
   5   4   4   90.56    3.56
   5   4   4   96.17    3.87
   5   4   4   90.56    4.25
   5   4   5    1.53    0.58
   5   4   5    1.03    0.91
   5   4   6   15.74    1.31
   5   4   7   67.35    4.35
   5   4   8   29.79    2.87
   5   4   9   63.10    3.00
   5   4  10    7.78    0.81
   5   5  -6    7.84    0.87
   5   5  -5   18.85    2.38
  -5  -5   5   16.25    1.77
   5   5  -4  363.96   19.24
   5   5  -3   17.59    2.12
   5   5  -3   17.24    1.88
   5   5  -2    3.90    1.51
   5   5  -2    9.32    2.04
   5   5  -1  106.42    4.66
   5   5   0   15.75    2.03
   5   5   0   14.58    1.41
   5   5   1    8.24    1.02
   5   5   1    7.92    1.59
   5   5   2   27.94    1.69
   5   5   2   26.75    2.29
   5   5   3  444.41   19.88
   5   5   3  421.84   19.14
   5   5   4   35.04    2.57
   5   5   5  402.59   18.07
   5   5   6    2.52    1.17
   5   5   6    2.28    0.78
   5   5   7   63.32    3.13
   5   5   7   59.17    4.13
   5   5   8    6.83    1.52
   5   5   8    6.11    1.54
   5   5   9    0.51    0.45
   5   5   9    0.44    0.43
   5   6  -5    9.58    1.86
   5   6  -4  110.24    4.64
   5   6  -4  129.90    7.29
   5   6  -3  173.15    7.37
   5   6  -3  172.44    9.79
   5   6  -2   15.02    1.42
   5   6  -2   16.49    2.71
   5   6  -1   16.61    2.36
   5   6  -1   18.53    2.85
   5   6   0   14.96    1.46
   5   6   0   14.06    1.97
   5   6   1   10.03    1.85
   5   6   1    8.02    0.99
  -5  -6  -1    9.14    0.92
   5   6   2   37.85    3.05
   5   6   2   32.59    1.83
   5   6   3    3.92    1.33
   5   6   3    2.74    0.69
   5   6   4   87.22    3.92
   5   6   4   82.12    4.81
   5   6   5  561.56   28.89
   5   6   6   19.54    2.39
   5   6   7    7.10    0.91
   5   6   7    7.99    1.61
   5   6   8    7.75    1.40
  -5  -6  -8    8.28    0.85
  -5  -6  -9   19.40    1.33
   5   7  -5   20.63    1.28
   5   7  -4    0.44    0.42
   5   7  -4    0.30    0.96
  -5  -7   4    1.58    0.64
   5   7  -3   12.73    1.19
   5   7  -3   13.45    2.16
  -5  -7   3   10.66    1.05
   5   7  -2   75.89    3.62
   5   7  -2   70.49    3.59
  -5  -7   2   67.78    3.10
   5   7  -1   51.59    3.92
   5   7  -1   42.67    3.43
  -5  -7   1   48.15    2.38
   5   7   0   71.94    3.74
  -5  -7   0   70.92    3.17
   5   7   1  151.32    8.34
  -5  -7  -1  150.86    6.39
   5   7   2   90.35    5.70
   5   7   2   76.28    3.64
   5   7   3    0.73    1.05
   5   7   3    0.18    0.85
   5   7   4   35.30    3.14
   5   7   4   35.10    2.91
   5   7   5   11.68    1.94
   5   7   6   36.34    2.05
   5   7   7    8.60    0.92
   5   7   8    7.42    0.98
   5   8  -3    6.13    0.81
   5   8  -3    3.97    1.09
  -5  -8   3    5.79    0.73
   5   8  -2    4.63    0.90
  -5  -8   2    4.25    0.75
   5   8  -1   17.54    2.45
  -5  -8   1   15.86    1.28
   5   8   0   48.70    2.86
  -5  -8   0   44.47    2.30
   5   8   1   13.78    2.46
  -5  -8  -1   12.28    1.90
   5   8   2   33.95    2.18
  -5  -8  -2    1.17    0.93
   5   8   3    1.73    1.35
   5   8   3    1.72    0.70
   5   8   4   34.36    3.06
   5   8   4   33.71    2.77
   5   8   5   22.85    1.47
   5   8   6    1.71    0.54
   5   8   7    0.27    0.28
   5   9  -2   31.49    2.31
  -5  -9   2   28.64    1.99
   5   9  -1   11.91    1.86
  -5  -9   1   10.90    1.47
   5   9   0    0.35    0.58
  -5  -9   0    0.60    0.73
   5   9   1   25.97    2.77
  -5  -9  -1   24.15    2.25
   5   9   2   57.12    4.03
  -5  -9  -2   59.31    2.67
   5   9   3   13.19    1.27
  -5  -9  -3   13.10    1.10
   5   9   4    0.32    0.57
  -5  -9  -4    0.12    0.37
   5   9   5   15.95    0.99
   5  10   0    0.51    0.68
   5  10   1   15.74    1.60
  -5 -10  -1   14.23    1.29
   5  10   2    2.43    0.81
  -5 -10  -2    2.20    0.44
   6  -4   2   14.61    1.05
  -6   4  -2   12.29    0.84
  -6   4  -2   12.61    1.18
   6  -4   3    0.71    0.76
  -6   4  -3    0.57    0.32
   6  -4   4    2.92    0.64
   6  -4   5   90.57    4.25
   6  -3   0    1.31    0.54
  -6   3   0    2.30    0.91
  -6   3   0    1.38    0.79
   6  -3   1    4.12    0.81
  -6   3  -1    4.54    1.21
  -6   3  -1    4.12    0.67
   6  -3   2    0.42    0.87
  -6   3  -2    0.33    0.75
  -6   3  -2    0.35    0.69
   6  -3   3    2.01    0.74
  -6   3  -3    1.56    0.53
  -6   3  -3    2.04    0.91
   6  -3   4   35.20    3.18
   6  -3   5  221.69    9.13
  -6   3  -5  194.73    8.23
   6  -3   6    0.55    0.50
  -6   3  -6    0.07    0.76
   6  -3   7    0.84    0.68
  -6   3  -7    0.47    0.42
  -6   2   2  207.14    8.36
  -6   2   2  210.84    8.98
   6  -2  -1   24.36    1.53
  -6   2   1   30.87    2.55
  -6   2   1   32.03    2.36
   6  -2   0    1.69    1.08
  -6   2   0    1.56    0.70
  -6   2   0    1.37    0.63
   6  -2   1   13.68    1.42
  -6   2  -1   13.27    1.33
  -6   2  -1   13.39    1.84
   6  -2   2    1.58    0.81
  -6   2  -2    1.47    0.70
  -6   2  -2    1.45    0.58
   6  -2   3    2.52    1.14
   6  -2   3    3.60    1.52
  -6   2  -3    2.87    1.15
   6  -2   4    0.64    0.56
   6  -2   4    0.52    0.68
   6  -2   5    8.05    1.04
  -6   2  -5   -0.00    1.23
   6  -2   6   98.80    5.71
  -6   2  -6   98.52    5.11
   6  -2   7  254.96   12.01
  -6   2  -7  252.62   13.59
   6  -2   8    0.82    0.79
  -6   2  -8    1.13    1.00
  -6   1   3   26.59    1.95
  -6   1   3   27.31    1.33
  -6   1   2    0.85    0.61
  -6   1   2    1.47    0.86
   6  -1  -1    6.97    1.56
  -6   1   1   10.36    2.22
  -6   1   1    9.79    1.04
   6  -1   0    9.29    1.91
  -6   1   0   11.69    1.62
  -6   1   0   10.79    1.15
   6  -1   1   19.54    2.21
   6  -1   1   19.51    1.80
  -6   1  -1   21.01    1.95
  -6   1  -1   20.43    2.22
   6  -1   2  124.21    5.54
   6  -1   2  121.43    5.90
  -6   1  -2  129.28    6.00
   6  -1   3   13.82    2.17
   6  -1   3   13.54    2.45
  -6   1  -3   13.87    2.07
   6  -1   4    1.34    0.73
   6  -1   4    1.18    0.77
   6  -1   5    3.03    1.41
   6  -1   5    2.08    0.85
   6  -1   6   68.05    3.70
   6  -1   6   69.08    4.65
   6  -1   7   29.05    2.83
  -6   1  -7   26.20    2.60
   6  -1   8   10.14    1.73
  -6   1  -8   10.62    1.58
   6  -1   9   11.87    1.54
  -6   1  -9   12.63    1.12
  -6   0   3    2.20    1.18
  -6   0   3    2.57    0.65
  -6   0   2    4.98    1.21
  -6   0   2    4.56    0.87
   6   0  -1    0.79    1.00
  -6   0   1    0.69    1.55
  -6   0   1    1.92    0.69
   6   0   0   23.28    2.47
  -6   0   0   19.44    2.07
   6   0   1   12.67    1.90
   6   0   1   10.40    1.32
  -6   0  -1   11.65    1.46
   6   0   2   95.32    4.34
   6   0   2  100.80    6.17
  -6   0  -2   94.16    4.39
   6   0   3   62.83    4.25
   6   0   3   61.60    3.20
  -6   0  -3   59.77    3.84
   6   0   4   35.99    2.37
   6   0   4   33.56    3.10
   6   0   5    0.87    0.78
   6   0   5    1.07    0.67
   6   0   6   15.94    2.76
   6   0   6   15.38    1.54
   6   0   7    1.79    1.08
  -6   0  -7   -0.02    0.95
   6   0   8    3.64    1.42
  -6   0  -8    4.21    1.85
   6   0   9    1.17    1.01
  -6   0  -9    2.10    1.23
  -6  -1   4    0.47    0.64
  -6  -1   4    0.45    0.63
   6   1  -3   23.79    2.10
  -6  -1   3   27.34    3.33
  -6  -1   3   27.18    2.34
   6   1  -2   -0.02    0.70
  -6  -1   2    0.35    0.70
  -6  -1   2    0.11    0.72
   6   1  -1   10.72    1.21
  -6  -1   1   10.69    2.65
   6   1   0   27.33    2.74
  -6  -1   0   24.88    2.00
   6   1   1   10.44    2.03
  -6  -1  -1    9.05    1.21
   6   1   2   44.98    2.58
   6   1   2   32.97    1.96
  -6  -1  -2   42.52    2.23
   6   1   3    0.76    0.63
   6   1   3    0.59    0.91
  -6  -1  -3    0.45    0.50
   6   1   4   26.40    2.84
   6   1   4   27.19    1.78
   6   1   5    8.12    2.06
   6   1   5    8.02    1.77
   6   1   6    0.03    0.61
   6   1   6    0.42    0.85
   6   1   7   71.43    3.94
   6   1   7   70.95    3.50
   6   1   8    0.11    0.54
  -6  -1  -8    0.42    0.65
   6   1   9    4.27    0.86
  -6  -1  -9    4.44    1.50
   6   2  -4    1.03    0.44
  -6  -2   4    1.16    0.59
  -6  -2   4    1.33    0.47
   6   2  -3   11.00    1.70
  -6  -2   3   10.80    2.44
  -6  -2   3   10.67    1.67
   6   2  -2   49.79    3.69
  -6  -2   2   47.22    3.10
   6   2  -1    1.09    1.05
  -6  -2   1   -0.10    1.20
   6   2   0   78.41    5.08
  -6  -2   0   76.97    3.71
   6   2   1   27.40    1.98
  -6  -2  -1   26.77    1.78
   6   2   2    1.75    1.25
  -6  -2  -2    0.89    0.58
   6   2   3   25.48    2.87
   6   2   3   19.11    1.95
  -6  -2  -3   24.75    1.51
   6   2   4    0.36    0.60
   6   2   4    0.47    0.77
   6   2   5   55.82    3.09
   6   2   5   52.32    3.63
   6   2   6  166.60    7.53
   6   2   6  162.52    6.94
   6   2   7  200.48    9.21
   6   2   7  209.48   10.27
   6   2   8  169.24    8.56
  -6  -2  -8  158.73    7.12
   6   2   9   20.86    2.28
  -6  -2  -9   22.00    2.27
   6   2  10    0.14    0.58
   6   3  -4    1.49    0.91
  -6  -3   4    1.34    0.64
  -6  -3   4    0.94    0.73
   6   3  -3   18.75    1.56
  -6  -3   3   15.88    1.78
   6   3  -2   21.67    1.86
  -6  -3   2   20.59    1.80
   6   3  -1  162.02    7.48
  -6  -3   1  153.29    6.84
   6   3   0  154.93    7.23
   6   3   1    5.14    0.97
   6   3   1    6.67    1.84
   6   3   2    2.10    0.72
   6   3   2    1.80    1.33
   6   3   3   53.10    2.62
   6   3   3   64.70    3.29
   6   3   4   21.43    1.65
   6   3   4   18.00    1.27
   6   3   5    3.39    0.90
   6   3   5    2.99    1.15
   6   3   6    0.15    0.60
   6   3   6    0.45    0.52
   6   3   7  101.58    4.82
   6   3   7  109.10    5.96
   6   3   8   56.99    3.71
  -6  -3  -8   52.01    3.59
   6   3   9    2.32    0.71
   6   4  -4   49.13    2.46
  -6  -4   4   41.30    3.30
   6   4  -3   26.32    3.00
  -6  -4   3   25.27    2.95
   6   4  -2   19.21    2.90
  -6  -4   2   18.46    1.74
   6   4  -1    2.47    0.83
   6   4  -1    2.48    1.68
   6   4   0    2.94    1.44
   6   4   0    3.94    1.11
   6   4   1    9.98    1.85
   6   4   1   10.46    2.22
   6   4   2  244.52   10.45
   6   4   2  249.25   11.01
   6   4   3    7.86    1.65
   6   4   3   10.06    1.32
   6   4   4  631.56   31.10
   6   4   5   60.45    3.08
   6   4   6   43.20    2.40
   6   4   6   44.17    2.30
   6   4   7   16.52    2.08
   6   4   8    1.87    0.67
   6   4   9    2.34    0.65
   6   5  -4   38.53    2.95
  -6  -5   4   29.87    1.74
   6   5  -3   19.11    2.65
  -6  -5   3   18.29    1.54
   6   5  -2   14.33    1.35
   6   5  -2   13.87    2.58
   6   5  -1    5.86    1.63
   6   5  -1    6.28    2.09
   6   5   0   15.48    1.51
   6   5   0   17.15    1.81
   6   5   1    6.38    1.69
   6   5   1    5.97    1.80
   6   5   2   40.16    3.22
   6   5   2   39.83    2.36
   6   5   3  306.70   15.04
   6   5   3  316.10   14.18
   6   5   4  729.13   35.76
   6   5   4  660.34   33.24
   6   5   7    1.18    0.96
   6   5   8   48.53    3.09
   6   5   9    0.75    0.38
   6   6  -4   19.27    2.20
   6   6  -3  118.97    6.66
   6   6  -2    1.77    1.18
   6   6  -2    1.73    1.39
   6   6  -1    0.71    0.67
   6   6  -1    0.74    1.28
   6   6   0  182.96    9.74
   6   6   0  202.84    9.34
   6   6   1    0.19    0.62
   6   6   1    0.87    0.92
   6   6   2    0.57    0.65
   6   6   2    0.99    0.92
   6   6   3    3.26    0.89
   6   6   4   18.68    2.22
  -6  -6  -8   -0.01    0.19
   6   7  -3    2.43    0.61
  -6  -7   3    0.12    0.61
   6   7  -2    3.49    1.23
   6   7  -2    2.22    0.82
   6   7  -1  138.56    7.44
   6   7  -1  135.87    6.14
   6   7   0   16.59    1.62
   6   7   0   13.76    2.05
   6   7   1   86.22    4.30
   6   7   2  110.66    6.55
   6   7   3    1.77    0.79
   6   7   4   12.28    1.26
   6   8  -2    9.81    1.40
   6   8  -2    6.14    0.64
   6   8  -1   24.59    2.54
   6   8   0   -0.28    0.57
   6   8   1   26.18    1.95
   6   8   2   80.08    5.06
   6   8   3   14.86    1.44
   6   8   4    3.25    0.75
   6   9  -1   32.18    1.64
   6   9   0    5.81    1.39
   6   9   1    4.13    0.85
   6   9   2    0.63    0.51
  -6  -9  -2    0.30    0.50
   6   9   3    5.51    0.59
  -6  -9  -3    0.13    0.34
   7  -2   2    0.35    0.56
  -7   2  -2    0.06    0.48
   7  -2   3    0.34    0.42
   7  -2   4   12.64    1.72
   7  -2   5   12.12    1.09
   7  -2   6   75.62    3.91
  -7   1   0    2.07    0.97
   7  -1   1   28.78    2.34
  -7   1  -1   42.92    2.07
   7  -1   2   29.65    2.28
   7  -1   2   33.60    2.71
  -7   1  -2   37.71    1.97
   7  -1   3    8.46    1.49
   7  -1   3    7.82    1.64
  -7   1  -3    7.90    1.34
   7  -1   4    8.61    1.64
   7  -1   4    7.19    1.09
   7  -1   5   30.20    1.96
   7  -1   5   30.51    2.80
   7  -1   6    0.56    0.79
  -7   1  -6    0.03    0.66
   7  -1   7   48.84    2.26
  -7   1  -7   51.49    4.05
  -7   0   1    1.35    1.05
  -7   0   0    2.26    1.37
   7   0   1    2.51    0.69
  -7   0  -1    2.52    0.92
   7   0   2    1.42    0.70
   7   0   2    1.82    1.09
  -7   0  -2    2.21    0.81
   7   0   3   25.01    2.65
   7   0   3   22.17    1.73
  -7   0  -3   22.52    2.37
   7   0   4   23.81    1.87
   7   0   4   25.33    2.86
   7   0   5    6.59    1.88
   7   0   5    6.53    1.11
   7   0   6   31.55    2.27
   7   0   6   31.01    2.88
   7   0   7    1.65    0.66
  -7   0  -7    2.69    1.03
   7   0   8   12.80    1.07
  -7   0  -8   13.98    2.39
  -7  -1   2    2.65    1.16
   7   1  -1    9.32    0.86
  -7  -1   1   10.65    2.48
   7   1   0    0.71    0.90
  -7  -1   0    0.95    1.25
   7   1   1    3.83    0.88
  -7  -1  -1    4.05    1.09
   7   1   2   39.43    2.36
  -7  -1  -2   36.89    2.38
   7   1   3   16.80    2.47
   7   1   3   14.14    2.08
  -7  -1  -3   14.59    2.03
   7   1   4   47.06    2.86
   7   1   4   44.59    3.70
   7   1   5  110.46    6.71
   7   1   5  109.65    4.95
   7   1   6   27.92    3.23
   7   1   6   25.07    1.69
   7   1   7   33.28    2.07
  -7  -1  -7    0.07    1.70
   7   1   8   24.17    2.20
  -7  -1  -8   27.33    2.95
   7   2  -2   27.83    1.53
  -7  -2   2   24.24    2.87
   7   2  -1  133.52    5.67
  -7  -2   1  116.83    5.88
   7   2   0   23.34    1.88
  -7  -2   0   21.55    3.09
   7   2   1    9.20    1.36
  -7  -2  -1    8.37    1.31
   7   2   2   31.69    3.42
  -7  -2  -2   28.96    1.96
   7   2   3    6.22    1.17
  -7  -2  -3    6.10    1.57
   7   2   4   22.99    2.96
   7   2   4   17.49    2.08
   7   2   5    7.69    2.06
   7   2   5    5.82    0.93
   7   2   6   27.02    2.11
   7   2   6   25.19    2.51
   7   2   7   51.93    3.02
   7   2   7   51.58    2.56
   7   2   8    3.04    0.72
  -7  -2  -8    3.26    0.87
   7   2   9    2.14    0.88
   7   3  -3   25.06    1.26
  -7  -3   3   23.79    2.34
   7   3  -2   -0.00    0.59
  -7  -3   2   -0.06    0.85
   7   3  -1   13.20    2.13
  -7  -3   1   12.66    1.62
   7   3   0   11.81    2.30
  -7  -3   0   11.56    2.21
   7   3   1  164.75    9.28
  -7  -3  -1  143.51    7.94
   7   3   2    2.67    1.12
  -7  -3  -2    4.23    1.47
   7   3   3  157.11    8.74
  -7  -3  -3  157.37    8.11
   7   3   4    6.18    1.91
   7   3   5   21.45    1.89
   7   3   6    2.98    0.92
   7   3   6    2.30    0.70
   7   3   7   44.66    2.64
   7   3   7   45.70    3.17
   7   3   8    7.79    1.42
  -7  -3  -8    7.95    1.50
   7   3   9    4.80    1.00
   7   4  -3    3.23    0.97
  -7  -4   3    2.53    0.73
   7   4  -2   17.17    1.44
  -7  -4   2   16.42    1.68
   7   4  -1    1.53    0.89
  -7  -4   1    5.31    1.59
   7   4   0    0.43    0.76
  -7  -4   0    0.87    0.63
   7   4   1    0.25    2.27
  -7  -4  -1   14.40    1.45
   7   4   2  160.59    7.58
  -7  -4  -2  140.55    6.20
   7   4   3  548.32   29.44
  -7  -4  -3  549.39   26.34
   7   4   4   11.50    1.37
   7   4   5    0.86    0.71
   7   4   6    8.30    1.12
   7   4   7  130.10    6.08
   7   4   8    0.18    0.58
   7   5  -2    4.57    1.45
  -7  -5   2    3.62    1.62
   7   5  -1   22.25    2.85
  -7  -5   1   21.89    1.76
   7   5   0    2.28    0.82
  -7  -5   0    0.18    0.72
   7   5   1    0.32    0.61
   7   5   1    0.95    1.14
   7   5   2    6.47    1.11
   7   5   2    8.13    1.31
   7   5   3   33.37    2.09
   7   5   3   35.49    3.20
   7   5   4   67.21    4.28
   7   5   5   40.23    3.13
   7   6  -2   73.05    3.31
  -7  -6   2   73.26    3.26
   7   6  -1    8.25    0.97
  -7  -6   1    0.09    0.91
   7   6   0   12.96    1.39
   7   6   0   14.17    1.54
   7   6   1   40.97    3.44
   7   6   1   45.38    3.79
   7   6   2   22.59    2.67
   7   6   2   23.89    1.84
   7   6   3   44.16    3.36
   7   6   3   39.19    2.16
   7   7  -1    4.60    0.81
   7   7  -1    4.01    1.21
   7   7   0   89.55    5.24
   7   7   0   96.88    5.37
   7   7   1   41.58    3.28
   7   7   1   38.72    2.11
   7   7   2   52.31    2.70
   7   7   3    6.34    1.54
   7   7   4  124.96    5.85
   7   8   0    0.07    0.64
   7   8   1    5.71    1.46
   7   8   2    0.73    0.53
   7   8   3   27.40    2.30
   8   0   4   13.90    1.03
  -8  -1  -1    1.20    0.82
   8   1   2   15.47    1.66
  -8  -1  -2   14.02    1.65
   8   1   3    5.33    1.25
  -8  -1  -3    3.65    0.57
   8   1   4    2.75    0.79
   8   1   5   10.01    1.81
   8   1   5    6.90    1.10
   8   1   6   17.45    0.97
  -8  -1  -6    0.17    1.40
   8   2   1    2.12    1.04
  -8  -2  -1    2.71    1.36
   8   2   2   37.97    3.06
  -8  -2  -2   37.12    3.27
   8   2   3    0.63    0.58
  -8  -2  -3    0.25    0.47
   8   2   4    1.70    1.30
   8   2   5    3.30    0.91
   8   2   6   14.39    1.48
   8   2   6   11.62    1.31
  -8  -2  -7   78.38    3.66
   8   3   0    9.89    0.93
  -8  -3   0    8.25    1.21
   8   3   1   44.45    2.32
  -8  -3  -1   43.08    2.54
   8   3   2  193.21    8.31
  -8  -3  -2  194.14    9.50
   8   3   3    0.19    1.04
  -8  -3  -3    0.56    0.49
   8   3   4   18.52    1.72
   8   3   5    2.03    0.83
   8   3   6   65.83    4.39
  -8  -3  -7    0.72    0.56
   8   4   0    3.14    1.21
  -8  -4   0    1.57    1.46
   8   4   1    1.91    1.21
  -8  -4  -1    1.82    0.76
   8   4   2   34.95    2.25
  -8  -4  -2   33.44    1.97
   8   4   3    8.78    1.91
  -8  -4  -3    8.71    0.97
   8   4   4  142.53    6.29
   8   4   5    0.87    1.01
   8   4   6    9.87    1.68
   8   5   0   48.20    3.41
  -8  -5   0   43.83    2.41
   8   5   1    0.27    0.84
  -8  -5  -1   -0.37    0.71
   8   5   2    8.68    1.16
  -8  -5  -2    8.07    1.60
   8   5   3    4.22    1.44
  -8  -5  -3    4.40    1.17
   8   5   4  198.42    8.23
   8   5   5   31.54    1.70
   8   6   1   53.93    3.30
  -8  -6  -1   52.09    2.41
   8   6   2   -0.18    0.45
  -8  -6  -2   -0.15    0.40
   8   6   3   88.54    4.55
  -8  -6  -3   86.50    4.26
   8   6   4    7.98    1.16
  -8  -7  -2    0.56    0.41
;
_publcif_funding_html
;
;
loop_
_symmetry_equiv_pos_site_id
_space_group_symop_operation_xyz
1 +X,+Y,+Z
2 -X,-Y,-Z
loop_
_atom_site_label
_atom_site_type_symbol
_atom_site_fract_x
_atom_site_fract_y
_atom_site_fract_z
_atom_site_U_iso_or_equiv
_atom_site_adp_type
_atom_site_occupancy
_atom_site_site_symmetry_multiplicity
_atom_site_calc_flag
_atom_site_refinement_flags
F1 F -0.0249(3) 0.8511(2) 0.6774(2) 0.0399(5) Uani 1 2 d .
F2 F 0.3299(3) 0.6871(2) 0.5790(2) 0.0419(6) Uani 1 2 d .
O1 O 0.2900(4) 0.6727(3) 1.1928(3) 0.0459(7) Uani 1 2 d .
O2 O 0.1510(3) 0.7245(3) 0.8474(2) 0.0276(5) Uani 1 2 d .
N1 N 0.2965(4) 0.8813(3) 0.9457(3) 0.0257(6) Uani 1 2 d .
N2 N 0.2228(4) 0.9593(3) 0.7136(3) 0.0235(6) Uani 1 2 d .
C1 C 0.2319(4) 0.6526(4) 1.0712(3) 0.0233(6) Uani 1 2 d .
C2 C 0.2752(5) 0.5398(4) 1.2813(4) 0.0357(8) Uani 1 2 d .
C3 C 0.2150(5) 0.4440(4) 1.2111(4) 0.0345(7) Uani 1 2 d .
C4 C 0.1868(4) 0.5135(3) 1.0759(3) 0.0169(5) Uani 1 2 d .
C5 C 0.2283(4) 0.7609(3) 0.9472(3) 0.0228(6) Uani 1 2 d .
C6 C 0.2879(4) 0.9857(3) 0.8293(3) 0.0231(6) Uani 1 2 d .
C7 C 0.3460(5) 1.1233(4) 0.8329(4) 0.0303(7) Uani 1 2 d .
C8 C 0.3330(5) 1.2314(4) 0.7197(4) 0.0310(7) Uani 1 2 d .
C9 C 0.2640(5) 1.2028(4) 0.6026(4) 0.0334(7) Uani 1 2 d .
C10 C 0.2107(5) 1.0654(4) 0.6019(3) 0.0308(7) Uani 1 2 d .
B1 B 0.1665(5) 0.8005(4) 0.7012(4) 0.0273(7) Uani 1 2 d .
H1 H 0.30345 0.52125 1.37598 0.0428 Uiso 1 2 calc R
H2 H 0.19455 0.34474 1.24648 0.0413 Uiso 1 2 calc R
H3 H 0.14447 0.47133 1.00273 0.0203 Uiso 1 2 calc R
H4 H 0.39422 1.14198 0.91319 0.0363 Uiso 1 2 calc R
H5 H 0.37128 1.32553 0.72196 0.0372 Uiso 1 2 calc R
H6 H 0.25366 1.27691 0.52405 0.0401 Uiso 1 2 calc R
H7 H 0.16436 1.04433 0.52142 0.0370 Uiso 1 2 calc R
loop_
_atom_site_aniso_label
_atom_site_aniso_U_11
_atom_site_aniso_U_22
_atom_site_aniso_U_33
_atom_site_aniso_U_12
_atom_site_aniso_U_13
_atom_site_aniso_U_23
F1 0.0475(11) 0.0502(11) 0.0498(12) -0.0328(9) -0.0366(9) 0.0274(9)
F2 0.0559(12) 0.0393(10) 0.0299(10) -0.0236(9) -0.0079(8) -0.0020(8)
O1 0.0613(16) 0.0456(14) 0.0488(14) -0.0283(12) -0.0337(12) 0.0181(11)
O2 0.0383(11) 0.0328(11) 0.0277(11) -0.0230(9) -0.0210(9) 0.0110(8)
N1 0.0310(12) 0.0290(12) 0.0231(12) -0.0154(10) -0.0128(10) 0.0078(9)
N2 0.0231(11) 0.0278(12) 0.0221(11) -0.0111(9) -0.0099(9) 0.0070(9)
C1 0.0210(12) 0.0296(14) 0.0228(13) -0.0111(11) -0.0107(10) 0.0063(11)
C2 0.0522(19) 0.0318(16) 0.0267(15) -0.0121(14) -0.0238(14) 0.0107(12)
C3 0.0317(15) 0.0276(14) 0.0421(17) -0.0140(12) -0.0080(13) 0.0103(13)
C4 0.0191(12) 0.0163(11) 0.0224(12) -0.0093(9) -0.0131(10) 0.0007(9)
C5 0.0209(13) 0.0232(13) 0.0229(13) -0.0075(10) -0.0072(10) 0.0030(10)
C6 0.0213(13) 0.0244(13) 0.0223(13) -0.0079(10) -0.0072(10) 0.0037(10)
C7 0.0351(15) 0.0317(15) 0.0300(15) -0.0180(13) -0.0131(12) 0.0072(12)
C8 0.0341(15) 0.0291(14) 0.0351(16) -0.0180(12) -0.0125(13) 0.0092(12)
C9 0.0315(15) 0.0372(17) 0.0352(16) -0.0163(13) -0.0139(13) 0.0185(13)
C10 0.0314(15) 0.0408(17) 0.0296(15) -0.0192(13) -0.0169(12) 0.0168(13)
B1 0.0322(17) 0.0322(17) 0.0256(16) -0.0176(14) -0.0145(13) 0.0082(13)
loop_
_atom_type_symbol
_atom_type_description
_atom_type_scat_dispersion_real
_atom_type_scat_dispersion_imag
_atom_type_scat_source
C C 0.0181 0.0091
;
International Tables for Crystallography
(Vol. C, Tables 4.2.6.8 and 6.1.1.4)
;
H H 0.0000 0.0000
;
International Tables for Crystallography
(Vol. C, Table 6.1.1.4)
;
O O 0.0492 0.0322
;
International Tables for Crystallography
(Vol. C, Tables 4.2.6.8 and 6.1.1.4)
;
N N 0.0311 0.0180
;
International Tables for Crystallography
(Vol. C, Tables 4.2.6.8 and 6.1.1.4)
;
F F 0.0727 0.0534
;
International Tables for Crystallography
(Vol. C, Tables 4.2.6.8 and 6.1.1.4)
;
B B 0.0090 0.0039
;
International Tables for Crystallography
(Vol. C, Tables 4.2.6.8 and 6.1.1.4)
;
loop_
_geom_angle_atom_site_label_1
_geom_angle_atom_site_label_2
_geom_angle_atom_site_label_3
_geom_angle
_geom_angle_publ_flag
C1 O1 C2 105.9(3) yes
C5 O2 B1 121.9(3) yes
C5 N1 C6 118.4(3) yes
C6 N2 C10 120.7(3) yes
C6 N2 B1 120.9(2) yes
C10 N2 B1 118.3(3) yes
O1 C1 C4 111.0(3) yes
O1 C1 C5 124.8(3) yes
C4 C1 C5 124.1(3) yes
O1 C2 C3 108.7(3) yes
C2 C3 C4 108.6(3) yes
C1 C4 C3 105.8(3) yes
O2 C5 N1 127.1(3) yes
O2 C5 C1 114.0(3) yes
N1 C5 C1 118.9(3) yes
N1 C6 N2 121.5(3) yes
N1 C6 C7 118.9(3) yes
N2 C6 C7 119.6(3) yes
C6 C7 C8 119.7(3) yes
C7 C8 C9 119.9(3) yes
C8 C9 C10 118.7(3) yes
N2 C10 C9 121.4(3) yes
F1 B1 F2 111.2(3) yes
F1 B1 O2 110.2(3) yes
F1 B1 N2 109.3(2) yes
F2 B1 O2 109.8(2) yes
F2 B1 N2 108.1(3) yes
O2 B1 N2 108.2(3) yes
O1 C2 H1 125.673 no
C3 C2 H1 125.666 no
C2 C3 H2 125.676 no
C4 C3 H2 125.677 no
C1 C4 H3 127.120 no
C3 C4 H3 127.125 no
C6 C7 H4 120.167 no
C8 C7 H4 120.165 no
C7 C8 H5 120.071 no
C9 C8 H5 120.058 no
C8 C9 H6 120.644 no
C10 C9 H6 120.625 no
N2 C10 H7 119.284 no
C9 C10 H7 119.275 no
loop_
_geom_bond_atom_site_label_1
_geom_bond_atom_site_label_2
_geom_bond_distance
_geom_bond_publ_flag
F1 B1 1.371(5) yes
F2 B1 1.377(3) yes
O1 C1 1.347(5) yes
O1 C2 1.399(4) yes
O2 C5 1.313(4) yes
O2 B1 1.461(4) yes
N1 C5 1.300(5) yes
N1 C6 1.377(4) yes
N2 C6 1.347(4) yes
N2 C10 1.354(4) yes
N2 B1 1.579(5) yes
C1 C4 1.348(4) yes
C1 C5 1.448(4) yes
C2 C3 1.326(6) yes
C3 C4 1.402(4) yes
C6 C7 1.399(5) yes
C7 C8 1.376(4) yes
C8 C9 1.384(6) yes
C9 C10 1.372(5) yes
C2 H1 0.950 no
C3 H2 0.950 no
C4 H3 0.950 no
C7 H4 0.950 no
C8 H5 0.950 no
C9 H6 0.950 no
C10 H7 0.950 no
loop_
_geom_contact_atom_site_label_1
_geom_contact_atom_site_label_2
_geom_contact_distance
_geom_contact_publ_flag
_geom_contact_site_symmetry_2
F1 C5 3.443(4) no .
F1 C6 3.530(4) no .
F1 C10 2.870(4) no .
F2 C5 3.221(3) no .
F2 C6 3.343(4) no .
F2 C10 3.031(4) no .
O1 O2 3.588(4) no .
O1 N1 2.847(4) no .
O2 C4 2.744(3) no .
O2 C6 2.752(4) no .
N1 B1 2.884(5) no .
N2 C5 2.700(4) no .
N2 C8 2.744(5) no .
C3 C5 3.598(4) no .
C5 C7 3.568(5) no .
C6 C9 2.758(4) no .
C7 C10 2.729(5) no .
F1 C3 3.298(4) no 2_567
F1 C10 3.208(4) no 2_576
F2 F2 3.224(2) no 2_666
F2 C2 3.230(4) no 1_554
F2 C2 3.414(4) no 2_667
F2 C8 3.251(4) no 2_676
F2 C9 3.306(4) no 2_676
O1 C4 3.501(3) no 2_667
O1 C8 3.441(5) no 2_677
O1 C9 3.527(4) no 2_577
O1 C10 3.343(3) no 2_577
O2 C7 3.567(3) no 2_577
N1 C3 3.419(3) no 2_667
C1 C1 3.561(3) no 2_667
C1 C9 3.593(3) no 2_577
C2 F2 3.230(4) no 1_556
C2 F2 3.414(4) no 2_667
C2 C5 3.487(3) no 2_667
C2 C9 3.464(4) no 2_577
C3 F1 3.298(4) no 2_567
C3 N1 3.419(3) no 2_667
C3 C5 3.492(4) no 2_667
C3 C9 3.534(3) no 2_577
C4 O1 3.501(3) no 2_667
C4 C4 3.490(4) no 2_567
C4 C8 3.415(3) no 2_577
C5 C2 3.487(3) no 2_667
C5 C3 3.492(4) no 2_667
C5 C6 3.434(3) no 2_577
C6 C5 3.434(3) no 2_577
C7 O2 3.567(3) no 2_577
C8 F2 3.251(4) no 2_676
C8 O1 3.441(5) no 2_677
C8 C4 3.415(3) no 2_577
C9 F2 3.306(4) no 2_676
C9 O1 3.527(4) no 2_577
C9 C1 3.593(3) no 2_577
C9 C2 3.464(4) no 2_577
C9 C3 3.534(3) no 2_577
C9 C10 3.472(4) no 2_676
C10 F1 3.208(4) no 2_576
C10 O1 3.343(3) no 2_577
C10 C9 3.472(4) no 2_676
F1 H7 2.6301 no .
F2 H7 2.9536 no .
O1 H2 3.1326 no .
O1 H3 3.1372 no .
O2 H3 2.5741 no .
N1 H4 2.5709 no .
N2 H4 3.2286 no .
N2 H6 3.2339 no .
C1 H1 3.1089 no .
C1 H2 3.1098 no .
C2 H3 3.1319 no .
C4 H1 3.1349 no .
C5 H3 2.7696 no .
C6 H5 3.2597 no .
C6 H7 3.1981 no .
C7 H6 3.2501 no .
C8 H7 3.2294 no .
C9 H4 3.2483 no .
C10 H5 3.2325 no .
B1 H7 2.6287 no .
H1 H2 2.4336 no .
H2 H3 2.5291 no .
H4 H5 2.3298 no .
H5 H6 2.3437 no .
H6 H7 2.3209 no .
F1 H1 3.4973 no 1_554
F1 H2 2.3913 no 2_567
F1 H6 3.2863 no 2_576
F1 H7 2.3616 no 2_576
F2 H1 2.4673 no 1_554
F2 H1 2.7357 no 2_667
F2 H5 3.2882 no 1_545
F2 H5 2.8425 no 2_676
F2 H6 2.9580 no 2_676
O1 H3 3.5701 no 2_667
O1 H4 3.1299 no 2_677
O1 H5 2.8011 no 2_677
O1 H7 3.4748 no 2_577
O2 H1 3.5599 no 2_667
O2 H2 3.1360 no 2_567
O2 H3 3.1368 no 2_567
O2 H4 3.5350 no 2_577
O2 H5 3.2403 no 1_545
N1 H2 3.2867 no 2_667
N1 H4 2.8686 no 2_677
N2 H6 3.4699 no 2_676
C1 H3 3.5142 no 2_567
C2 H5 3.1569 no 2_677
C2 H6 3.1348 no 1_546
C2 H6 3.3524 no 2_577
C3 H3 3.5973 no 2_567
C3 H4 3.3646 no 1_545
C3 H6 3.2164 no 1_546
C3 H6 3.4285 no 2_577
C4 H3 2.6685 no 2_567
C4 H4 3.1346 no 1_545
C4 H5 3.2593 no 1_545
C4 H5 3.5275 no 2_577
C6 H2 3.5860 no 2_667
C7 H3 2.9907 no 1_565
C8 H3 2.9349 no 1_565
C8 H3 3.5612 no 2_577
C8 H7 3.4726 no 2_676
C9 H1 3.4290 no 1_564
C9 H2 3.5718 no 1_564
B1 H1 3.4934 no 1_554
B1 H2 3.1782 no 2_567
B1 H7 3.5089 no 2_576
H1 F1 3.4973 no 1_556
H1 F2 2.4673 no 1_556
H1 F2 2.7357 no 2_667
H1 O2 3.5599 no 2_667
H1 C9 3.4290 no 1_546
H1 B1 3.4934 no 1_556
H1 H5 2.9761 no 2_677
H1 H6 2.5425 no 1_546
H1 H6 3.5107 no 2_577
H2 F1 2.3913 no 2_567
H2 O2 3.1360 no 2_567
H2 N1 3.2867 no 2_667
H2 C6 3.5860 no 2_667
H2 C9 3.5718 no 1_546
H2 B1 3.1782 no 2_567
H2 H4 3.1381 no 1_545
H2 H6 2.7236 no 1_546
H2 H7 3.5709 no 1_546
H3 O1 3.5701 no 2_667
H3 O2 3.1368 no 2_567
H3 C1 3.5142 no 2_567
H3 C3 3.5973 no 2_567
H3 C4 2.6685 no 2_567
H3 C7 2.9907 no 1_545
H3 C8 2.9349 no 1_545
H3 C8 3.5612 no 2_577
H3 H3 1.9664 no 2_567
H3 H4 2.6901 no 1_545
H3 H5 2.5782 no 1_545
H3 H5 3.5019 no 2_577
H4 O1 3.1299 no 2_677
H4 O2 3.5350 no 2_577
H4 N1 2.8686 no 2_677
H4 C3 3.3646 no 1_565
H4 C4 3.1346 no 1_565
H4 H2 3.1381 no 1_565
H4 H3 2.6901 no 1_565
H4 H4 3.0705 no 2_677
H5 F2 3.2882 no 1_565
H5 F2 2.8425 no 2_676
H5 O1 2.8011 no 2_677
H5 O2 3.2403 no 1_565
H5 C2 3.1569 no 2_677
H5 C4 3.2593 no 1_565
H5 C4 3.5275 no 2_577
H5 H1 2.9761 no 2_677
H5 H3 2.5782 no 1_565
H5 H3 3.5019 no 2_577
H6 F1 3.2863 no 2_576
H6 F2 2.9580 no 2_676
H6 N2 3.4699 no 2_676
H6 C2 3.1348 no 1_564
H6 C2 3.3524 no 2_577
H6 C3 3.2164 no 1_564
H6 C3 3.4285 no 2_577
H6 H1 2.5425 no 1_564
H6 H1 3.5107 no 2_577
H6 H2 2.7236 no 1_564
H7 F1 2.3616 no 2_576
H7 O1 3.4748 no 2_577
H7 C8 3.4726 no 2_676
H7 B1 3.5089 no 2_576
H7 H2 3.5709 no 1_564
H7 H7 2.8833 no 2_576
loop_
_geom_torsion_atom_site_label_1
_geom_torsion_atom_site_label_2
_geom_torsion_atom_site_label_3
_geom_torsion_atom_site_label_4
_geom_torsion
_geom_torsion_publ_flag
C1 O1 C2 C3 1.3(3) no
C2 O1 C1 C4 -1.5(3) no
C2 O1 C1 C5 -178.67(19) no
C5 O2 B1 F1 -135.5(2) no
C5 O2 B1 F2 101.7(3) no
C5 O2 B1 N2 -16.1(3) no
B1 O2 C5 N1 11.0(3) no
B1 O2 C5 C1 -169.80(17) no
C5 N1 C6 N2 -3.9(3) no
C5 N1 C6 C7 175.35(17) no
C6 N1 C5 O2 0.5(3) no
C6 N1 C5 C1 -178.61(16) no
C6 N2 C10 C9 0.0(3) no
C10 N2 C6 N1 178.49(18) no
C10 N2 C6 C7 -0.7(3) no
C6 N2 B1 F1 132.8(2) no
C6 N2 B1 F2 -106.1(3) no
C6 N2 B1 O2 12.8(3) no
B1 N2 C6 N1 -3.7(3) no
B1 N2 C6 C7 177.08(17) no
C10 N2 B1 F1 -49.3(3) no
C10 N2 B1 F2 71.8(3) no
C10 N2 B1 O2 -169.37(19) no
B1 N2 C10 C9 -177.88(19) no
O1 C1 C4 C3 1.1(2) no
O1 C1 C5 O2 -175.18(19) no
O1 C1 C5 N1 4.1(3) no
C4 C1 C5 O2 8.0(3) no
C4 C1 C5 N1 -172.77(19) no
C5 C1 C4 C3 178.27(19) no
O1 C2 C3 C4 -0.7(3) no
C2 C3 C4 C1 -0.2(3) no
N1 C6 C7 C8 -178.30(18) no
N2 C6 C7 C8 1.0(3) no
C6 C7 C8 C9 -0.4(4) no
C7 C8 C9 C10 -0.3(4) no
C8 C9 C10 N2 0.5(4) no
