#------------------------------------------------------------------------------
#$Date: 2019-11-01 18:04:39 +0200 (Fri, 01 Nov 2019) $
#$Revision: 220620 $
#$URL: file:///home/coder/svn-repositories/cod/cif/1/55/25/1552549.cif $
#------------------------------------------------------------------------------
#
# This file is available in the Crystallography Open Database (COD),
# http://www.crystallography.net/
#
# All data on this site have been placed in the public domain by the
# contributors.
#
data_1552549
loop_
_publ_author_name
'Soe, Eaindar'
'Ehlke, Beatriz'
'Oliver, Scott R. J.'
_publ_section_title
;
 A Cationic Silver Pyrazine Coordination Polymer with High Capacity Anion
 Uptake from Water.
;
_journal_issue                   13
_journal_name_full               'Environmental science &amp; technology'
_journal_page_first              7663
_journal_page_last               7672
_journal_paper_doi               10.1021/acs.est.9b01633
_journal_volume                  53
_journal_year                    2019
_chemical_formula_sum            'C4 H4 Ag N3 O3'
_chemical_formula_weight         249.97
_space_group_crystal_system      triclinic
_space_group_IT_number           2
_space_group_name_Hall           '-P 1'
_space_group_name_H-M_alt        'P -1'
_symmetry_space_group_name_Hall  '-P 1'
_symmetry_space_group_name_H-M   'P -1'
_atom_sites_solution_hydrogens   geom
_atom_sites_solution_primary     heavy
_atom_sites_solution_secondary   difmap
_audit_creation_method           SHELXL-2017/1
_cell_angle_alpha                90.147(11)
_cell_angle_beta                 95.880(14)
_cell_angle_gamma                90.159(19)
_cell_formula_units_Z            2
_cell_length_a                   3.4831(7)
_cell_length_b                   6.4226(12)
_cell_length_c                   14.177(3)
_cell_measurement_reflns_used    2358
_cell_measurement_temperature    120(2)
_cell_measurement_theta_max      28.79
_cell_measurement_theta_min      3.17
_cell_volume                     315.48(11)
_computing_cell_refinement       'Bruker SAINT'
_computing_data_collection       'Bruker APEX3'
_computing_data_reduction        'Bruker SAINT'
_computing_molecular_graphics    'Bruker SHELXTL'
_computing_publication_material  'Bruker SHELXTL'
_computing_structure_refinement  'SHELXL-2017/1 (Sheldrick, 2017)'
_computing_structure_solution    'SHELXS-97 (Sheldrick 2008)'
_diffrn_ambient_temperature      120(2)
_diffrn_measured_fraction_theta_full 0.992
_diffrn_measured_fraction_theta_max 0.983
_diffrn_measurement_device_type  'Bruker APEX-II CCD'
_diffrn_measurement_method       '\f and \w scans'
_diffrn_radiation_type           MoK\a
_diffrn_radiation_wavelength     0.71073
_diffrn_reflns_av_unetI/netI     0.0453
_diffrn_reflns_Laue_measured_fraction_full 0.992
_diffrn_reflns_Laue_measured_fraction_max 0.983
_diffrn_reflns_limit_h_max       4
_diffrn_reflns_limit_h_min       -4
_diffrn_reflns_limit_k_max       8
_diffrn_reflns_limit_k_min       -8
_diffrn_reflns_limit_l_max       3
_diffrn_reflns_limit_l_min       -19
_diffrn_reflns_number            1580
_diffrn_reflns_point_group_measured_fraction_full 0.992
_diffrn_reflns_point_group_measured_fraction_max 0.983
_diffrn_reflns_theta_full        25.242
_diffrn_reflns_theta_max         28.833
_diffrn_reflns_theta_min         3.172
_exptl_absorpt_coefficient_mu    3.147
_exptl_absorpt_correction_T_max  0.745763
_exptl_absorpt_correction_T_min  0.457561
_exptl_absorpt_correction_type   multi-scan
_exptl_absorpt_process_details   TWINABS
_exptl_crystal_colour            colorless
_exptl_crystal_density_diffrn    2.632
_exptl_crystal_description       plate
_exptl_crystal_F_000             240
_refine_diff_density_max         2.343
_refine_diff_density_min         -2.519
_refine_diff_density_rms         0.286
_refine_ls_extinction_method     none
_refine_ls_goodness_of_fit_ref   1.155
_refine_ls_hydrogen_treatment    constr
_refine_ls_matrix_type           full
_refine_ls_number_parameters     101
_refine_ls_number_reflns         1580
_refine_ls_number_restraints     36
_refine_ls_restrained_S_all      1.143
_refine_ls_R_factor_all          0.0541
_refine_ls_R_factor_gt           0.0484
_refine_ls_shift/su_max          0.000
_refine_ls_shift/su_mean         0.000
_refine_ls_structure_factor_coef Fsqd
_refine_ls_weighting_details
'w=1/[\s^2^(Fo^2^)+(0.0485P)^2^+3.4057P] where P=(Fo^2^+2Fc^2^)/3'
_refine_ls_weighting_scheme      calc
_refine_ls_wR_factor_gt          0.1130
_refine_ls_wR_factor_ref         0.1181
_reflns_Friedel_coverage         0.000
_reflns_number_gt                1501
_reflns_number_total             1580
_reflns_threshold_expression     'I > 2\s(I)'
_cod_data_source_file            es9b01633_si_002.cif
_cod_data_source_block           twin5_full
_cod_depositor_comments
;
The following automatic conversions were performed:

'_atom_sites_solution_secondary' value 'diffmap' was changed to
'difmap'.

Automatic conversion script
Id: cif_fix_values 4973 2017-02-22 13:04:09Z antanas 
;
_cod_database_code               1552549
_shelx_shelxl_version_number     2017/1
_shelx_space_group_comment
;
The symmetry employed for this shelxl refinement is uniquely defined
by the following loop, which should always be used as a source of
symmetry information in preference to the above space-group names.
They are only intended as comments.
;
_shelx_res_file
;
TITL twin5            P -1         R  New: P-1
    twin5_full.res
    created by SHELXL-2017/1 at 10:25:18 on 23-Sep-2018
CELL  0.71073    3.4831    6.4226   14.1770    90.147    95.880    90.159
ZERR        2    0.0007    0.0012    0.0030     0.011     0.014     0.019
LATT   1
SFAC  C Ag  N  O H
UNIT     8    2   6   6 8
TEMP  -153

L.S. 10
FMAP 2
PLAN -5
ACTA
BOND $H
CONF

RIGU N1c o1c o2c o3c
SIMU N1c o1c o2c o3c

WGHT    0.048500    3.405700
BASF   0.33508
FVAR       0.80090
AG1   2   -1.061659    0.106631   -0.750289    11.00000    0.03189    0.01498 =
         0.00686    0.00201    0.00884    0.00149
O1C   4   -1.593142    0.445765   -0.678783    11.00000    0.03111    0.00831 =
         0.01956    0.01038    0.01185    0.00241
O2C   4   -1.362469    0.446197   -0.815970    11.00000    0.02686    0.02007 =
         0.01226   -0.00192    0.00818    0.00640
O3C   4   -1.547707    0.733989   -0.755631    11.00000    0.02800    0.00906 =
         0.02012    0.00284    0.01436    0.00272
N1C   3   -1.501057    0.543738   -0.750385    11.00000    0.01334    0.00884 =
         0.01080    0.00438   -0.00031    0.00305
N1    3   -1.022622    0.042772   -0.596424    11.00000    0.00939    0.01180 =
         0.01286    0.00145    0.00650    0.00193
N2    3   -1.018302    0.042872   -0.903459    11.00000    0.01278    0.01331 =
         0.01170    0.00282    0.00765    0.00622
C1    1   -1.088404    0.188841   -0.532236    11.00000    0.01522    0.00933 =
         0.01618    0.00038    0.00545    0.00067
AFIX  43
H1    5   -1.152307    0.325639   -0.553682    11.00000   -1.20000
AFIX   0
C2    1   -1.066827    0.148074   -0.435879    11.00000    0.01225    0.01195 =
         0.01114    0.00313    0.00612    0.00126
AFIX  43
H2    5   -1.115693    0.255950   -0.392759    11.00000   -1.20000
AFIX   0
C3    1   -1.088432   -0.150589   -0.940309    11.00000    0.00953    0.01439 =
         0.01403    0.00440    0.00764   -0.00015
AFIX  43
H3    5   -1.153144   -0.259935   -0.899743    11.00000   -1.20000
AFIX   0
C4    1   -0.932103    0.192486   -0.964229    11.00000    0.01488    0.01051 =
         0.01102    0.00338    0.00361    0.00253
AFIX  43
H4    5   -0.884132    0.330150   -0.941231    11.00000   -1.20000
AFIX   0
HKLF 5 1 0.3333 0.3333 0.0000 0.6667 -0.3333 0.0000 -0.3333 -0.3333 -1.0000




REM  twin5            P -1         R  New: P-1
REM R1 =  0.0484 for    1501 Fo > 4sig(Fo)  and  0.0541 for all    1580 data
REM    101 parameters refined using     36 restraints

END

WGHT      0.0485      3.4057

REM Highest difference peak  2.343,  deepest hole -2.519,  1-sigma level  0.286
Q1    1  -1.3114  0.1324 -0.7634  11.00000  0.05    2.34
Q2    1  -0.8146  0.0841 -0.7292  11.00000  0.05    1.99
Q3    1  -1.0117  0.0330 -0.7633  11.00000  0.05    1.24
Q4    1  -1.1126  0.1801 -0.7366  11.00000  0.05    1.02
Q5    1  -1.2353  0.0340 -0.8206  11.00000  0.05    1.01
;
_shelx_res_checksum              43526
_shelx_hkl_file
;
   1   0   0 -0.6987 3.16841   1
   2   0   0 -2.0623 3.89551   1
  -1   4   0 1920.03 38.3772  -2
   3   0   0 1920.03 38.3772   1
  -1   5   0 -25.939 21.7715  -2
   4   0   0 -25.939 21.7715   1
  -2   7   0 6.19377 10.3294  -2
   5   0   0 6.19377 10.3294   1
  -2   8   0 335.243 15.1321  -2
   6   0   0 335.243 15.1321   1
  -2   9   0 12.9445 38.9467  -2
   7   0   0 12.9445 38.9467   1
  -3  11   0 -1.5021 19.9851  -2
   8   0   0 -1.5021 19.9851   1
  -3  12   0 198.281 23.2352  -2
   9   0   0 198.281 23.2352   1
  -4  12   0 72.4425 33.1315  -2
  -9   1   0 72.4425 33.1315   1
  -8   1   0 8.90702 30.9139   1
  -3   9   0 673.694 19.8787  -2
  -7   1   0 673.694 19.8787   1
  -3   8   0 -4.2550 12.3745  -2
  -6   1   0 -4.2550 12.3745   1
  -2   6   0 10.3974 26.4541  -2
  -5   1   0 10.3974 26.4541   1
  -2   5   0 1769.39 34.1334  -2
  -4   1   0 1769.39 34.1334   1
  -3   1   0 0.98120 3.76383   1
  -2   1   0 -0.4070 3.26973   1
  -1   1   0 3280.15 83.4959  -2
  -1   1   0 3280.15 83.4959   1
   1   1   0 5.81514 5.19155   1
   0   3   0 1054.32 19.2759  -2
   2   1   0 1054.32 19.2759   1
   3   1   0 -6.7766 5.91547   1
  -1   6   0 20.6129 22.8323  -2
   4   1   0 20.6129 22.8323   1
  -1   7   0 596.189 18.8718  -2
   5   1   0 596.189 18.8718   1
  -1   8   0 -18.919 30.5986  -2
   6   1   0 -18.919 30.5986   1
  -2  10   0 -1.3396 14.3172  -2
   7   1   0 -1.3396 14.3172   1
  -2  11   0 289.711 21.9180  -2
   8   1   0 289.711 21.9180   1
   9   1   0 35.0603 32.8875   1
  -9   2   0 -49.314 35.2318   1
  -4  10   0 426.714 20.9077  -2
  -8   2   0 426.714 20.9077   1
  -4   9   0 -24.190 14.6801  -2
  -7   2   0 -24.190 14.6801   1
  -6   2   0 -3.4801 9.91311   1
  -3   6   0 1279.63 23.6547  -2
  -5   2   0 1279.63 23.6547   1
  -4   2   0 0.91213 4.68901   1
  -3   2   0 1.76860 3.23620   1
  -2   2   0 652.463 11.0033  -2
  -2   2   0 652.463 11.0033   1
   1   2   0 528.894 13.2059  -2
   1   2   0 528.894 13.2059   1
   2   2   0 5.70025 4.79644   1
   3   2   0 15.9206 9.97650   1
   0   6   0 648.927 18.2095  -2
   4   2   0 648.927 18.2095   1
   5   2   0 -2.7098 15.4756   1
  -1   9   0 -7.0181 14.3657  -2
   6   2   0 -7.0181 14.3657   1
  -1  10   0 373.082 21.3354  -2
   7   2   0 373.082 21.3354   1
   8   2   0 2.23518 27.6710   1
   9   2   0 -1.8496 42.7488   1
  -5  11   0 123.362 18.2431  -2
  -9   3   0 123.362 18.2431   1
  -5  10   0 -22.829 18.5791  -2
  -8   3   0 -22.829 18.5791   1
  -7   3   0 -0.3860 12.4925   1
  -4   7   0 209.820 8.45142  -2
  -6   3   0 209.820 8.45142   1
  -5   3   0 4.90625 5.58434   1
  -4   3   0 2.28342 4.72315   1
  -3   3   0 1768.41 30.2533  -2
  -3   3   0 1768.41 30.2533   1
  -2   3   0 -0.0776 4.79898   1
  -1   3   0 -6.9803 4.57126   1
   2   1   0 1597.91 44.6150  -2
   0   3   0 1597.91 44.6150   1
   1   3   0 -2.8742 4.32553   1
   2   3   0 -1.0459 9.01605   1
   1   5   0 762.518 20.0830  -2
   3   3   0 762.518 20.0830   1
   4   3   0 10.1182 13.7611   1
   0   8   0 -18.738 12.7927  -2
   5   3   0 -18.738 12.7927   1
   0   9   0 255.793 14.4171  -2
   6   3   0 255.793 14.4171   1
   7   3   0 -9.6698 24.0724   1
  -1  12   0 3.29877 26.7720  -2
   8   3   0 3.29877 26.7720   1
  -6  11   0 15.3451 21.8029  -2
  -9   4   0 15.3451 21.8029   1
  -8   4   0 -14.975 20.9232   1
  -5   8   0 337.537 13.5285  -2
  -7   4   0 337.537 13.5285   1
  -6   4   0 -2.1630 6.93457   1
  -5   4   0 0.96520 5.82217   1
  -4   4   0 951.414 17.9004  -2
  -4   4   0 951.414 17.9004   1
  -3   4   0 -7.1093 4.38710   1
  -2   4   0 -0.0590 5.38181   1
   3   0   0 2031.62 46.2914  -2
  -1   4   0 2031.62 46.2914   1
   0   4   0 2.96698 5.05202   1
   1   4   0 -0.4233 4.68080   1
   2   4   0 555.484 13.1742  -2
   2   4   0 555.484 13.1742   1
   3   4   0 3.34447 6.99328   1
   1   7   0 5.84813 10.7087  -2
   4   4   0 5.84813 10.7087   1
   1   8   0 50.6967 10.6360  -2
   5   4   0 50.6967 10.6360   1
   6   4   0 -4.8608 21.6682   1
   0  11   0 -4.9215 18.0200  -2
   7   4   0 -4.9215 18.0200   1
   0  12   0 18.6580 29.2984  -2
   8   4   0 18.6580 29.2984   1
  -9   5   0 24.9542 23.7937   1
  -6   9   0 484.023 23.1087  -2
  -8   5   0 484.023 23.1087   1
  -7   5   0 3.68187 8.18145   1
  -6   5   0 -0.7498 7.11764   1
  -5   5   0 1092.56 21.8345  -2
  -5   5   0 1092.56 21.8345   1
  -4   5   0 -6.8151 6.42945   1
  -4   2   0 1.81245 17.7736  -2
  -3   5   0 1.81245 17.7736   1
  -4   1   0 1251.17 27.5618  -2
  -2   5   0 1251.17 27.5618   1
   4   0   0 25.2617 14.7042  -2
  -1   5   0 25.2617 14.7042   1
   0   5   0 4.15775 5.62398   1
   3   3   0 428.681 12.2924  -2
   1   5   0 428.681 12.2924   1
   3   4   0 -9.9147 11.9787  -2
   2   5   0 -9.9147 11.9787   1
   2   6   0 10.1230 8.09841  -2
   3   5   0 10.1230 8.09841   1
   2   7   0 447.487 15.2867  -2
   4   5   0 447.487 15.2867   1
   2   8   0 45.2471 20.2568  -2
   5   5   0 45.2471 20.2568   1
   1  10   0 -0.1808 16.1401  -2
   6   5   0 -0.1808 16.1401   1
   1  11   0 208.611 29.4643  -2
   7   5   0 208.611 29.4643   1
  -7  10   0 256.649 21.0797  -2
  -9   6   0 256.649 21.0797   1
  -7   9   0 -5.5638 32.5903  -2
  -8   6   0 -5.5638 32.5903   1
  -7   6   0 -14.918 8.73239   1
  -6   6   0 370.334 11.1922  -2
  -6   6   0 370.334 11.1922   1
  -5   6   0 -3.4894 8.09640   1
  -4   6   0 -3.3146 7.39462   1
  -5   2   0 665.767 14.7691  -2
  -3   6   0 665.767 14.7691   1
  -2   6   0 -5.5524 7.10485   1
   4   1   0 9.49103 12.9913  -2
  -1   6   0 9.49103 12.9913   1
   4   2   0 572.470 15.4977  -2
   0   6   0 572.470 15.4977   1
   4   3   0 -6.8528 13.0706  -2
   1   6   0 -6.8528 13.0706   1
   3   5   0 -1.4002 8.95708  -2
   2   6   0 -1.4002 8.95708   1
   3   6   0 351.563 11.8543  -2
   3   6   0 351.563 11.8543   1
   4   6   0 -18.814 18.6368   1
   2   9   0 3.87446 12.1988  -2
   5   6   0 3.87446 12.1988   1
   2  10   0 222.572 26.8734  -2
   6   6   0 222.572 26.8734   1
   7   6   0 -3.3990 32.7410   1
  -9   7   0 13.1065 13.7501   1
  -8   7   0 8.25327 12.4780   1
  -7   7   0 64.5967 11.7229  -2
  -7   7   0 64.5967 11.7229   1
  -6   7   0 -27.702 9.43718   1
  -5   7   0 -5.4339 8.66426   1
  -6   3   0 128.467 7.37545  -2
  -4   7   0 128.467 7.37545   1
  -6   2   0 -2.9898 19.3197  -2
  -3   7   0 -2.9898 19.3197   1
   5   0   0 -12.082 9.46586  -2
  -2   7   0 -12.082 9.46586   1
   5   1   0 753.113 19.8485  -2
  -1   7   0 753.113 19.8485   1
   5   2   0 -11.954 15.5178  -2
   0   7   0 -11.954 15.5178   1
   4   4   0 -8.0782 7.96761  -2
   1   7   0 -8.0782 7.96761   1
   4   5   0 757.117 21.0679  -2
   2   7   0 757.117 21.0679   1
   4   6   0 -6.1357 18.4748  -2
   3   7   0 -6.1357 18.4748   1
   3   8   0 -0.2587 14.2384  -2
   4   7   0 -0.2587 14.2384   1
   3   9   0 79.6801 22.7426  -2
   5   7   0 79.6801 22.7426   1
   6   7   0 -12.186 31.0523   1
  -9   8   0 -0.7251 16.1730   1
  -8   8   0 31.4560 14.0091  -2
  -8   8   0 31.4560 14.0091   1
  -7   8   0 -3.0414 9.45646   1
  -7   5   0 -10.568 16.8044  -2
  -6   8   0 -10.568 16.8044   1
  -7   4   0 430.886 15.2374  -2
  -5   8   0 430.886 15.2374   1
  -7   3   0 -24.477 27.9286  -2
  -4   8   0 -24.477 27.9286   1
  -6   1   0 -10.161 8.97287  -2
  -3   8   0 -10.161 8.97287   1
   6   0   0 456.614 14.5551  -2
  -2   8   0 456.614 14.5551   1
   6   1   0 2.41516 19.6856  -2
  -1   8   0 2.41516 19.6856   1
   5   3   0 -3.8222 8.48309  -2
   0   8   0 -3.8222 8.48309   1
   5   4   0 76.4615 10.2954  -2
   1   8   0 76.4615 10.2954   1
   2   8   0 -16.517 26.5241   1
   4   7   0 -2.9604 15.9668  -2
   3   8   0 -2.9604 15.9668   1
   4   8   0 19.1354 12.8866  -2
   4   8   0 19.1354 12.8866   1
   5   8   0 7.41557 30.3840   1
  -8   9   0 -18.648 13.6854   1
  -8   6   0 -3.1367 15.9088  -2
  -7   9   0 -3.1367 15.9088   1
  -8   5   0 505.660 22.3247  -2
  -6   9   0 505.660 22.3247   1
  -8   4   0 -22.796 28.0396  -2
  -5   9   0 -22.796 28.0396   1
  -7   2   0 -7.0499 11.7450  -2
  -4   9   0 -7.0499 11.7450   1
  -7   1   0 560.196 21.6939  -2
  -3   9   0 560.196 21.6939   1
   7   0   0 16.3895 24.4573  -2
  -2   9   0 16.3895 24.4573   1
   6   2   0 -6.0393 9.75029  -2
  -1   9   0 -6.0393 9.75029   1
   6   3   0 118.671 12.1215  -2
   0   9   0 118.671 12.1215   1
   1   9   0 22.4693 29.1035   1
   5   6   0 -5.5646 12.9436  -2
   2   9   0 -5.5646 12.9436   1
   5   7   0 160.751 15.1073  -2
   3   9   0 160.751 15.1073   1
   4   9   0 -46.936 46.4263   1
  -9   6   0 200.400 25.2481  -2
  -7  10   0 200.400 25.2481   1
  -6  10   0 16.5749 13.7335   1
  -8   3   0 5.66880 17.0876  -2
  -5  10   0 5.66880 17.0876   1
  -8   2   0 212.617 16.6459  -2
  -4  10   0 212.617 16.6459   1
  -8   1   0 -42.416 27.4210  -2
  -3  10   0 -42.416 27.4210   1
   7   1   0 -7.2475 11.9604  -2
  -2  10   0 -7.2475 11.9604   1
   7   2   0 571.113 23.1595  -2
  -1  10   0 571.113 23.1595   1
   7   3   0 21.4891 26.2478  -2
   0  10   0 21.4891 26.2478   1
   6   5   0 -1.4199 13.1509  -2
   1  10   0 -1.4199 13.1509   1
   6   6   0 269.096 17.3966  -2
   2  10   0 269.096 17.3966   1
   3  10   0 -23.618 49.5628   1
  -7  11   0 4.84268 16.8082   1
  -9   4   0 2.19040 25.1876  -2
  -6  11   0 2.19040 25.1876   1
  -9   3   0 184.880 24.7204  -2
  -5  11   0 184.880 24.7204   1
  -9   2   0 -70.127 33.3451  -2
  -4  11   0 -70.127 33.3451   1
   8   0   0 -13.336 15.5539  -2
  -3  11   0 -13.336 15.5539   1
   8   1   0 297.691 19.1515  -2
  -2  11   0 297.691 19.1515   1
   8   2   0 1.07403 30.3452  -2
  -1  11   0 1.07403 30.3452   1
   7   4   0 -22.434 14.0074  -2
   0  11   0 -22.434 14.0074   1
   7   5   0 204.061 17.3787  -2
   1  11   0 204.061 17.3787   1
   2  11   0 22.4388 50.6999   1
  -5  12   0 7.06445 14.9217   1
  -9   1   0 -5.7862 20.7140  -2
  -4  12   0 -5.7862 20.7140   1
   9   0   0 302.755 20.8758  -2
  -3  12   0 302.755 20.8758   1
   9   1   0 13.3585 33.6060  -2
  -2  12   0 13.3585 33.6060   1
   8   3   0 -22.034 18.9477  -2
  -1  12   0 -22.034 18.9477   1
   8   4   0 -0.7196 16.1546  -2
   0  12   0 -0.7196 16.1546   1
  -7  -6   1 -39.398 22.4257  -2
  -1 -12   1 -39.398 22.4257   1
  -8  -4   1 133.679 17.5552  -2
   0 -12   1 133.679 17.5552   1
  -8  -3   1 3.44663 19.5329  -2
   1 -12   1 3.44663 19.5329   1
  -9  -1   1 -23.946 32.8262  -2
   2 -12   1 -23.946 32.8262   1
  -9   0   1 95.6921 17.9242  -2
   3 -12   1 95.6921 17.9242   1
  -9   1   1 -12.309 18.1810  -2
   4 -12   1 -12.309 18.1810   1
   5 -12   1 -13.181 15.2239   1
  -2 -11   1 -7.0020 52.0678   1
  -7  -5   1 132.184 16.1042  -2
  -1 -11   1 132.184 16.1042   1
  -7  -4   1 -25.456 14.3214  -2
   0 -11   1 -25.456 14.3214   1
  -8  -2   1 -15.379 30.2801  -2
   1 -11   1 -15.379 30.2801   1
  -8  -1   1 55.8688 15.5712  -2
   2 -11   1 55.8688 15.5712   1
  -8   0   1 -11.423 15.7905  -2
   3 -11   1 -11.423 15.7905   1
  -9   2   1 -18.495 34.4351  -2
   4 -11   1 -18.495 34.4351   1
  -9   3   1 238.408 26.2157  -2
   5 -11   1 238.408 26.2157   1
  -9   4   1 -21.739 18.0430  -2
   6 -11   1 -21.739 18.0430   1
   7 -11   1 0.05498 16.1452   1
  -3 -10   1 18.7674 53.2800   1
  -6  -6   1 11.4889 12.9925  -2
  -2 -10   1 11.4889 12.9925   1
  -6  -5   1 2.58194 13.1688  -2
  -1 -10   1 2.58194 13.1688   1
  -7  -3   1 20.0088 24.7142  -2
   0 -10   1 20.0088 24.7142   1
  -7  -2   1 359.134 18.5656  -2
   1 -10   1 359.134 18.5656   1
  -7  -1   1 -15.896 11.2715  -2
   2 -10   1 -15.896 11.2715   1
  -8   1   1 -21.777 28.7887  -2
   3 -10   1 -21.777 28.7887   1
  -8   2   1 178.629 16.0810  -2
   4 -10   1 178.629 16.0810   1
  -8   3   1 8.35306 17.0042  -2
   5 -10   1 8.35306 17.0042   1
  -9   5   1 30.6075 32.2822  -2
   6 -10   1 30.6075 32.2822   1
  -9   6   1 104.954 16.2564  -2
   7 -10   1 104.954 16.2564   1
  -4  -9   1 -66.503 48.1920   1
  -5  -7   1 101.391 13.7340  -2
  -3  -9   1 101.391 13.7340   1
  -5  -6   1 -13.862 12.4765  -2
  -2  -9   1 -13.862 12.4765   1
  -1  -9   1 -2.4016 26.3498   1
  -6  -3   1 327.476 15.9664  -2
   0  -9   1 327.476 15.9664   1
  -6  -2   1 4.93807 9.98929  -2
   1  -9   1 4.93807 9.98929   1
  -7   0   1 19.8634 21.5966  -2
   2  -9   1 19.8634 21.5966   1
  -7   1   1 416.949 18.9544  -2
   3  -9   1 416.949 18.9544   1
  -7   2   1 -6.9517 11.7266  -2
   4  -9   1 -6.9517 11.7266   1
  -8   4   1 17.0278 28.7169  -2
   5  -9   1 17.0278 28.7169   1
  -8   5   1 50.6897 14.2776  -2
   6  -9   1 50.6897 14.2776   1
  -8   6   1 -5.0922 16.0713  -2
   7  -9   1 -5.0922 16.0713   1
   8  -9   1 9.88013 13.3130   1
  -5  -8   1 -5.8962 30.3671   1
  -4  -8   1 293.174 17.0686  -2
  -4  -8   1 293.174 17.0686   1
  -4  -7   1 4.12973 16.7318  -2
  -3  -8   1 4.12973 16.7318   1
  -2  -8   1 -22.173 26.7173   1
  -5  -4   1 393.387 13.8915  -2
  -1  -8   1 393.387 13.8915   1
  -5  -3   1 -5.1176 8.60476  -2
   0  -8   1 -5.1176 8.60476   1
  -6  -1   1 4.46486 19.7880  -2
   1  -8   1 4.46486 19.7880   1
  -6   0   1 489.896 15.4862  -2
   2  -8   1 489.896 15.4862   1
  -6   1   1 -5.0032 9.66291  -2
   3  -8   1 -5.0032 9.66291   1
  -7   3   1 -2.0724 26.8739  -2
   4  -8   1 -2.0724 26.8739   1
  -7   4   1 73.0389 8.66053  -2
   5  -8   1 73.0389 8.66053   1
  -7   5   1 -6.4726 17.3024  -2
   6  -8   1 -6.4726 17.3024   1
   7  -8   1 -11.620 12.3427   1
  -8   8   1 310.452 19.2698  -2
   8  -8   1 310.452 19.2698   1
  -6  -7   1 -11.032 30.9258   1
  -3  -9   1 113.986 18.2176  -2
  -5  -7   1 113.986 18.2176   1
  -3  -8   1 15.0663 14.7753  -2
  -4  -7   1 15.0663 14.7753   1
  -3  -7   1 4.37001 18.7857   1
  -4  -5   1 212.586 10.4815  -2
  -2  -7   1 212.586 10.4815   1
  -4  -4   1 -10.032 7.94846  -2
  -1  -7   1 -10.032 7.94846   1
  -5  -2   1 2.57359 16.2077  -2
   0  -7   1 2.57359 16.2077   1
  -5  -1   1 494.531 14.6496  -2
   1  -7   1 494.531 14.6496   1
  -5   0   1 2.98044 9.89951  -2
   2  -7   1 2.98044 9.89951   1
  -6   2   1 -6.9491 22.0223  -2
   3  -7   1 -6.9491 22.0223   1
  -6   3   1 512.875 13.6756  -2
   4  -7   1 512.875 13.6756   1
  -6   4   1 31.4941 39.1637  -2
   5  -7   1 31.4941 39.1637   1
   6  -7   1 -7.5735 10.0513   1
  -7   7   1 405.587 19.3684  -2
   7  -7   1 405.587 19.3684   1
   8  -7   1 -22.096 13.7728   1
   9  -7   1 -2.2898 14.2744   1
  -7  -6   1 -30.012 31.9902   1
  -2 -10   1 14.1658 17.2294  -2
  -6  -6   1 14.1658 17.2294   1
  -2  -9   1 2.33027 15.0329  -2
  -5  -6   1 2.33027 15.0329   1
  -4  -6   1 -6.0465 19.5260   1
  -3  -6   1 98.4963 8.06849  -2
  -3  -6   1 98.4963 8.06849   1
  -3  -5   1 2.70931 7.58090  -2
  -2  -6   1 2.70931 7.58090   1
  -4  -3   1 -5.1924 13.2999  -2
  -1  -6   1 -5.1924 13.2999   1
  -4  -2   1 672.921 17.5782  -2
   0  -6   1 672.921 17.5782   1
  -4  -1   1 -16.380 12.2857  -2
   1  -6   1 -16.380 12.2857   1
  -5   1   1 15.4244 18.3142  -2
   2  -6   1 15.4244 18.3142   1
  -5   2   1 1865.47 38.2713  -2
   3  -6   1 1865.47 38.2713   1
   4  -6   1 3.67651 10.9757   1
   5  -6   1 5.61467 8.16347   1
  -6   6   1 385.356 11.3307  -2
   6  -6   1 385.356 11.3307   1
   7  -6   1 -0.0207 10.2979   1
   8  -6   1 7.77767 12.9052   1
  -7  10   1 174.725 18.7265  -2
   9  -6   1 174.725 18.7265   1
  -1 -11   1 98.2887 28.0848  -2
  -7  -5   1 98.2887 28.0848   1
  -2  -8   1 14.0717 17.5577  -2
  -5  -5   1 14.0717 17.5577   1
  -2  -7   1 301.907 13.9988  -2
  -4  -5   1 301.907 13.9988   1
  -2  -6   1 -1.3832 10.2767  -2
  -3  -5   1 -1.3832 10.2767   1
  -3  -4   1 -2.5534 11.2607  -2
  -2  -5   1 -2.5534 11.2607   1
  -3  -3   1 518.470 14.1092  -2
  -1  -5   1 518.470 14.1092   1
   0  -5   1 -5.4090 5.78459   1
   1  -5   1 -0.1573 6.00091   1
  -4   1   1 751.403 17.5424  -2
   2  -5   1 751.403 17.5424   1
  -4   2   1 144.175 21.2321  -2
   3  -5   1 144.175 21.2321   1
   4  -5   1 5.34916 6.69665   1
  -5   5   1 9.45430 6.27411  -2
   5  -5   1 9.45430 6.27411   1
   6  -5   1 -8.2497 8.54741   1
   7  -5   1 -0.8038 8.65182   1
  -6   9   1 112.171 15.4190  -2
   8  -5   1 112.171 15.4190   1
  -6  10   1 12.6014 57.6609  -2
   9  -5   1 12.6014 57.6609   1
   0 -12   1 159.212 32.1049  -2
  -8  -4   1 159.212 32.1049   1
   0 -11   1 10.1014 18.2218  -2
  -7  -4   1 10.1014 18.2218   1
  -6  -4   1 -23.410 20.7589   1
  -1  -8   1 550.660 18.8143  -2
  -5  -4   1 550.660 18.8143   1
  -1  -7   1 -1.1961 10.7120  -2
  -4  -4   1 -1.1961 10.7120   1
  -3  -4   1 12.5170 12.6969   1
  -2  -4   1 1148.09 24.2195  -2
  -2  -4   1 1148.09 24.2195   1
  -1  -4   1 0.61925 4.64150   1
   0  -4   1 -8.1906 5.03047   1
  -3   0   1 319.759 9.26557  -2
   1  -4   1 319.759 9.26557   1
  -3   1   1 -13.758 15.8089  -2
   2  -4   1 -13.758 15.8089   1
   3  -4   1 0.55748 5.53675   1
  -4   4   1 300.627 8.45438  -2
   4  -4   1 300.627 8.45438   1
   5  -4   1 2.40914 6.15213   1
   6  -4   1 1.33954 7.38604   1
  -5   8   1 500.227 18.9164  -2
   7  -4   1 500.227 18.9164   1
   8  -4   1 12.6082 20.7668   1
  -6  11   1 -2.4680 22.1393  -2
   9  -4   1 -2.4680 22.1393   1
   1 -12   2 -3.2349 37.5753  -2
   1 -12   1 -3.2349 37.5753  -2
  -8  -3   1 -3.2349 37.5753   1
   1 -12   1 19.2333 20.6601  -2
  -8  -3   1 19.2333 20.6601   1
  -7  -3   1 39.9270 24.7497   1
   0  -9   1 256.837 17.4448  -2
  -6  -3   1 256.837 17.4448   1
   0  -8   1 -8.2220 11.2330  -2
  -5  -3   1 -8.2220 11.2330   1
  -4  -3   1 2.00177 13.8895   1
  -1  -5   1 510.537 14.8993  -2
  -3  -3   1 510.537 14.8993   1
  -2  -3   1 2.14748 8.55167   1
  -1  -3   1 4.64075 4.07366   1
  -2  -1   1 6990.03 155.304  -2
   0  -3   1 6990.03 155.304   1
   1  -3   1 4.86994 4.60298   1
   2  -3   1 1.95773 4.76333   1
  -3   3   1 4798.84 88.4478  -2
   3  -3   1 4798.84 88.4478   1
   4  -3   1 -2.2949 4.84008   1
   5  -3   1 1.17997 6.01235   1
  -4   7   1 1217.24 24.7101  -2
   6  -3   1 1217.24 24.7101   1
   7  -3   1 8.92670 12.1585   1
  -5  10   1 4.37725 18.8118  -2
   8  -3   1 4.37725 18.8118   1
  -5  11   1 346.146 24.0435  -2
   9  -3   1 346.146 24.0435   1
  -9  -2   1 6.81539 38.7615   1
  -8  -2   1 -34.273 28.1398   1
   1 -10   1 242.611 18.9791  -2
  -7  -2   1 242.611 18.9791   1
   1  -9   1 0.23067 12.4388  -2
  -6  -2   1 0.23067 12.4388   1
  -5  -2   1 -3.7102 15.5811   1
   0  -6   1 586.236 14.9388  -2
  -4  -2   1 586.236 14.9388   1
   0  -5   1 48.3334 20.1950  -2
  -3  -2   1 48.3334 20.1950   1
  -2  -2   1 2.85428 4.17888   1
  -1  -2   1 4228.44 80.8277  -2
  -1  -2   1 4228.44 80.8277   1
   1  -2   1 9.53405 9.77813   1
  -2   2   1 3344.13 69.2424  -2
   2  -2   1 3344.13 69.2424   1
   3  -2   1 -2.2114 3.32875   1
   4  -2   1 -0.1821 4.94175   1
  -3   6   1 1509.25 28.6911  -2
   5  -2   1 1509.25 28.6911   1
  -3   7   1 -5.6210 31.5267  -2
   6  -2   1 -5.6210 31.5267   1
  -4   9   1 5.16442 14.8621  -2
   7  -2   1 5.16442 14.8621   1
  -4  10   1 207.505 18.6337  -2
   8  -2   1 207.505 18.6337   1
   9  -2   1 93.0239 37.5418   1
  -9  -1   1 61.0998 33.0822   1
   2 -11   1 111.896 19.2925  -2
  -8  -1   1 111.896 19.2925   1
   2 -10   1 -2.0889 14.5236  -2
  -7  -1   1 -2.0889 14.5236   1
   1  -8   1 12.4776 30.4546  -2
  -6  -1   1 12.4776 30.4546   1
   1  -7   1 874.848 24.6485  -2
  -5  -1   1 874.848 24.6485   1
   1  -6   1 30.8670 24.6677  -2
  -4  -1   1 30.8670 24.6677   1
  -3  -1   1 4.60127 6.24701   1
   0  -3   1 9999.99 167.598  -2
  -2  -1   1 9999.99 167.598   1
  -1  -1   1 -3.1036 3.58877   1
   2  -1   1 2.24287 2.96687   1
  -2   4   1 -6.5026 21.5399  -2
   3  -1   1 -6.5026 21.5399   1
  -2   5   1 277.981 8.77365  -2
   4  -1   1 277.981 8.77365   1
  -2   6   1 -19.094 26.4192  -2
   5  -1   1 -19.094 26.4192   1
  -3   8   1 6.49694 12.6387  -2
   6  -1   1 6.49694 12.6387   1
  -3   9   1 672.759 19.6536  -2
   7  -1   1 672.759 19.6536   1
   8  -1   1 8.88406 29.5768   1
  -4  12   1 18.7318 32.0018  -2
   9  -1   1 18.7318 32.0018   1
   3 -12   1 171.153 23.2108  -2
  -9   0   1 171.153 23.2108   1
   3 -11   1 -8.6426 20.4368  -2
  -8   0   1 -8.6426 20.4368   1
   2  -9   1 20.7476 35.9729  -2
  -7   0   1 20.7476 35.9729   1
   2  -8   1 1049.52 29.6891  -2
  -6   0   1 1049.52 29.6891   1
   2  -7   1 5.01270 10.1335  -2
  -5   0   1 5.01270 10.1335   1
   1  -5   1 2.79777 23.0336  -2
  -4   0   1 2.79777 23.0336   1
   1  -4   1 500.865 11.3517  -2
  -3   0   1 500.865 11.3517   1
  -2   0   1 -3.4802 3.60445   1
  -1   0   1 -0.2811 2.56442   1
   1   0   1 3.81651 3.39985   1
   2   0   1 -5.2236 3.95882   1
  -1   4   1 973.388 20.6506  -2
   3   0   1 973.388 20.6506   1
  -1   5   1 28.3727 21.7833  -2
   4   0   1 28.3727 21.7833   1
  -2   7   1 3.56505 10.2789  -2
   5   0   1 3.56505 10.2789   1
  -2   8   1 515.692 18.7298  -2
   6   0   1 515.692 18.7298   1
  -2   9   1 -39.007 39.2097  -2
   7   0   1 -39.007 39.2097   1
  -3  11   1 18.4349 27.0388  -2
   8   0   1 18.4349 27.0388   1
  -3  12   1 247.452 34.4755  -2
   9   0   1 247.452 34.4755   1
   4 -12   1 30.8669 32.2687  -2
  -9   1   1 30.8669 32.2687   1
  -8   1   1 3.07127 31.1694   1
   3  -9   1 372.272 17.2032  -2
  -7   1   1 372.272 17.2032   1
   3  -8   1 -6.1796 12.2995  -2
  -6   1   1 -6.1796 12.2995   1
   2  -6   1 -5.7846 28.1522  -2
  -5   1   1 -5.7846 28.1522   1
   2  -5   1 451.426 11.2436  -2
  -4   1   1 451.426 11.2436   1
  -3   1   1 -0.9003 3.78585   1
  -2   1   1 -3.4678 3.29433   1
   1  -1   1 1453.23 38.3354  -2
  -1   1   1 1453.23 38.3354   1
   0   3   1 2232.62 50.4754  -2
   2   1   1 2232.62 50.4754   1
   3   1   1 -1.1609 6.52574   1
  -1   6   1 -0.7123 11.5184  -2
   4   1   1 -0.7123 11.5184   1
  -1   7   1 443.821 15.8956  -2
   5   1   1 443.821 15.8956   1
   6   1   1 -10.156 18.8677   1
  -2  10   1 -12.193 14.1451  -2
   7   1   1 -12.193 14.1451   1
  -2  11   1 88.4461 27.1689  -2
   8   1   1 88.4461 27.1689   1
   9   1   1 51.2354 37.7542   1
  -9   2   1 -61.781 34.0270   1
   4 -10   1 113.506 17.1252  -2
  -8   2   1 113.506 17.1252   1
   4  -9   1 7.79421 14.6033  -2
  -7   2   1 7.79421 14.6033   1
  -6   2   1 1.10692 10.5911   1
   3  -6   1 1719.96 36.3263  -2
  -5   2   1 1719.96 36.3263   1
  -4   2   1 2.60170 6.52549   1
  -3   2   1 1.22219 3.81922   1
   2  -2   1 3345.46 50.2589  -2
  -2   2   1 3345.46 50.2589   1
  -1   2   1 -0.3213 3.10433   1
   0   2   1 1.42559 4.40900   1
   1   2   1 208.057 7.99513  -2
   1   2   1 208.057 7.99513   1
   2   2   1 4.86836 4.91816   1
   3   2   1 15.4951 9.71548   1
   0   6   1 1352.99 33.4478  -2
   4   2   1 1352.99 33.4478   1
   5   2   1 -8.0869 15.7729   1
  -1   9   1 -2.0911 14.3850  -2
   6   2   1 -2.0911 14.3850   1
  -1  10   1 118.265 16.3280  -2
   7   2   1 118.265 16.3280   1
   8   2   1 -3.8446 31.3102   1
   5 -11   1 216.303 19.6815  -2
  -9   3   1 216.303 19.6815   1
   5 -10   1 29.1289 18.5845  -2
  -8   3   1 29.1289 18.5845   1
  -7   3   1 5.33135 12.5316   1
   4  -7   1 549.829 15.8480  -2
  -6   3   1 549.829 15.8480   1
   4  -6   1 4.87976 27.9126  -2
  -5   3   1 4.87976 27.9126   1
  -4   3   1 -5.2981 6.19882   1
   3  -3   1 4789.18 78.8354  -2
  -3   3   1 4789.18 78.8354   1
  -2   3   1 -1.3887 3.05315   1
  -1   3   1 -0.4427 3.28279   1
   2   1   1 1307.70 36.8269  -2
   0   3   1 1307.70 36.8269   1
   1   3   1 2.10076 4.40765   1
   2   3   1 -2.3801 8.80225   1
   1   5   1 324.552 11.1019  -2
   3   3   1 324.552 11.1019   1
   4   3   1 24.3981 14.3279   1
   0   8   1 -8.6778 11.0708  -2
   5   3   1 -8.6778 11.0708   1
   0   9   1 246.387 16.8545  -2
   6   3   1 246.387 16.8545   1
   7   3   1 26.8085 27.6498   1
  -1  12   1 4.75253 26.4955  -2
   8   3   1 4.75253 26.4955   1
   6 -11   1 -17.383 21.0794  -2
  -9   4   1 -17.383 21.0794   1
  -8   4   1 -5.7263 20.6564   1
   5  -8   1 111.756 11.3512  -2
  -7   4   1 111.756 11.3512   1
   5  -7   1 17.0469 34.7110  -2
  -6   4   1 17.0469 34.7110   1
  -5   4   1 4.17279 5.52986   1
   4  -4   1 284.230 7.65584  -2
  -4   4   1 284.230 7.65584   1
  -3   4   1 -3.4658 4.42490   1
  -2   4   1 -4.8763 3.31662   1
   3   0   1 456.159 10.0183  -2
  -1   4   1 456.159 10.0183   1
   0   4   1 -8.4861 4.88552   1
   1   4   1 -1.1534 5.71915   1
   2   4   1 957.063 20.7010  -2
   2   4   1 957.063 20.7010   1
   3   4   1 -12.385 12.6238   1
   1   7   1 -7.2383 10.5593  -2
   4   4   1 -7.2383 10.5593   1
   1   8   1 544.940 18.7042  -2
   5   4   1 544.940 18.7042   1
   6   4   1 21.3750 22.7467   1
   0  11   1 -6.2708 22.2322  -2
   7   4   1 -6.2708 22.2322   1
   0  12   1 132.870 30.4243  -2
   8   4   1 132.870 30.4243   1
  -9   5   1 13.7338 23.8148   1
   6  -9   1 112.864 16.0699  -2
  -8   5   1 112.864 16.0699   1
  -7   5   1 9.26731 8.57797   1
  -6   5   1 -11.181 6.87044   1
   5  -5   1 2.42845 5.06132  -2
  -5   5   1 2.42845 5.06132   1
  -4   5   1 6.84812 5.39038   1
   4  -2   1 -37.191 32.1266  -2
  -3   5   1 -37.191 32.1266   1
   4  -1   1 454.628 10.4830  -2
  -2   5   1 454.628 10.4830   1
  -1   5   1 -1.9384 4.18095   1
   0   5   1 0.82368 5.78440   1
   3   3   1 576.946 15.2945  -2
   1   5   1 576.946 15.2945   1
   2   5   1 -2.5454 7.04729   1
   2   6   1 5.37634 8.18924  -2
   3   5   1 5.37634 8.18924   1
   2   7   1 340.610 12.2292  -2
   4   5   1 340.610 12.2292   1
   2   8   1 58.8675 21.8915  -2
   5   5   1 58.8675 21.8915   1
   1  10   1 -34.760 15.4036  -2
   6   5   1 -34.760 15.4036   1
   7 -10   1 94.1078 17.9310  -2
  -9   6   1 94.1078 17.9310   1
   7  -9   1 -20.213 32.8923  -2
  -8   6   1 -20.213 32.8923   1
  -7   6   1 -4.9242 8.54554   1
   6  -6   1 366.558 11.0471  -2
  -6   6   1 366.558 11.0471   1
  -5   6   1 -4.8505 6.65610   1
  -4   6   1 -5.8731 6.09469   1
   5  -2   1 1646.48 31.8588  -2
  -3   6   1 1646.48 31.8588   1
   5  -1   1 11.1739 14.8907  -2
  -2   6   1 11.1739 14.8907   1
   4   1   1 -4.8693 12.3345  -2
  -1   6   1 -4.8693 12.3345   1
   4   2   1 1438.48 34.1459  -2
   0   6   1 1438.48 34.1459   1
   4   3   1 -19.053 13.6012  -2
   1   6   1 -19.053 13.6012   1
   3   5   1 8.06229 7.99400  -2
   2   6   1 8.06229 7.99400   1
   3   6   1 35.2657 8.67768  -2
   3   6   1 35.2657 8.67768   1
   4   6   1 33.8324 21.3199   1
   2   9   1 9.37360 12.5690  -2
   5   6   1 9.37360 12.5690   1
   2  10   1 33.1197 14.8371  -2
   6   6   1 33.1197 14.8371   1
   7   6   1 -8.3079 32.5307   1
  -9   7   1 21.5250 23.7129   1
  -8   7   1 -13.421 11.9132   1
   7  -7   1 382.954 14.0039  -2
  -7   7   1 382.954 14.0039   1
  -6   7   1 -20.877 7.66866   1
   6  -4   1 0.48255 24.5699  -2
  -5   7   1 0.48255 24.5699   1
   6  -3   1 1035.07 21.0639  -2
  -4   7   1 1035.07 21.0639   1
   6  -2   1 -3.5438 17.9328  -2
  -3   7   1 -3.5438 17.9328   1
   5   0   1 -7.0895 7.57980  -2
  -2   7   1 -7.0895 7.57980   1
   5   1   1 208.042 8.21346  -2
  -1   7   1 208.042 8.21346   1
   5   2   1 -8.8612 15.3077  -2
   0   7   1 -8.8612 15.3077   1
   4   4   1 -2.3548 8.01547  -2
   1   7   1 -2.3548 8.01547   1
   4   5   1 299.584 14.7341  -2
   2   7   1 299.584 14.7341   1
   3   7   1 -29.792 32.7518   1
   3   8   1 -3.1320 12.9236  -2
   4   7   1 -3.1320 12.9236   1
   3   9   1 182.272 16.3429  -2
   5   7   1 182.272 16.3429   1
   6   7   1 26.6387 31.7394   1
   8  -8   1 297.973 18.7164  -2
  -8   8   1 297.973 18.7164   1
  -7   8   1 -1.1128 11.1995   1
   7  -5   1 -30.645 26.8344  -2
  -6   8   1 -30.645 26.8344   1
   7  -4   1 292.663 11.7238  -2
  -5   8   1 292.663 11.7238   1
   7  -3   1 45.8025 25.5820  -2
  -4   8   1 45.8025 25.5820   1
   6  -1   1 -12.000 8.75097  -2
  -3   8   1 -12.000 8.75097   1
   6   0   1 260.034 11.0064  -2
  -2   8   1 260.034 11.0064   1
   6   1   1 -11.005 18.5914  -2
  -1   8   1 -11.005 18.5914   1
   5   3   1 -15.817 8.53806  -2
   0   8   1 -15.817 8.53806   1
   5   4   1 557.544 21.0593  -2
   1   8   1 557.544 21.0593   1
   5   5   1 -11.092 19.9047  -2
   2   8   1 -11.092 19.9047   1
   4   7   1 6.76972 16.3710  -2
   3   8   1 6.76972 16.3710   1
   4   8   1 299.938 18.0633  -2
   4   8   1 299.938 18.0633   1
   5   8   1 -45.321 43.8708   1
  -8   9   1 -12.979 13.2997   1
   8  -6   1 14.2994 19.3874  -2
  -7   9   1 14.2994 19.3874   1
   8  -5   1 89.8044 10.6899  -2
  -6   9   1 89.8044 10.6899   1
  -5   9   1 5.84796 10.8254   1
   7  -2   1 -4.0976 11.6958  -2
  -4   9   1 -4.0976 11.6958   1
   7  -1   1 1143.80 36.7050  -2
  -3   9   1 1143.80 36.7050   1
   7   0   1 -1.8574 16.6279  -2
  -2   9   1 -1.8574 16.6279   1
   6   2   1 -10.395 12.0783  -2
  -1   9   1 -10.395 12.0783   1
   6   3   1 353.107 14.3691  -2
   0   9   1 353.107 14.3691   1
   1   9   1 -8.7374 34.0353   1
   5   6   1 0.87474 16.9022  -2
   2   9   1 0.87474 16.9022   1
   5   7   1 156.568 15.3960  -2
   3   9   1 156.568 15.3960   1
   4   9   1 -43.866 45.2635   1
   9  -6   1 299.908 27.8438  -2
  -7  10   1 299.908 27.8438   1
  -6  10   1 -6.9375 12.2222   1
   8  -3   1 2.93537 15.4450  -2
  -5  10   1 2.93537 15.4450   1
   8  -2   1 366.553 15.4564  -2
  -4  10   1 366.553 15.4564   1
   8  -1   1 -13.567 21.3402  -2
  -3  10   1 -13.567 21.3402   1
   7   1   1 0.82976 11.9647  -2
  -2  10   1 0.82976 11.9647   1
   7   2   1 185.287 14.7944  -2
  -1  10   1 185.287 14.7944   1
   7   3   1 -7.0509 25.5499  -2
   0  10   1 -7.0509 25.5499   1
   6   5   1 -4.5307 16.2482  -2
   1  10   1 -4.5307 16.2482   1
   6   6   1 -3.5606 13.7698  -2
   2  10   1 -3.5606 13.7698   1
   3  10   1 60.5491 52.3055   1
  -7  11   1 30.3082 55.8763   1
   9  -4   1 -0.5443 20.1333  -2
  -6  11   1 -0.5443 20.1333   1
   9  -3   1 277.586 19.9405  -2
  -5  11   1 277.586 19.9405   1
   9  -2   1 -6.3935 32.3034  -2
  -4  11   1 -6.3935 32.3034   1
   8   0   1 -24.802 15.5262  -2
  -3  11   1 -24.802 15.5262   1
   8   1   1 7.51275 14.0947  -2
  -2  11   1 7.51275 14.0947   1
   8   2   1 -57.721 29.9496  -2
  -1  11   1 -57.721 29.9496   1
   7   5   1 15.4412 14.7878  -2
   1  11   1 15.4412 14.7878   1
   2  11   1 -21.749 50.7733   1
  -5  12   1 -23.378 14.4304   1
   9  -1   1 6.16616 20.2322  -2
  -4  12   1 6.16616 20.2322   1
   9   0   1 117.184 17.3393  -2
  -3  12   1 117.184 17.3393   1
   9   1   1 -3.6770 34.3833  -2
  -2  12   1 -3.6770 34.3833   1
   8   3   1 12.8970 19.5198  -2
  -1  12   1 12.8970 19.5198   1
   8   4   1 103.879 17.6631  -2
   0  12   1 103.879 17.6631   1
  -7  -6   2 9.19724 25.2271  -2
  -1 -12   2 9.19724 25.2271   1
  -8  -4   2 27.9769 16.1780  -2
   0 -12   2 27.9769 16.1780   1
  -8  -3   2 -12.663 19.6877  -2
   1 -12   2 -12.663 19.6877   1
   2 -12   2 25.0394 51.9821   1
  -9   0   2 216.583 25.7086  -2
   3 -12   2 216.583 25.7086   1
  -9   1   2 18.7615 21.5849  -2
   4 -12   2 18.7615 21.5849   1
   5 -12   2 2.02787 14.5942   1
  -6  -7   2 17.0455 23.4945  -2
  -2 -11   2 17.0455 23.4945   1
  -7  -5   2 240.652 17.9406  -2
  -1 -11   2 240.652 17.9406   1
  -7  -4   2 -16.554 14.5335  -2
   0 -11   2 -16.554 14.5335   1
   1 -11   2 12.1558 33.3837   1
  -8  -1   2 254.875 25.5084  -2
   2 -11   2 254.875 25.5084   1
  -8   0   2 -12.030 13.2410  -2
   3 -11   2 -12.030 13.2410   1
  -9   2   2 -20.461 33.3275  -2
   4 -11   2 -20.461 33.3275   1
  -9   3   2 93.5621 19.7192  -2
   5 -11   2 93.5621 19.7192   1
  -9   4   2 7.88367 18.4482  -2
   6 -11   2 7.88367 18.4482   1
   7 -11   2 19.8245 42.5836   1
  -3 -10   2 7.45645 55.1298   1
  -6  -6   2 193.561 15.4096  -2
  -2 -10   2 193.561 15.4096   1
  -6  -5   2 13.9615 16.7958  -2
  -1 -10   2 13.9615 16.7958   1
  -7  -3   2 -9.9253 23.9675  -2
   0 -10   2 -9.9253 23.9675   1
  -7  -2   2 337.753 18.4680  -2
   1 -10   2 337.753 18.4680   1
  -7  -1   2 -16.575 10.9788  -2
   2 -10   2 -16.575 10.9788   1
  -8   1   2 -55.238 30.3717  -2
   3 -10   2 -55.238 30.3717   1
  -8   2   2 140.617 15.5837  -2
   4 -10   2 140.617 15.5837   1
  -8   3   2 -10.570 13.9776  -2
   5 -10   2 -10.570 13.9776   1
   6 -10   2 -7.3603 21.9026   1
  -9   6   2 142.774 24.1157  -2
   7 -10   2 142.774 24.1157   1
  -4  -9   2 -3.1373 24.8531  -2
  -4  -9   2 -3.1373 24.8531   1
  -5  -7   2 56.3489 11.0502  -2
  -3  -9   2 56.3489 11.0502   1
  -5  -6   2 10.3779 17.5283  -2
  -2  -9   2 10.3779 17.5283   1
  -6  -4   2 3.89620 20.4398  -2
  -1  -9   2 3.89620 20.4398   1
  -6  -3   2 174.143 12.9483  -2
   0  -9   2 174.143 12.9483   1
  -6  -2   2 -16.958 10.0687  -2
   1  -9   2 -16.958 10.0687   1
  -7   0   2 -13.691 21.8475  -2
   2  -9   2 -13.691 21.8475   1
  -7   1   2 239.424 15.4404  -2
   3  -9   2 239.424 15.4404   1
  -7   2   2 -8.6731 11.7085  -2
   4  -9   2 -8.6731 11.7085   1
  -8   4   2 -19.367 29.1229  -2
   5  -9   2 -19.367 29.1229   1
  -8   5   2 399.538 21.0630  -2
   6  -9   2 399.538 21.0630   1
  -8   6   2 12.1421 16.4287  -2
   7  -9   2 12.1421 16.4287   1
   8  -9   2 17.0742 14.0586   1
  -3 -10   2 1.97010 26.6170  -2
  -5  -8   2 1.97010 26.6170   1
  -4  -8   2 36.2401 10.6758  -2
  -4  -8   2 36.2401 10.6758   1
  -4  -7   2 8.18731 12.0359  -2
  -3  -8   2 8.18731 12.0359   1
  -5  -5   2 -8.7733 17.0957  -2
  -2  -8   2 -8.7733 17.0957   1
  -5  -4   2 52.7921 8.49678  -2
  -1  -8   2 52.7921 8.49678   1
  -5  -3   2 2.29985 8.84990  -2
   0  -8   2 2.29985 8.84990   1
  -6  -1   2 -15.540 18.1344  -2
   1  -8   2 -15.540 18.1344   1
  -6   0   2 388.677 12.7552  -2
   2  -8   2 388.677 12.7552   1
  -6   1   2 -11.016 10.0898  -2
   3  -8   2 -11.016 10.0898   1
   4  -8   2 -18.759 9.61914   1
  -7   4   2 306.423 16.9900  -2
   5  -8   2 306.423 16.9900   1
  -7   5   2 10.2830 17.7436  -2
   6  -8   2 10.2830 17.7436   1
   7  -8   2 -4.5830 12.7474   1
  -8   8   2 233.870 26.1329  -2
   8  -8   2 233.870 26.1329   1
  -2 -11   2 22.9576 29.0142  -2
  -6  -7   2 22.9576 29.0142   1
  -3  -9   2 74.0670 14.3028  -2
  -5  -7   2 74.0670 14.3028   1
  -3  -8   2 8.48615 11.1921  -2
  -4  -7   2 8.48615 11.1921   1
  -4  -6   2 -12.271 16.2772  -2
  -3  -7   2 -12.271 16.2772   1
  -4  -5   2 553.727 16.7243  -2
  -2  -7   2 553.727 16.7243   1
  -4  -4   2 -12.679 7.99438  -2
  -1  -7   2 -12.679 7.99438   1
  -5  -2   2 8.87500 16.4570  -2
   0  -7   2 8.87500 16.4570   1
  -5  -1   2 976.127 24.6909  -2
   1  -7   2 976.127 24.6909   1
  -5   0   2 -7.5130 10.1056  -2
   2  -7   2 -7.5130 10.1056   1
  -6   2   2 -30.422 38.0612  -2
   3  -7   2 -30.422 38.0612   1
  -6   3   2 192.780 10.1692  -2
   4  -7   2 192.780 10.1692   1
  -6   4   2 5.23215 25.8313  -2
   5  -7   2 5.23215 25.8313   1
   6  -7   2 -8.5437 10.5692   1
  -7   7   2 38.3729 16.2792  -2
   7  -7   2 38.3729 16.2792   1
   8  -7   2 0.50862 14.7167   1
   9  -7   2 -13.916 14.6705   1
  -7  -6   2 5.80647 30.7862   1
  -2 -10   2 125.569 15.7814  -2
  -6  -6   2 125.569 15.7814   1
  -2  -9   2 14.2125 15.3293  -2
  -5  -6   2 14.2125 15.3293   1
  -4  -6   2 0.36873 19.7174   1
  -3  -6   2 437.510 15.9725  -2
  -3  -6   2 437.510 15.9725   1
  -3  -5   2 -2.1551 7.62158  -2
  -2  -6   2 -2.1551 7.62158   1
  -4  -3   2 -3.6677 13.2580  -2
  -1  -6   2 -3.6677 13.2580   1
  -4  -2   2 642.261 17.0712  -2
   0  -6   2 642.261 17.0712   1
  -4  -1   2 -13.355 23.2902  -2
   1  -6   2 -13.355 23.2902   1
  -5   1   2 -8.4722 29.5289  -2
   2  -6   2 -8.4722 29.5289   1
  -5   2   2 493.757 13.6964  -2
   3  -6   2 493.757 13.6964   1
  -5   3   2 -20.057 19.2538  -2
   4  -6   2 -20.057 19.2538   1
   5  -6   2 12.7944 8.60900   1
  -6   6   2 948.767 22.4182  -2
   6  -6   2 948.767 22.4182   1
   7  -6   2 14.1510 10.6555   1
   8  -6   2 4.82781 14.1627   1
  -7  10   2 278.885 20.9426  -2
   9  -6   2 278.885 20.9426   1
  -1 -11   2 239.817 21.9390  -2
  -7  -5   2 239.817 21.9390   1
  -1 -10   2 -19.065 16.4027  -2
  -6  -5   2 -19.065 16.4027   1
  -5  -5   2 -5.8186 20.1105   1
  -2  -7   2 465.470 16.8627  -2
  -4  -5   2 465.470 16.8627   1
  -2  -6   2 1.20426 7.03568  -2
  -3  -5   2 1.20426 7.03568   1
  -3  -4   2 -4.3335 10.9856  -2
  -2  -5   2 -4.3335 10.9856   1
  -3  -3   2 751.869 19.0587  -2
  -1  -5   2 751.869 19.0587   1
  -3  -2   2 13.9746 11.8112  -2
   0  -5   2 13.9746 11.8112   1
  -4   0   2 8.96173 15.7624  -2
   1  -5   2 8.96173 15.7624   1
  -4   1   2 731.108 17.2962  -2
   2  -5   2 731.108 17.2962   1
  -4   2   2 1.30615 18.9728  -2
   3  -5   2 1.30615 18.9728   1
   4  -5   2 -1.5486 6.76039   1
  -5   5   2 1936.64 40.3142  -2
   5  -5   2 1936.64 40.3142   1
   6  -5   2 -5.7540 9.07060   1
   7  -5   2 3.19768 11.6762   1
  -6   9   2 539.365 24.4181  -2
   8  -5   2 539.365 24.4181   1
  -6  10   2 52.5225 58.5310  -2
   9  -5   2 52.5225 58.5310   1
   0 -12   2 -6.7261 20.8625  -2
  -8  -4   2 -6.7261 20.8625   1
   0 -11   2 -16.027 18.0351  -2
  -7  -4   2 -16.027 18.0351   1
   0 -11   3 19.7196 30.8715  -2
  -7  -4   2 19.7196 30.8715   1
  -6  -4   2 -9.9097 21.6065   1
  -1  -8   2 65.9018 11.0147  -2
  -5  -4   2 65.9018 11.0147   1
  -1  -7   2 1.38097 10.8826  -2
  -4  -4   2 1.38097 10.8826   1
  -3  -4   2 29.9469 12.9757   1
  -2  -4   2 3126.24 72.1433  -2
  -2  -4   2 3126.24 72.1433   1
  -1  -4   2 6.29019 4.49067   1
  -3  -1   2 -10.196 13.2705  -2
   0  -4   2 -10.196 13.2705   1
  -3   0   2 3869.65 86.8663  -2
   1  -4   2 3869.65 86.8663   1
   2  -4   2 5.76987 5.87743   1
   3  -4   2 -2.3105 6.30266   1
  -4   4   2 777.778 16.6618  -2
   4  -4   2 777.778 16.6618   1
   5  -4   2 -4.2179 7.35317   1
   6  -4   2 7.64260 7.49547   1
  -5   8   2 1103.94 30.8501  -2
   7  -4   2 1103.94 30.8501   1
   8  -4   2 10.5339 20.5524   1
  -6  11   2 -7.8632 22.4386  -2
   9  -4   2 -7.8632 22.4386   1
   1 -12   2 -32.831 20.5843  -2
  -8  -3   2 -32.831 20.5843   1
   1 -12   3 5.17864 33.3151  -2
  -8  -3   2 5.17864 33.3151   1
  -7  -3   2 -3.6471 24.4000   1
   0  -9   2 334.685 19.3133  -2
  -6  -3   2 334.685 19.3133   1
   0  -8   2 -4.5516 11.2936  -2
  -5  -3   2 -4.5516 11.2936   1
  -4  -3   2 -1.2134 13.5639   1
  -1  -5   2 1236.68 30.4632  -2
  -3  -3   2 1236.68 30.4632   1
  -2  -3   2 0.40949 8.70274   1
  -1  -3   2 5.26382 7.45834   1
  -2  -1   2 3193.10 71.5874  -2
   0  -3   2 3193.10 71.5874   1
   1  -3   2 -2.8078 4.82962   1
   2  -3   2 -1.0228 5.40506   1
  -3   3   2 365.285 8.79518  -2
   3  -3   2 365.285 8.79518   1
   4  -3   2 2.71553 5.87259   1
   5  -3   2 0.74956 6.08356   1
  -4   7   2 166.268 8.24637  -2
   6  -3   2 166.268 8.24637   1
   7  -3   2 -8.3117 17.6340   1
  -5  10   2 8.77828 19.1728  -2
   8  -3   2 8.77828 19.1728   1
  -5  11   2 216.425 21.6319  -2
   9  -3   2 216.425 21.6319   1
  -9  -2   2 -57.555 34.7132   1
  -8  -2   2 16.7759 27.4205   1
   1 -10   2 514.110 24.9571  -2
  -7  -2   2 514.110 24.9571   1
   1  -9   2 0.34913 11.8464  -2
  -6  -2   2 0.34913 11.8464   1
   0  -7   2 -21.972 28.0456  -2
  -5  -2   2 -21.972 28.0456   1
   0  -6   2 1060.16 23.6532  -2
  -4  -2   2 1060.16 23.6532   1
   0  -5   2 -18.310 19.2797  -2
  -3  -2   2 -18.310 19.2797   1
  -2  -2   2 4.06059 4.06632   1
  -1  -2   2 541.189 13.5755  -2
  -1  -2   2 541.189 13.5755   1
   0  -2   2 -3.8727 13.2364   1
   1  -2   2 0.35041 4.69744   1
  -2   2   2 864.100 19.1119  -2
   2  -2   2 864.100 19.1119   1
   3  -2   2 2.23876 4.95291   1
   4  -2   2 -0.5065 5.83375   1
  -3   6   2 257.934 8.12767  -2
   5  -2   2 257.934 8.12767   1
  -3   7   2 -19.097 31.2196  -2
   6  -2   2 -19.097 31.2196   1
  -4   9   2 1.09301 15.0603  -2
   7  -2   2 1.09301 15.0603   1
  -4  10   2 376.366 22.1825  -2
   8  -2   2 376.366 22.1825   1
   9  -2   2 -5.1640 34.6368   1
  -9  -1   2 5.51950 33.7439   1
   2 -11   2 495.246 26.2529  -2
  -8  -1   2 495.246 26.2529   1
   2 -10   2 -23.596 14.5746  -2
  -7  -1   2 -23.596 14.5746   1
   1  -8   2 41.5824 30.4722  -2
  -6  -1   2 41.5824 30.4722   1
   1  -7   2 616.098 19.1049  -2
  -5  -1   2 616.098 19.1049   1
   1  -6   2 -17.576 11.3971  -2
  -4  -1   2 -17.576 11.3971   1
  -3  -1   2 3.67020 6.50957   1
   0  -3   2 2386.85 41.2507  -2
  -2  -1   2 2386.85 41.2507   1
   2  -1   2 -4.4269 4.96498   1
   3  -1   2 -0.7452 3.63603   1
  -2   5   2 1734.35 35.5665  -2
   4  -1   2 1734.35 35.5665   1
  -2   6   2 16.0603 25.4687  -2
   5  -1   2 16.0603 25.4687   1
  -3   8   2 13.2463 12.7146  -2
   6  -1   2 13.2463 12.7146   1
  -3   9   2 413.560 15.5416  -2
   7  -1   2 413.560 15.5416   1
   8  -1   2 9.57502 28.7501   1
  -4  12   2 -7.1117 31.2582  -2
   9  -1   2 -7.1117 31.2582   1
   3 -12   2 94.3124 22.2214  -2
  -9   0   2 94.3124 22.2214   1
   3 -11   2 -4.8785 20.4848  -2
  -8   0   2 -4.8785 20.4848   1
   2  -9   2 -24.358 35.6295  -2
  -7   0   2 -24.358 35.6295   1
   2  -8   2 251.285 13.8862  -2
  -6   0   2 251.285 13.8862   1
   2  -7   2 -2.2767 14.3990  -2
  -5   0   2 -2.2767 14.3990   1
  -4   0   2 0.32043 6.63652   1
   1  -4   2 3773.80 68.9122  -2
  -3   0   2 3773.80 68.9122   1
  -2   0   2 -0.3938 3.42423   1
  -1   0   2 0.35818 3.21394   1
   2   0   2 13.2294 4.17906   1
  -1   4   2 1802.33 36.1587  -2
   3   0   2 1802.33 36.1587   1
  -1   5   2 16.3653 21.8174  -2
   4   0   2 16.3653 21.8174   1
  -2   7   2 14.6361 10.5054  -2
   5   0   2 14.6361 10.5054   1
  -2   8   2 211.682 12.9762  -2
   6   0   2 211.682 12.9762   1
   7   0   2 -2.3377 22.5449   1
  -3  11   2 7.22997 26.5039  -2
   8   0   2 7.22997 26.5039   1
  -3  12   2 142.970 31.1108  -2
   9   0   2 142.970 31.1108   1
   4 -12   2 33.2150 32.8432  -2
  -9   1   2 33.2150 32.8432   1
  -8   1   2 -23.650 29.8776   1
   3  -9   2 341.328 15.3602  -2
  -7   1   2 341.328 15.3602   1
   3  -8   2 8.97678 12.4468  -2
  -6   1   2 8.97678 12.4468   1
   2  -6   2 -14.897 29.0488  -2
  -5   1   2 -14.897 29.0488   1
   2  -5   2 1145.69 23.3364  -2
  -4   1   2 1145.69 23.3364   1
  -3   1   2 4.34930 5.36033   1
  -2   1   2 -3.7336 3.61812   1
   1  -1   2 144.016 7.25848  -2
  -1   1   2 144.016 7.25848   1
   1   1   2 2.53785 8.24382   1
   0   3   2 2499.70 56.2757  -2
   2   1   2 2499.70 56.2757   1
   3   1   2 -0.3490 9.51406   1
   4   1   2 5.62938 11.8396   1
  -1   7   2 559.228 21.3124  -2
   5   1   2 559.228 21.3124   1
  -1   8   2 12.0910 18.4373  -2
   6   1   2 12.0910 18.4373   1
  -2  10   2 -15.073 16.9637  -2
   7   1   2 -15.073 16.9637   1
  -2  11   2 378.278 33.5123  -2
   8   1   2 378.278 33.5123   1
   9   1   2 4.31716 35.8614   1
  -9   2   2 -15.377 27.4017   1
   4 -10   2 264.800 17.8607  -2
  -8   2   2 264.800 17.8607   1
   4  -9   2 32.4426 15.0583  -2
  -7   2   2 32.4426 15.0583   1
   3  -7   2 -16.871 32.5422  -2
  -6   2   2 -16.871 32.5422   1
   3  -6   2 1002.74 21.7347  -2
  -5   2   2 1002.74 21.7347   1
   3  -5   2 20.6153 22.9411  -2
  -4   2   2 20.6153 22.9411   1
  -3   2   2 2.27543 5.32010   1
   2  -2   2 885.554 17.5313  -2
  -2   2   2 885.554 17.5313   1
  -1   2   2 -2.8760 2.64948   1
   0   2   2 0.42199 2.70468   1
   1   2   2 278.740 13.0198  -2
   1   2   2 278.740 13.0198   1
   2   2   2 -0.7617 8.18539   1
   3   2   2 6.31533 10.1631   1
   0   6   2 626.961 17.6793  -2
   4   2   2 626.961 17.6793   1
   5   2   2 -3.8311 15.5409   1
  -1   9   2 -3.1411 14.3654  -2
   6   2   2 -3.1411 14.3654   1
  -1  10   2 413.182 30.0496  -2
   7   2   2 413.182 30.0496   1
   8   2   2 -6.8476 32.6412   1
   5 -11   2 105.710 17.7335  -2
  -9   3   2 105.710 17.7335   1
   5 -10   2 -22.010 17.8950  -2
  -8   3   2 -22.010 17.8950   1
  -7   3   2 13.8519 14.5679   1
   4  -7   2 128.996 9.29931  -2
  -6   3   2 128.996 9.29931   1
   4  -6   2 -21.480 27.6655  -2
  -5   3   2 -21.480 27.6655   1
  -4   3   2 -2.9970 6.38271   1
   3  -3   2 349.249 7.91618  -2
  -3   3   2 349.249 7.91618   1
  -2   3   2 -0.6339 3.12105   1
  -1   3   2 0.98838 3.47704   1
   2   1   2 3185.86 70.6841  -2
   0   3   2 3185.86 70.6841   1
   1   3   2 1.72147 13.9272   1
   2   3   2 -3.0155 8.93848   1
   1   5   2 905.318 23.2234  -2
   3   3   2 905.318 23.2234   1
   4   3   2 11.5775 14.8030   1
   0   8   2 -6.2654 11.3456  -2
   5   3   2 -6.2654 11.3456   1
   0   9   2 273.346 24.2038  -2
   6   3   2 273.346 24.2038   1
   7   3   2 1.71451 28.1240   1
  -1  12   2 20.7074 25.7123  -2
   8   3   2 20.7074 25.7123   1
   6 -11   2 18.9679 20.7447  -2
  -9   4   2 18.9679 20.7447   1
  -8   4   2 -24.148 25.6209   1
   5  -8   2 210.668 13.8112  -2
  -7   4   2 210.668 13.8112   1
   5  -7   2 2.82725 33.1107  -2
  -6   4   2 2.82725 33.1107   1
  -5   4   2 -1.1488 7.64955   1
   4  -4   2 798.213 15.5315  -2
  -4   4   2 798.213 15.5315   1
  -3   4   2 -4.1800 4.34057   1
  -2   4   2 -1.0524 4.11729   1
   3   0   2 1819.27 41.2801  -2
  -1   4   2 1819.27 41.2801   1
   0   4   2 8.91916 4.84990   1
   1   4   2 -0.9233 5.89274   1
   2   4   2 513.846 17.1237  -2
   2   4   2 513.846 17.1237   1
   3   4   2 -4.9437 12.9509   1
   1   7   2 0.69828 10.8561  -2
   4   4   2 0.69828 10.8561   1
   1   8   2 61.6366 12.9013  -2
   5   4   2 61.6366 12.9013   1
   6   4   2 -11.597 23.9880   1
   0  11   2 -12.556 20.9696  -2
   7   4   2 -12.556 20.9696   1
  -9   5   2 5.33644 24.4685   1
   6  -9   2 367.202 20.8982  -2
  -8   5   2 367.202 20.8982   1
  -7   5   2 -0.4431 17.0434   1
  -6   5   2 -19.573 6.84453   1
   5  -5   2 1934.24 36.0158  -2
  -5   5   2 1934.24 36.0158   1
  -4   5   2 -6.1086 5.45648   1
  -3   5   2 -5.4873 4.65150   1
   4  -1   2 1207.10 24.9577  -2
  -2   5   2 1207.10 24.9577   1
  -1   5   2 -0.5463 4.28587   1
   0   5   2 5.77145 5.88712   1
   3   3   2 492.840 13.6919  -2
   1   5   2 492.840 13.6919   1
   3   4   2 -4.6795 14.4451  -2
   2   5   2 -4.6795 14.4451   1
   2   6   2 12.1223 8.64009  -2
   3   5   2 12.1223 8.64009   1
   2   7   2 382.124 14.9200  -2
   4   5   2 382.124 14.9200   1
   5   5   2 15.8980 23.0510   1
   1  10   2 4.31260 15.7279  -2
   6   5   2 4.31260 15.7279   1
   1  11   2 259.223 28.8255  -2
   7   5   2 259.223 28.8255   1
   7 -10   2 178.320 19.5142  -2
  -9   6   2 178.320 19.5142   1
   7  -9   2 -10.302 32.0075  -2
  -8   6   2 -10.302 32.0075   1
  -7   6   2 -0.2665 8.77166   1
   6  -6   2 899.968 19.5708  -2
  -6   6   2 899.968 19.5708   1
  -5   6   2 -5.1696 6.39695   1
   5  -3   2 -8.0544 19.8139  -2
  -4   6   2 -8.0544 19.8139   1
   5  -2   2 199.401 7.55764  -2
  -3   6   2 199.401 7.55764   1
   5  -1   2 -9.9028 16.7690  -2
  -2   6   2 -9.9028 16.7690   1
  -1   6   2 -10.887 5.01594   1
   4   2   2 865.193 21.6982  -2
   0   6   2 865.193 21.6982   1
   4   3   2 7.30435 14.2370  -2
   1   6   2 7.30435 14.2370   1
   3   5   2 -6.1113 9.71129  -2
   2   6   2 -6.1113 9.71129   1
   3   6   2 474.234 19.1627  -2
   3   6   2 474.234 19.1627   1
   3   7   2 9.22222 22.2809  -2
   4   6   2 9.22222 22.2809   1
   2   9   2 20.0748 12.8591  -2
   5   6   2 20.0748 12.8591   1
   2  10   2 361.241 20.9084  -2
   6   6   2 361.241 20.9084   1
   7   6   2 -1.3080 40.7182   1
  -9   7   2 -26.589 23.0293   1
  -8   7   2 -20.282 12.0004   1
   7  -7   2 24.7432 9.12836  -2
  -7   7   2 24.7432 9.12836   1
  -6   7   2 -8.5344 7.82459   1
  -5   7   2 -6.1121 7.39275   1
   6  -3   2 248.757 8.63202  -2
  -4   7   2 248.757 8.63202   1
   6  -2   2 3.20132 13.9291  -2
  -3   7   2 3.20132 13.9291   1
   5   0   2 5.44864 7.66322  -2
  -2   7   2 5.44864 7.66322   1
   5   1   2 847.174 19.1439  -2
  -1   7   2 847.174 19.1439   1
   5   2   2 -12.189 15.5421  -2
   0   7   2 -12.189 15.5421   1
   4   4   2 -5.7509 9.66165  -2
   1   7   2 -5.7509 9.66165   1
   4   5   2 629.151 22.7156  -2
   2   7   2 629.151 22.7156   1
   4   6   2 -10.055 19.5839  -2
   3   7   2 -10.055 19.5839   1
   3   8   2 17.7019 13.5084  -2
   4   7   2 17.7019 13.5084   1
   3   9   2 74.7215 15.3057  -2
   5   7   2 74.7215 15.3057   1
   6   7   2 -24.952 30.7986   1
   8  -8   2 182.380 20.9698  -2
  -8   8   2 182.380 20.9698   1
  -7   8   2 7.23130 10.9070   1
  -6   8   2 1.14201 8.69282   1
   7  -4   2 1293.59 29.4879  -2
  -5   8   2 1293.59 29.4879   1
   7  -3   2 -0.1066 23.9011  -2
  -4   8   2 -0.1066 23.9011   1
   6  -1   2 -2.9056 8.84822  -2
  -3   8   2 -2.9056 8.84822   1
   6   0   2 356.677 13.3693  -2
  -2   8   2 356.677 13.3693   1
   6   1   2 -19.780 14.1022  -2
  -1   8   2 -19.780 14.1022   1
   5   3   2 8.28565 10.7433  -2
   0   8   2 8.28565 10.7433   1
   5   4   2 151.083 12.0408  -2
   1   8   2 151.083 12.0408   1
   5   5   2 -21.920 20.8785  -2
   2   8   2 -21.920 20.8785   1
   4   7   2 14.6055 16.7904  -2
   3   8   2 14.6055 16.7904   1
   4   8   2 79.8420 14.4682  -2
   4   8   2 79.8420 14.4682   1
   5   8   2 28.4708 48.4934   1
  -8   9   2 -3.2791 12.5087   1
   8  -6   2 -19.553 25.5318  -2
  -7   9   2 -19.553 25.5318   1
   8  -5   2 562.974 19.0543  -2
  -6   9   2 562.974 19.0543   1
  -5   9   2 -3.5501 10.7891   1
   7  -2   2 -0.1745 12.4593  -2
  -4   9   2 -0.1745 12.4593   1
   7  -1   2 286.316 15.5624  -2
  -3   9   2 286.316 15.5624   1
   7   0   2 -0.5081 16.8226  -2
  -2   9   2 -0.5081 16.8226   1
   6   2   2 0.77716 10.3761  -2
  -1   9   2 0.77716 10.3761   1
   6   3   2 136.781 12.5021  -2
   0   9   2 136.781 12.5021   1
   1   9   2 -5.1962 35.4278   1
   5   6   2 -10.118 17.0956  -2
   2   9   2 -10.118 17.0956   1
   5   7   2 54.0263 14.4578  -2
   3   9   2 54.0263 14.4578   1
   4   9   2 -5.4032 46.9229   1
   9  -6   2 265.969 16.1973  -2
  -7  10   2 265.969 16.1973   1
  -6  10   2 -20.279 11.8162   1
   8  -3   2 1.35373 13.6161  -2
  -5  10   2 1.35373 13.6161   1
   8  -2   2 158.326 11.3740  -2
  -4  10   2 158.326 11.3740   1
   8  -1   2 -8.8491 21.5086  -2
  -3  10   2 -8.8491 21.5086   1
   7   1   2 6.50171 12.1068  -2
  -2  10   2 6.50171 12.1068   1
   7   2   2 328.769 15.2951  -2
  -1  10   2 328.769 15.2951   1
   0  10   2 -13.528 35.3791   1
   6   5   2 -0.3197 16.8760  -2
   1  10   2 -0.3197 16.8760   1
   6   6   2 230.657 17.8111  -2
   2  10   2 230.657 17.8111   1
   3  10   2 -26.364 49.1904   1
   9  -4   2 5.07199 19.4940  -2
  -6  11   2 5.07199 19.4940   1
   9  -3   2 141.045 13.7086  -2
  -5  11   2 141.045 13.7086   1
   9  -2   2 -13.297 31.8060  -2
  -4  11   2 -13.297 31.8060   1
   8   0   2 -0.9724 15.3350  -2
  -3  11   2 -0.9724 15.3350   1
   8   1   2 231.213 17.4216  -2
  -2  11   2 231.213 17.4216   1
  -1  11   2 -7.2556 38.7703   1
   7   4   2 -16.100 17.4874  -2
   0  11   2 -16.100 17.4874   1
   7   5   2 226.193 18.2911  -2
   1  11   2 226.193 18.2911   1
   2  11   2 -49.568 47.7685   1
  -5  12   2 -18.119 17.7143   1
   9  -1   2 15.1352 20.5929  -2
  -4  12   2 15.1352 20.5929   1
   9   0   2 233.802 19.3776  -2
  -3  12   2 233.802 19.3776   1
  -2  12   2 7.83145 46.5558   1
   8   3   2 -24.393 16.2609  -2
  -1  12   2 -24.393 16.2609   1
   8   4   2 48.8418 16.7361  -2
   0  12   2 48.8418 16.7361   1
  -7  -6   3 -5.1953 24.1611  -2
  -1 -12   3 -5.1953 24.1611   1
  -8  -4   3 98.0728 17.2132  -2
   0 -12   3 98.0728 17.2132   1
  -8  -3   3 15.9539 20.6521  -2
   1 -12   3 15.9539 20.6521   1
   2 -12   3 -80.455 35.6481   1
  -9   0   3 123.424 24.2642  -2
   3 -12   3 123.424 24.2642   1
  -9   1   3 -3.7979 16.0896  -2
   4 -12   3 -3.7979 16.0896   1
   5 -12   3 -9.2643 14.5975   1
  -6  -7   3 0.71414 24.6677  -2
  -2 -11   3 0.71414 24.6677   1
  -7  -5   3 40.2897 14.5667  -2
  -1 -11   3 40.2897 14.5667   1
  -7  -4   3 -31.568 14.6469  -2
   0 -11   3 -31.568 14.6469   1
   1 -11   3 -16.670 32.6667   1
  -8  -1   3 29.3779 20.2458  -2
   2 -11   3 29.3779 20.2458   1
  -8   0   3 -13.466 13.5248  -2
   3 -11   3 -13.466 13.5248   1
   4 -11   3 -22.026 19.6949   1
  -9   3   3 35.2782 18.4329  -2
   5 -11   3 35.2782 18.4329   1
  -9   4   3 45.8594 19.1215  -2
   6 -11   3 45.8594 19.1215   1
  -5  -8   3 -31.066 24.6442  -2
  -3 -10   3 -31.066 24.6442   1
  -6  -6   3 31.7440 12.6759  -2
  -2 -10   3 31.7440 12.6759   1
  -6  -5   3 -12.760 16.8691  -2
  -1 -10   3 -12.760 16.8691   1
  -7  -3   3 10.9245 24.1125  -2
   0 -10   3 10.9245 24.1125   1
  -7  -2   3 242.777 23.0523  -2
   1 -10   3 242.777 23.0523   1
  -7  -1   3 -22.069 11.5259  -2
   2 -10   3 -22.069 11.5259   1
  -8   1   3 -51.561 31.7550  -2
   3 -10   3 -51.561 31.7550   1
  -8   2   3 221.451 17.3001  -2
   4 -10   3 221.451 17.3001   1
  -8   3   3 -4.5981 14.3242  -2
   5 -10   3 -4.5981 14.3242   1
   6 -10   3 -5.1642 21.9240   1
  -4  -9   3 7.02704 24.8037  -2
  -4  -9   3 7.02704 24.8037   1
  -5  -7   3 154.113 18.3798  -2
  -3  -9   3 154.113 18.3798   1
  -5  -6   3 -4.0515 10.7543  -2
  -2  -9   3 -4.0515 10.7543   1
  -6  -4   3 -41.407 19.5827  -2
  -1  -9   3 -41.407 19.5827   1
  -6  -3   3 312.533 15.6609  -2
   0  -9   3 312.533 15.6609   1
  -6  -2   3 -8.9054 11.3241  -2
   1  -9   3 -8.9054 11.3241   1
  -7   0   3 -37.107 22.3099  -2
   2  -9   3 -37.107 22.3099   1
  -7   1   3 447.548 20.2791  -2
   3  -9   3 447.548 20.2791   1
  -7   2   3 -26.012 11.6238  -2
   4  -9   3 -26.012 11.6238   1
   5  -9   3 -22.286 12.1488   1
  -8   5   3 78.4980 17.9762  -2
   6  -9   3 78.4980 17.9762   1
  -8   6   3 -0.5773 16.4536  -2
   7  -9   3 -0.5773 16.4536   1
   8  -9   3 9.73524 14.0064   1
  -3 -10   3 34.6582 27.7807  -2
  -5  -8   3 34.6582 27.7807   1
  -4  -8   3 448.682 23.3693  -2
  -4  -8   3 448.682 23.3693   1
  -4  -7   3 -4.8155 10.0978  -2
  -3  -8   3 -4.8155 10.0978   1
  -2  -8   3 -15.740 26.4590   1
  -5  -4   3 454.250 14.9825  -2
  -1  -8   3 454.250 14.9825   1
  -5  -3   3 -18.306 8.55966  -2
   0  -8   3 -18.306 8.55966   1
  -6  -1   3 -14.947 18.4826  -2
   1  -8   3 -14.947 18.4826   1
  -6   0   3 220.080 11.0606  -2
   2  -8   3 220.080 11.0606   1
  -6   1   3 -3.0957 10.1269  -2
   3  -8   3 -3.0957 10.1269   1
  -7   3   3 22.8351 42.0549  -2
   4  -8   3 22.8351 42.0549   1
  -7   4   3 251.085 12.9840  -2
   5  -8   3 251.085 12.9840   1
  -7   5   3 17.7164 17.5630  -2
   6  -8   3 17.7164 17.5630   1
   7  -8   3 -7.0991 12.6579   1
  -8   8   3 246.531 18.0231  -2
   8  -8   3 246.531 18.0231   1
  -2 -11   3 27.9835 30.2351  -2
  -6  -7   3 27.9835 30.2351   1
  -3  -9   3 223.240 19.5684  -2
  -5  -7   3 223.240 19.5684   1
  -3  -8   3 -1.1795 12.1631  -2
  -4  -7   3 -1.1795 12.1631   1
  -3  -7   3 5.32046 19.7102   1
  -4  -5   3 308.984 11.8758  -2
  -2  -7   3 308.984 11.8758   1
  -4  -4   3 -8.4175 8.20870  -2
  -1  -7   3 -8.4175 8.20870   1
  -5  -2   3 -0.3344 14.1586  -2
   0  -7   3 -0.3344 14.1586   1
  -5  -1   3 618.525 17.3754  -2
   1  -7   3 618.525 17.3754   1
  -5   0   3 -11.225 9.96440  -2
   2  -7   3 -11.225 9.96440   1
  -6   2   3 7.05868 35.0680  -2
   3  -7   3 7.05868 35.0680   1
  -6   3   3 949.162 25.2831  -2
   4  -7   3 949.162 25.2831   1
  -6   4   3 -29.388 15.2914  -2
   5  -7   3 -29.388 15.2914   1
   6  -7   3 4.70423 19.7380   1
  -7   7   3 837.598 30.0975  -2
   7  -7   3 837.598 30.0975   1
   8  -7   3 2.08088 14.8956   1
   9  -7   3 -8.2234 16.0519   1
  -7  -6   3 -3.9373 30.3070   1
  -2 -10   3 31.0265 18.7647  -2
  -6  -6   3 31.0265 18.7647   1
  -2  -9   3 -7.1557 12.7874  -2
  -5  -6   3 -7.1557 12.7874   1
  -4  -6   3 -20.042 18.6664   1
  -3  -6   3 204.636 11.9765  -2
  -3  -6   3 204.636 11.9765   1
  -3  -5   3 -1.2654 6.88281  -2
  -2  -6   3 -1.2654 6.88281   1
  -4  -3   3 -17.407 13.5738  -2
  -1  -6   3 -17.407 13.5738   1
  -4  -2   3 1169.49 28.4090  -2
   0  -6   3 1169.49 28.4090   1
  -4  -1   3 -11.692 14.9449  -2
   1  -6   3 -11.692 14.9449   1
  -5   1   3 -8.2120 16.4563  -2
   2  -6   3 -8.2120 16.4563   1
  -5   2   3 1412.23 31.7164  -2
   3  -6   3 1412.23 31.7164   1
  -5   3   3 -12.574 22.7337  -2
   4  -6   3 -12.574 22.7337   1
   5  -6   3 5.15293 10.3919   1
  -6   6   3 885.153 30.0730  -2
   6  -6   3 885.153 30.0730   1
   7  -6   3 12.4678 11.9787   1
   8  -6   3 0.56573 14.3537   1
  -7  10   3 44.0736 16.8829  -2
   9  -6   3 44.0736 16.8829   1
  -1 -11   3 22.0231 15.6247  -2
  -7  -5   3 22.0231 15.6247   1
  -1 -10   3 22.5889 13.5020  -2
  -6  -5   3 22.5889 13.5020   1
  -5  -5   3 6.94845 20.1850   1
  -2  -7   3 609.800 19.5918  -2
  -4  -5   3 609.800 19.5918   1
  -2  -6   3 -8.4360 9.08634  -2
  -3  -5   3 -8.4360 9.08634   1
  -3  -4   3 3.33434 11.4339  -2
  -2  -5   3 3.33434 11.4339   1
  -3  -3   3 1530.35 31.4261  -2
  -1  -5   3 1530.35 31.4261   1
  -3  -2   3 -22.571 12.4263  -2
   0  -5   3 -22.571 12.4263   1
   1  -5   3 4.44717 5.88219   1
  -4   1   3 231.572 8.03294  -2
   2  -5   3 231.572 8.03294   1
  -4   2   3 0.00389 15.7492  -2
   3  -5   3 0.00389 15.7492   1
  -5   4   3 9.12124 33.1410  -2
   4  -5   3 9.12124 33.1410   1
  -5   5   3 484.156 15.2618  -2
   5  -5   3 484.156 15.2618   1
   6  -5   3 -15.886 9.22548   1
   7  -5   3 -23.286 11.5105   1
  -6   9   3 114.695 15.5020  -2
   8  -5   3 114.695 15.5020   1
   9  -5   3 32.8314 45.6121   1
   0 -12   3 234.612 24.3462  -2
  -8  -4   3 234.612 24.3462   1
   0 -11   3 -26.378 18.2199  -2
  -7  -4   3 -26.378 18.2199   1
  -6  -4   3 -17.753 21.3255   1
  -1  -8   3 675.456 21.4387  -2
  -5  -4   3 675.456 21.4387   1
  -1  -7   3 -1.5035 9.72693  -2
  -4  -4   3 -1.5035 9.72693   1
  -3  -4   3 -9.8282 11.8573   1
  -2  -4   3 890.998 22.6639  -2
  -2  -4   3 890.998 22.6639   1
  -1  -4   3 -3.9165 7.89433   1
   0  -4   3 15.5307 5.48008   1
  -3   0   3 271.020 7.97469  -2
   1  -4   3 271.020 7.97469   1
   2  -4   3 8.76115 6.09897   1
  -4   3   3 -6.1105 26.4807  -2
   3  -4   3 -6.1105 26.4807   1
  -4   4   3 110.789 6.87446  -2
   4  -4   3 110.789 6.87446   1
   5  -4   3 1.56977 7.52514   1
   6  -4   3 -1.5888 9.53531   1
  -5   8   3 351.784 13.7467  -2
   7  -4   3 351.784 13.7467   1
  -5   9   3 12.9259 50.4969  -2
   8  -4   3 12.9259 50.4969   1
  -6  11   3 -7.9253 34.7777  -2
   9  -4   3 -7.9253 34.7777   1
   1 -12   3 -44.456 20.6849  -2
  -8  -3   3 -44.456 20.6849   1
  -7  -3   3 16.4945 23.3784   1
   0  -9   3 296.668 15.8247  -2
  -6  -3   3 296.668 15.8247   1
   0  -8   3 -6.7630 11.0941  -2
  -5  -3   3 -6.7630 11.0941   1
  -4  -3   3 -3.1917 13.5327   1
  -1  -5   3 902.694 23.1452  -2
  -3  -3   3 902.694 23.1452   1
  -2  -3   3 1.80676 8.64215   1
  -1  -3   3 -0.3356 7.19258   1
  -2  -1   3 2121.38 48.0489  -2
   0  -3   3 2121.38 48.0489   1
  -2   0   3 1.92404 16.4576  -2
   1  -3   3 1.92404 16.4576   1
   2  -3   3 -1.5706 5.21960   1
  -3   3   3 2545.37 53.7743  -2
   3  -3   3 2545.37 53.7743   1
   4  -3   3 -6.3188 6.04642   1
   5  -3   3 -0.6507 7.44017   1
  -4   7   3 688.185 16.1143  -2
   6  -3   3 688.185 16.1143   1
   7  -3   3 3.12349 17.9600   1
  -5  10   3 -12.679 19.0791  -2
   8  -3   3 -12.679 19.0791   1
  -5  11   3 208.086 31.3872  -2
   9  -3   3 208.086 31.3872   1
  -9  -2   3 -10.359 35.5463   1
  -8  -2   3 -7.0623 27.2360   1
   1 -10   3 169.264 18.1021  -2
  -7  -2   3 169.264 18.1021   1
   1  -9   3 -3.1222 12.0659  -2
  -6  -2   3 -3.1222 12.0659   1
  -5  -2   3 6.31865 17.3336   1
   0  -6   3 1124.54 24.7108  -2
  -4  -2   3 1124.54 24.7108   1
   0  -5   3 -11.561 21.2996  -2
  -3  -2   3 -11.561 21.2996   1
  -2  -2   3 2.72139 7.86474   1
  -1  -2   3 58.9193 5.33836  -2
  -1  -2   3 58.9193 5.33836   1
   0  -2   3 0.20749 7.55494   1
   1  -2   3 1.96167 4.60823   1
  -2   2   3 3730.31 77.2222  -2
   2  -2   3 3730.31 77.2222   1
   3  -2   3 -11.427 5.66214   1
   4  -2   3 -7.9465 5.89342   1
  -3   6   3 1474.91 31.5768  -2
   5  -2   3 1474.91 31.5768   1
  -3   7   3 11.8133 29.7963  -2
   6  -2   3 11.8133 29.7963   1
  -4   9   3 -6.3673 24.4543  -2
   7  -2   3 -6.3673 24.4543   1
  -4  10   3 125.621 24.3503  -2
   8  -2   3 125.621 24.3503   1
   9  -2   3 1.53758 35.5489   1
  -9  -1   3 -9.2881 32.5831   1
   2 -11   3 49.1635 18.6128  -2
  -8  -1   3 49.1635 18.6128   1
   2 -10   3 -0.2447 14.5619  -2
  -7  -1   3 -0.2447 14.5619   1
   1  -8   3 -22.923 30.8893  -2
  -6  -1   3 -22.923 30.8893   1
   1  -7   3 926.967 25.8592  -2
  -5  -1   3 926.967 25.8592   1
   1  -6   3 18.5086 25.0463  -2
  -4  -1   3 18.5086 25.0463   1
  -3  -1   3 -7.8229 6.48382   1
   0  -3   3 3358.27 76.3956  -2
  -2  -1   3 3358.27 76.3956   1
  -1  -1   3 -5.1692 13.5309   1
  -1   1   3 906.223 29.9262  -2
   1  -1   3 906.223 29.9262   1
   2  -1   3 0.06341 5.10465   1
   3  -1   3 1.71479 8.77834   1
  -2   5   3 923.027 20.4324  -2
   4  -1   3 923.027 20.4324   1
  -2   6   3 26.9323 27.3107  -2
   5  -1   3 26.9323 27.3107   1
  -3   8   3 -7.5636 12.9409  -2
   6  -1   3 -7.5636 12.9409   1
  -3   9   3 372.677 22.3419  -2
   7  -1   3 372.677 22.3419   1
   8  -1   3 12.5632 29.5656   1
  -4  12   3 1.15962 31.0779  -2
   9  -1   3 1.15962 31.0779   1
   3 -12   3 145.086 23.0993  -2
  -9   0   3 145.086 23.0993   1
   3 -11   3 -5.1643 20.6899  -2
  -8   0   3 -5.1643 20.6899   1
   2  -9   3 -57.890 36.3751  -2
  -7   0   3 -57.890 36.3751   1
   2  -8   3 343.130 15.7346  -2
  -6   0   3 343.130 15.7346   1
   2  -7   3 6.29317 14.9207  -2
  -5   0   3 6.29317 14.9207   1
   1  -5   3 -9.1446 25.8397  -2
  -4   0   3 -9.1446 25.8397   1
   1  -4   3 440.377 10.4379  -2
  -3   0   3 440.377 10.4379   1
  -2   0   3 0.86534 3.59035   1
   1   0   3 -0.5184 2.85078   1
   2   0   3 -9.5172 3.15225   1
  -1   4   3 615.563 13.6080  -2
   3   0   3 615.563 13.6080   1
   4   0   3 5.19885 4.74965   1
  -2   7   3 -9.1617 17.1470  -2
   5   0   3 -9.1617 17.1470   1
  -2   8   3 861.520 30.5790  -2
   6   0   3 861.520 30.5790   1
  -2   9   3 26.7401 20.8527  -2
   7   0   3 26.7401 20.8527   1
  -3  11   3 29.0898 26.5738  -2
   8   0   3 29.0898 26.5738   1
  -3  12   3 194.708 32.0907  -2
   9   0   3 194.708 32.0907   1
   4 -12   3 6.44244 32.3958  -2
  -9   1   3 6.44244 32.3958   1
  -8   1   3 24.4279 30.9109   1
   3  -9   3 312.559 21.1615  -2
  -7   1   3 312.559 21.1615   1
   3  -8   3 11.0398 12.5296  -2
  -6   1   3 11.0398 12.5296   1
   2  -6   3 -27.524 29.4909  -2
  -5   1   3 -27.524 29.4909   1
   2  -5   3 232.154 7.92914  -2
  -4   1   3 232.154 7.92914   1
  -3   1   3 0.20191 5.13932   1
  -2   1   3 -1.3198 3.92848   1
   1  -1   3 832.850 15.8643  -2
  -1   1   3 832.850 15.8643   1
   0   1   3 3.31852 3.16797   1
   1   1   3 2.52112 3.37593   1
   0   3   3 1176.27 23.8056  -2
   2   1   3 1176.27 23.8056   1
   3   1   3 14.3278 9.86284   1
   4   1   3 -10.008 12.0159   1
  -1   7   3 527.815 16.6109  -2
   5   1   3 527.815 16.6109   1
  -1   8   3 -12.496 17.5821  -2
   6   1   3 -12.496 17.5821   1
  -2  10   3 3.39813 21.0884  -2
   7   1   3 3.39813 21.0884   1
  -2  11   3 99.3599 24.9374  -2
   8   1   3 99.3599 24.9374   1
   9   1   3 34.2922 47.0272   1
  -9   2   3 5.76726 27.9931   1
   4 -10   3 160.322 17.3194  -2
  -8   2   3 160.322 17.3194   1
   4  -9   3 -15.011 14.9764  -2
  -7   2   3 -15.011 14.9764   1
   3  -7   3 -11.977 32.2554  -2
  -6   2   3 -11.977 32.2554   1
   3  -6   3 1386.33 30.2707  -2
  -5   2   3 1386.33 30.2707   1
  -4   2   3 -2.2186 6.49012   1
  -3   2   3 1.88646 5.34039   1
   2  -2   3 3700.57 66.4340  -2
  -2   2   3 3700.57 66.4340   1
  -1   2   3 3.09312 2.23811   1
   0   2   3 0.71681 3.55364   1
   1   2   3 2109.62 57.3014  -2
   1   2   3 2109.62 57.3014   1
   2   2   3 1.80406 9.29868   1
   3   2   3 -14.367 10.0185   1
   0   6   3 1103.35 27.9699  -2
   4   2   3 1103.35 27.9699   1
   0   7   3 -9.6407 15.3066  -2
   5   2   3 -9.6407 15.3066   1
  -1   9   3 -4.6140 15.0026  -2
   6   2   3 -4.6140 15.0026   1
  -1  10   3 233.675 24.5532  -2
   7   2   3 233.675 24.5532   1
   8   2   3 -17.122 32.5429   1
   5 -11   3 78.7883 17.0069  -2
  -9   3   3 78.7883 17.0069   1
   5 -10   3 -15.763 18.0775  -2
  -8   3   3 -15.763 18.0775   1
   4  -8   3 -3.8611 39.2715  -2
  -7   3   3 -3.8611 39.2715   1
   4  -7   3 1063.72 25.3865  -2
  -6   3   3 1063.72 25.3865   1
  -5   3   3 -12.156 8.13267   1
  -4   3   3 -8.4385 6.68812   1
   3  -3   3 2449.89 45.7477  -2
  -3   3   3 2449.89 45.7477   1
  -2   3   3 -1.0447 3.78362   1
  -1   3   3 1.58577 3.51149   1
   2   1   3 641.433 15.5121  -2
   0   3   3 641.433 15.5121   1
   1   3   3 2.27549 3.78807   1
   2   3   3 -2.1826 9.27330   1
   1   5   3 388.951 12.3569  -2
   3   3   3 388.951 12.3569   1
   4   3   3 17.9929 15.2546   1
   0   8   3 9.72648 14.1454  -2
   5   3   3 9.72648 14.1454   1
   0   9   3 399.290 27.8689  -2
   6   3   3 399.290 27.8689   1
   7   3   3 -22.992 27.2580   1
  -1  12   3 -21.885 24.3023  -2
   8   3   3 -21.885 24.3023   1
   6 -11   3 13.7134 20.7226  -2
  -9   4   3 13.7134 20.7226   1
  -8   4   3 -19.317 25.0614   1
   5  -8   3 458.333 16.1100  -2
  -7   4   3 458.333 16.1100   1
   5  -7   3 -34.196 32.8762  -2
  -6   4   3 -34.196 32.8762   1
  -5   4   3 -9.7393 8.58519   1
   4  -4   3 117.530 5.29640  -2
  -4   4   3 117.530 5.29640   1
  -3   4   3 3.83412 4.29730   1
  -2   4   3 -1.9181 4.05828   1
   3   0   3 335.657 9.93337  -2
  -1   4   3 335.657 9.93337   1
   0   4   3 3.75597 3.43415   1
   1   4   3 -3.6360 6.15844   1
   2   4   3 1043.20 30.9046  -2
   2   4   3 1043.20 30.9046   1
   3   4   3 -4.3862 13.6468   1
   1   7   3 -1.6121 14.5471  -2
   4   4   3 -1.6121 14.5471   1
   1   8   3 645.790 25.6684  -2
   5   4   3 645.790 25.6684   1
   6   4   3 30.5955 25.4971   1
   0  11   3 15.6694 21.1463  -2
   7   4   3 15.6694 21.1463   1
  -9   5   3 -6.6742 24.3257   1
   6  -9   3 198.673 17.7243  -2
  -8   5   3 198.673 17.7243   1
  -7   5   3 -19.750 16.7962   1
  -6   5   3 -21.550 9.63894   1
   5  -5   3 468.022 11.7974  -2
  -5   5   3 468.022 11.7974   1
  -4   5   3 6.31817 5.44596   1
  -3   5   3 -0.2080 4.64329   1
   4  -1   3 1222.26 25.2519  -2
  -2   5   3 1222.26 25.2519   1
  -1   5   3 5.31262 4.31281   1
   0   5   3 -3.9581 5.63105   1
   3   3   3 568.976 15.2668  -2
   1   5   3 568.976 15.2668   1
   3   4   3 5.49793 15.4005  -2
   2   5   3 5.49793 15.4005   1
   2   6   3 -15.305 12.2054  -2
   3   5   3 -15.305 12.2054   1
   2   7   3 706.260 35.3116  -2
   4   5   3 706.260 35.3116   1
   5   5   3 -1.1429 23.4165   1
   1  10   3 11.5120 18.8156  -2
   6   5   3 11.5120 18.8156   1
   1  11   3 86.7736 24.1133  -2
   7   5   3 86.7736 24.1133   1
   7 -10   3 208.368 26.2706  -2
  -9   6   3 208.368 26.2706   1
  -8   6   3 0.46177 26.7648   1
  -7   6   3 -18.205 17.2611   1
   6  -6   3 852.465 18.9044  -2
  -6   6   3 852.465 18.9044   1
  -5   6   3 7.08568 6.76480   1
   5  -3   3 -1.6946 18.7396  -2
  -4   6   3 -1.6946 18.7396   1
   5  -2   3 1536.38 30.0753  -2
  -3   6   3 1536.38 30.0753   1
   5  -1   3 -2.3335 11.8849  -2
  -2   6   3 -2.3335 11.8849   1
  -1   6   3 0.06172 4.94882   1
   4   2   3 1244.58 36.9042  -2
   0   6   3 1244.58 36.9042   1
   4   3   3 5.09200 14.3905  -2
   1   6   3 5.09200 14.3905   1
   3   5   3 4.56611 9.99395  -2
   2   6   3 4.56611 9.99395   1
   3   6   3 112.736 12.0610  -2
   3   6   3 112.736 12.0610   1
   3   7   3 -3.6446 24.1396  -2
   4   6   3 -3.6446 24.1396   1
   2   9   3 2.88859 14.4268  -2
   5   6   3 2.88859 14.4268   1
   2  10   3 33.8405 15.1395  -2
   6   6   3 33.8405 15.1395   1
  -9   7   3 -20.385 24.4810   1
  -8   7   3 12.2180 28.4883   1
   7  -7   3 935.474 33.0939  -2
  -7   7   3 935.474 33.0939   1
  -6   7   3 -12.930 8.04102   1
  -5   7   3 -22.181 7.09284   1
   6  -3   3 522.125 12.7550  -2
  -4   7   3 522.125 12.7550   1
   6  -2   3 3.08241 19.1486  -2
  -3   7   3 3.08241 19.1486   1
   5   0   3 -3.3577 12.2815  -2
  -2   7   3 -3.3577 12.2815   1
   5   1   3 275.810 11.0586  -2
  -1   7   3 275.810 11.0586   1
   5   2   3 -7.8919 15.6468  -2
   0   7   3 -7.8919 15.6468   1
   4   4   3 1.13456 9.71894  -2
   1   7   3 1.13456 9.71894   1
   4   5   3 373.209 16.9163  -2
   2   7   3 373.209 16.9163   1
   4   6   3 1.05837 21.2395  -2
   3   7   3 1.05837 21.2395   1
   3   8   3 14.6055 14.2661  -2
   4   7   3 14.6055 14.2661   1
   3   9   3 300.886 19.3267  -2
   5   7   3 300.886 19.3267   1
   6   7   3 11.9144 32.1634   1
   8  -8   3 255.372 22.9260  -2
  -8   8   3 255.372 22.9260   1
  -7   8   3 -24.203 11.0094   1
  -6   8   3 3.99803 8.59465   1
   7  -4   3 175.791 9.77787  -2
  -5   8   3 175.791 9.77787   1
   7  -3   3 -52.363 22.1346  -2
  -4   8   3 -52.363 22.1346   1
   6  -1   3 13.6036 10.5623  -2
  -3   8   3 13.6036 10.5623   1
   6   0   3 414.758 14.7457  -2
  -2   8   3 414.758 14.7457   1
   6   1   3 -8.9644 13.7227  -2
  -1   8   3 -8.9644 13.7227   1
   5   3   3 2.60324 10.8392  -2
   0   8   3 2.60324 10.8392   1
   5   4   3 416.784 17.9634  -2
   1   8   3 416.784 17.9634   1
   5   5   3 -23.611 21.2636  -2
   2   8   3 -23.611 21.2636   1
   4   8   3 423.870 21.4548  -2
   4   8   3 423.870 21.4548   1
   5   8   3 15.4247 48.9535   1
  -8   9   3 -5.0585 12.3983   1
   8  -6   3 -56.718 24.7341  -2
  -7   9   3 -56.718 24.7341   1
   8  -5   3 113.445 12.0206  -2
  -6   9   3 113.445 12.0206   1
   8  -4   3 -27.633 27.3422  -2
  -5   9   3 -27.633 27.3422   1
   7  -2   3 -5.0717 13.9442  -2
  -4   9   3 -5.0717 13.9442   1
   7  -1   3 603.248 19.5860  -2
  -3   9   3 603.248 19.5860   1
   7   0   3 -5.6517 17.0238  -2
  -2   9   3 -5.6517 17.0238   1
   6   2   3 1.72965 10.4555  -2
  -1   9   3 1.72965 10.4555   1
   6   3   3 380.159 15.4958  -2
   0   9   3 380.159 15.4958   1
   1   9   3 -3.1352 35.7084   1
   5   6   3 8.09090 18.2669  -2
   2   9   3 8.09090 18.2669   1
   5   7   3 253.863 18.2473  -2
   3   9   3 253.863 18.2473   1
   4   9   3 -5.1146 47.7249   1
   9  -6   3 129.863 13.9425  -2
  -7  10   3 129.863 13.9425   1
  -6  10   3 14.5459 12.3200   1
   8  -3   3 -5.5716 13.6501  -2
  -5  10   3 -5.5716 13.6501   1
   8  -2   3 160.092 11.3518  -2
  -4  10   3 160.092 11.3518   1
   8  -1   3 -28.625 27.5258  -2
  -3  10   3 -28.625 27.5258   1
   7   1   3 -8.2623 12.3844  -2
  -2  10   3 -8.2623 12.3844   1
   7   2   3 422.241 17.7704  -2
  -1  10   3 422.241 17.7704   1
   0  10   3 66.5804 41.2912   1
   6   5   3 7.18195 17.5395  -2
   1  10   3 7.18195 17.5395   1
   6   6   3 -6.9835 14.6433  -2
   2  10   3 -6.9835 14.6433   1
   3  10   3 -20.504 49.7139   1
   9  -4   3 -20.016 15.9710  -2
  -6  11   3 -20.016 15.9710   1
   9  -3   3 225.347 14.4806  -2
  -5  11   3 225.347 14.4806   1
  -4  11   3 -8.7555 24.4399   1
   8   0   3 -10.174 14.9903  -2
  -3  11   3 -10.174 14.9903   1
   8   1   3 63.4679 14.5731  -2
  -2  11   3 63.4679 14.5731   1
  -1  11   3 -16.173 39.0820   1
   7   4   3 -8.3502 18.2641  -2
   0  11   3 -8.3502 18.2641   1
   7   5   3 21.2957 15.2396  -2
   1  11   3 21.2957 15.2396   1
  -5  12   3 -53.168 43.6261   1
   9  -1   3 0.02837 20.4697  -2
  -4  12   3 0.02837 20.4697   1
   9   0   3 122.667 17.5031  -2
  -3  12   3 122.667 17.5031   1
  -2  12   3 17.7314 47.0318   1
   8   3   3 5.25919 19.6332  -2
  -1  12   3 5.25919 19.6332   1
  -7  -6   4 -22.560 26.1589  -2
  -1 -12   4 -22.560 26.1589   1
  -8  -4   4 29.1883 15.9199  -2
   0 -12   4 29.1883 15.9199   1
  -8  -3   4 -15.811 16.8488  -2
   1 -12   4 -15.811 16.8488   1
  -8  -2   4 -3.1121 21.2602  -2
   2 -12   4 -3.1121 21.2602   1
  -9   0   4 136.780 25.0917  -2
   3 -12   4 136.780 25.0917   1
  -9   1   4 8.13686 16.5140  -2
   4 -12   4 8.13686 16.5140   1
   5 -12   4 4.63232 17.6484   1
  -6  -7   4 5.30680 24.6467  -2
  -2 -11   4 5.30680 24.6467   1
  -7  -5   4 209.297 17.2091  -2
  -1 -11   4 209.297 17.2091   1
  -7  -4   4 -8.3964 18.6283  -2
   0 -11   4 -8.3964 18.6283   1
  -8  -2   4 -16.105 29.8370  -2
   1 -11   4 -16.105 29.8370   1
  -8  -1   4 204.506 24.3986  -2
   2 -11   4 204.506 24.3986   1
  -8   0   4 -10.666 13.2663  -2
   3 -11   4 -10.666 13.2663   1
   4 -11   4 21.3790 21.0067   1
  -9   3   4 161.729 17.5651  -2
   5 -11   4 161.729 17.5651   1
  -9   4   4 -8.5384 19.1957  -2
   6 -11   4 -8.5384 19.1957   1
  -5  -8   4 -1.6835 26.4861  -2
  -3 -10   4 -1.6835 26.4861   1
  -6  -6   4 204.991 25.5467  -2
  -2 -10   4 204.991 25.5467   1
  -6  -5   4 -14.608 13.0484  -2
  -1 -10   4 -14.608 13.0484   1
   0 -10   4 3.07666 30.2633   1
  -7  -2   4 306.039 17.8845  -2
   1 -10   4 306.039 17.8845   1
  -7  -1   4 -22.632 11.6555  -2
   2 -10   4 -22.632 11.6555   1
  -8   1   4 8.63451 45.9930  -2
   3 -10   4 8.63451 45.9930   1
  -8   2   4 247.482 14.4671  -2
   4 -10   4 247.482 14.4671   1
  -8   3   4 -21.456 14.2142  -2
   5 -10   4 -21.456 14.2142   1
   6 -10   4 -1.1842 23.8468   1
  -9   6   4 134.083 21.6222  -2
   7 -10   4 134.083 21.6222   1
  -4  -9   4 -32.703 25.9182  -2
  -4  -9   4 -32.703 25.9182   1
  -5  -7   4 79.2705 17.3838  -2
  -3  -9   4 79.2705 17.3838   1
  -5  -6   4 -12.413 10.7781  -2
  -2  -9   4 -12.413 10.7781   1
  -6  -4   4 -37.459 19.8986  -2
  -1  -9   4 -37.459 19.8986   1
  -6  -3   4 114.511 12.6424  -2
   0  -9   4 114.511 12.6424   1
  -6  -2   4 -7.2810 10.5388  -2
   1  -9   4 -7.2810 10.5388   1
  -7   0   4 -5.3468 23.6011  -2
   2  -9   4 -5.3468 23.6011   1
  -7   1   4 315.350 14.1369  -2
   3  -9   4 315.350 14.1369   1
  -7   2   4 13.8731 15.6846  -2
   4  -9   4 13.8731 15.6846   1
  -8   4   4 5.79813 26.0623  -2
   5  -9   4 5.79813 26.0623   1
  -8   6   4 -20.485 19.0425  -2
   7  -9   4 -20.485 19.0425   1
   8  -9   4 4.31282 14.6253   1
  -3 -10   4 45.2304 28.4984  -2
  -5  -8   4 45.2304 28.4984   1
  -4  -8   4 16.9483 13.5834  -2
  -4  -8   4 16.9483 13.5834   1
  -4  -7   4 -4.6563 11.8357  -2
  -3  -8   4 -4.6563 11.8357   1
  -5  -5   4 -4.3527 17.2414  -2
  -2  -8   4 -4.3527 17.2414   1
  -5  -4   4 328.890 12.7423  -2
  -1  -8   4 328.890 12.7423   1
  -5  -3   4 -2.7247 8.77616  -2
   0  -8   4 -2.7247 8.77616   1
  -6  -1   4 -8.2157 19.1436  -2
   1  -8   4 -8.2157 19.1436   1
  -6   0   4 274.215 11.3997  -2
   2  -8   4 274.215 11.3997   1
  -6   1   4 0.26297 12.6922  -2
   3  -8   4 0.26297 12.6922   1
  -7   3   4 28.5004 42.4186  -2
   4  -8   4 28.5004 42.4186   1
  -7   4   4 919.618 25.9432  -2
   5  -8   4 919.618 25.9432   1
  -7   5   4 -15.633 13.6464  -2
   6  -8   4 -15.633 13.6464   1
   7  -8   4 -26.415 12.8957   1
  -8   8   4 154.250 16.2995  -2
   8  -8   4 154.250 16.2995   1
  -2 -11   4 12.3795 29.9418  -2
  -6  -7   4 12.3795 29.9418   1
  -3  -9   4 117.234 17.9133  -2
  -5  -7   4 117.234 17.9133   1
  -3  -8   4 0.85970 12.3491  -2
  -4  -7   4 0.85970 12.3491   1
  -4  -6   4 -8.3307 15.7819  -2
  -3  -7   4 -8.3307 15.7819   1
  -4  -5   4 817.764 22.0309  -2
  -2  -7   4 817.764 22.0309   1
  -4  -4   4 -12.780 8.22288  -2
  -1  -7   4 -12.780 8.22288   1
  -5  -2   4 -4.3209 17.5198  -2
   0  -7   4 -4.3209 17.5198   1
  -5  -1   4 654.558 18.1782  -2
   1  -7   4 654.558 18.1782   1
  -5   0   4 -3.3466 8.59566  -2
   2  -7   4 -3.3466 8.59566   1
  -6   2   4 -12.799 20.6746  -2
   3  -7   4 -12.799 20.6746   1
  -6   3   4 378.148 13.9975  -2
   4  -7   4 378.148 13.9975   1
  -6   4   4 10.4303 12.5110  -2
   5  -7   4 10.4303 12.5110   1
   6  -7   4 -13.220 20.2684   1
  -7   7   4 5.51806 11.4394  -2
   7  -7   4 5.51806 11.4394   1
   8  -7   4 -16.293 15.3329   1
   9  -7   4 -11.835 16.8599   1
  -7  -6   4 -1.0591 33.5647   1
  -2 -10   4 288.300 22.4227  -2
  -6  -6   4 288.300 22.4227   1
  -2  -9   4 0.96952 12.7457  -2
  -5  -6   4 0.96952 12.7457   1
  -4  -6   4 14.4186 19.9742   1
  -3  -6   4 436.619 15.8908  -2
  -3  -6   4 436.619 15.8908   1
  -3  -5   4 -7.5436 7.54690  -2
  -2  -6   4 -7.5436 7.54690   1
  -1  -6   4 3.04595 5.69014   1
  -4  -2   4 603.748 16.5141  -2
   0  -6   4 603.748 16.5141   1
  -4  -1   4 -12.509 16.9477  -2
   1  -6   4 -12.509 16.9477   1
  -5   1   4 -7.0029 16.2860  -2
   2  -6   4 -7.0029 16.2860   1
  -5   2   4 334.593 11.0672  -2
   3  -6   4 334.593 11.0672   1
  -5   3   4 -13.877 18.3121  -2
   4  -6   4 -13.877 18.3121   1
   5  -6   4 7.85898 10.4118   1
  -6   6   4 350.106 16.7815  -2
   6  -6   4 350.106 16.7815   1
   7  -6   4 6.45647 12.2169   1
   8  -6   4 -14.622 14.7983   1
  -7  10   4 362.672 32.8230  -2
   9  -6   4 362.672 32.8230   1
  -1 -11   4 351.507 24.4965  -2
  -7  -5   4 351.507 24.4965   1
  -1 -10   4 -4.2682 13.2250  -2
  -6  -5   4 -4.2682 13.2250   1
  -5  -5   4 9.62590 20.2715   1
  -2  -7   4 502.675 21.1272  -2
  -4  -5   4 502.675 21.1272   1
  -2  -6   4 -2.5400 7.26969  -2
  -3  -5   4 -2.5400 7.26969   1
  -3  -4   4 -7.7709 11.5517  -2
  -2  -5   4 -7.7709 11.5517   1
  -3  -3   4 161.555 7.44471  -2
  -1  -5   4 161.555 7.44471   1
  -3  -2   4 4.16633 13.2165  -2
   0  -5   4 4.16633 13.2165   1
  -4   0   4 -4.3477 18.5885  -2
   1  -5   4 -4.3477 18.5885   1
  -4   1   4 507.844 13.1526  -2
   2  -5   4 507.844 13.1526   1
  -4   2   4 -1.8676 15.0746  -2
   3  -5   4 -1.8676 15.0746   1
  -5   4   4 6.65706 32.5980  -2
   4  -5   4 6.65706 32.5980   1
  -5   5   4 1211.25 30.7127  -2
   5  -5   4 1211.25 30.7127   1
   6  -5   4 -19.288 10.0104   1
  -6   8   4 11.1715 45.1337  -2
   7  -5   4 11.1715 45.1337   1
  -6   9   4 285.531 18.9068  -2
   8  -5   4 285.531 18.9068   1
  -6  10   4 3.77216 56.4910  -2
   9  -5   4 3.77216 56.4910   1
   0 -12   4 56.7552 17.5081  -2
  -8  -4   4 56.7552 17.5081   1
   0 -11   4 -1.2927 14.9065  -2
  -7  -4   4 -1.2927 14.9065   1
  -6  -4   4 -2.5341 21.6965   1
  -1  -8   4 242.783 16.0638  -2
  -5  -4   4 242.783 16.0638   1
  -1  -7   4 13.3761 9.97118  -2
  -4  -4   4 13.3761 9.97118   1
  -2  -5   4 -3.5896 9.45924  -2
  -3  -4   4 -3.5896 9.45924   1
  -2  -4   4 1004.37 25.1664  -2
  -2  -4   4 1004.37 25.1664   1
  -2  -3   4 -10.936 10.2786  -2
  -1  -4   4 -10.936 10.2786   1
  -3  -1   4 22.7787 15.1829  -2
   0  -4   4 22.7787 15.1829   1
  -3   0   4 2041.94 43.1070  -2
   1  -4   4 2041.94 43.1070   1
  -3   1   4 -13.219 17.7656  -2
   2  -4   4 -13.219 17.7656   1
  -4   3   4 3.01281 25.1763  -2
   3  -4   4 3.01281 25.1763   1
  -4   4   4 1222.53 27.9372  -2
   4  -4   4 1222.53 27.9372   1
  -4   5   4 -29.372 36.4118  -2
   5  -4   4 -29.372 36.4118   1
   6  -4   4 20.0068 9.75743   1
  -5   8   4 563.292 23.3830  -2
   7  -4   4 563.292 23.3830   1
  -5   9   4 20.4449 50.7914  -2
   8  -4   4 20.4449 50.7914   1
  -6  11   4 50.6412 35.4018  -2
   9  -4   4 50.6412 35.4018   1
   1 -12   4 11.6719 16.8340  -2
  -8  -3   4 11.6719 16.8340   1
  -7  -3   4 7.13024 23.9434   1
   0  -9   4 190.319 12.3692  -2
  -6  -3   4 190.319 12.3692   1
   0  -8   4 -3.3131 10.4427  -2
  -5  -3   4 -3.3131 10.4427   1
  -1  -6   4 12.4292 23.9445  -2
  -4  -3   4 12.4292 23.9445   1
  -1  -5   4 188.936 8.84077  -2
  -3  -3   4 188.936 8.84077   1
  -2  -3   4 -0.5130 8.87662   1
  -1  -3   4 -7.1504 7.23471   1
  -2  -1   4 1047.93 24.5927  -2
   0  -3   4 1047.93 24.5927   1
  -2   0   4 2.07652 14.5509  -2
   1  -3   4 2.07652 14.5509   1
   2  -3   4 -1.2527 5.42773   1
  -3   3   4 1180.33 26.2887  -2
   3  -3   4 1180.33 26.2887   1
  -3   4   4 0.61695 26.3405  -2
   4  -3   4 0.61695 26.3405   1
   5  -3   4 -11.056 7.70358   1
  -4   7   4 317.466 13.2035  -2
   6  -3   4 317.466 13.2035   1
   7  -3   4 -9.8679 11.3714   1
   8  -3   4 18.0028 29.7209   1
  -5  11   4 128.326 28.7140  -2
   9  -3   4 128.326 28.7140   1
  -9  -2   4 23.2952 42.9935   1
  -8  -2   4 -11.574 28.3244   1
   1 -10   4 296.045 20.5540  -2
  -7  -2   4 296.045 20.5540   1
   1  -9   4 13.2112 12.0391  -2
  -6  -2   4 13.2112 12.0391   1
   0  -7   4 8.21078 27.7724  -2
  -5  -2   4 8.21078 27.7724   1
   0  -6   4 1053.59 23.4850  -2
  -4  -2   4 1053.59 23.4850   1
   0  -5   4 -22.366 21.2984  -2
  -3  -2   4 -22.366 21.2984   1
  -2  -2   4 -6.6615 7.74620   1
  -1  -2   4 260.219 9.61596  -2
  -1  -2   4 260.219 9.61596   1
   0  -2   4 1.65021 7.27485   1
   1  -2   4 1.20257 4.89728   1
  -2   2   4 34.5808 5.17029  -2
   2  -2   4 34.5808 5.17029   1
   3  -2   4 -4.0595 6.04767   1
  -3   5   4 13.8801 21.2630  -2
   4  -2   4 13.8801 21.2630   1
  -3   6   4 291.180 10.6677  -2
   5  -2   4 291.180 10.6677   1
  -3   7   4 9.53956 31.4108  -2
   6  -2   4 9.53956 31.4108   1
   7  -2   4 -5.6302 24.2750   1
  -4  10   4 294.162 28.2543  -2
   8  -2   4 294.162 28.2543   1
   9  -2   4 -19.760 35.9355   1
  -9  -1   4 -14.053 32.5562   1
   2 -11   4 237.530 22.0433  -2
  -8  -1   4 237.530 22.0433   1
   2 -10   4 19.0113 14.3457  -2
  -7  -1   4 19.0113 14.3457   1
   1  -8   4 -32.252 32.1493  -2
  -6  -1   4 -32.252 32.1493   1
   1  -7   4 456.335 15.8463  -2
  -5  -1   4 456.335 15.8463   1
   1  -6   4 -3.4196 11.5062  -2
  -4  -1   4 -3.4196 11.5062   1
  -3  -1   4 1.09350 6.77892   1
   0  -3   4 676.371 16.8969  -2
  -2  -1   4 676.371 16.8969   1
  -1  -1   4 6.34557 9.68686   1
  -1   1   4 1376.93 24.4614  -2
   1  -1   4 1376.93 24.4614   1
   2  -1   4 6.79190 4.99452   1
   3  -1   4 -1.5276 8.67380   1
  -2   5   4 2141.42 50.3125  -2
   4  -1   4 2141.42 50.3125   1
   5  -1   4 2.54179 13.7043   1
  -3   8   4 -7.2590 14.1700  -2
   6  -1   4 -7.2590 14.1700   1
  -3   9   4 629.891 23.8564  -2
   7  -1   4 629.891 23.8564   1
   8  -1   4 -24.637 29.7052   1
  -4  12   4 4.69570 30.6083  -2
   9  -1   4 4.69570 30.6083   1
   3 -12   4 81.4720 21.9688  -2
  -9   0   4 81.4720 21.9688   1
   3 -11   4 8.13836 20.7305  -2
  -8   0   4 8.13836 20.7305   1
   2  -9   4 -66.527 37.7912  -2
  -7   0   4 -66.527 37.7912   1
   2  -8   4 155.913 12.6301  -2
  -6   0   4 155.913 12.6301   1
   2  -7   4 -10.397 14.4789  -2
  -5   0   4 -10.397 14.4789   1
   1  -5   4 -2.9042 26.2128  -2
  -4   0   4 -2.9042 26.2128   1
   1  -4   4 1711.44 40.0705  -2
  -3   0   4 1711.44 40.0705   1
  -2   0   4 2.45568 3.72479   1
  -1   0   4 -4.9310 9.98155   1
   0   0   4 5256.90 127.939  -2
   0   0   4 5256.90 127.939   1
   1   0   4 -0.1387 4.14816   1
   2   0   4 -0.0805 3.96978   1
  -1   4   4 914.787 22.3087  -2
   3   0   4 914.787 22.3087   1
   4   0   4 0.02253 4.84749   1
  -2   7   4 9.55508 12.1595  -2
   5   0   4 9.55508 12.1595   1
  -2   8   4 374.009 18.3851  -2
   6   0   4 374.009 18.3851   1
  -2   9   4 -10.398 21.9961  -2
   7   0   4 -10.398 21.9961   1
  -3  11   4 5.80202 25.7769  -2
   8   0   4 5.80202 25.7769   1
  -3  12   4 100.829 28.1730  -2
   9   0   4 100.829 28.1730   1
   4 -12   4 4.58866 23.8441  -2
  -9   1   4 4.58866 23.8441   1
  -8   1   4 3.68007 31.0493   1
   3  -9   4 559.694 23.6810  -2
  -7   1   4 559.694 23.6810   1
   3  -8   4 -12.105 12.1904  -2
  -6   1   4 -12.105 12.1904   1
   2  -6   4 -34.772 31.1238  -2
  -5   1   4 -34.772 31.1238   1
   2  -5   4 837.186 18.1202  -2
  -4   1   4 837.186 18.1202   1
  -3   1   4 2.42285 5.86310   1
  -2   1   4 -0.5796 4.06817   1
   1  -1   4 1213.12 22.5487  -2
  -1   1   4 1213.12 22.5487   1
   0   1   4 -3.9500 2.46750   1
   1   1   4 0.13869 3.88373   1
   0   3   4 2320.22 52.7807  -2
   2   1   4 2320.22 52.7807   1
   3   1   4 5.11026 4.69124   1
  -1   6   4 -3.8506 15.2720  -2
   4   1   4 -3.8506 15.2720   1
  -1   7   4 597.303 22.3777  -2
   5   1   4 597.303 22.3777   1
  -1   8   4 -14.751 19.6768  -2
   6   1   4 -14.751 19.6768   1
  -2  10   4 15.2649 21.2809  -2
   7   1   4 15.2649 21.2809   1
  -2  11   4 334.083 30.9268  -2
   8   1   4 334.083 30.9268   1
  -9   2   4 8.72905 37.0221   1
   4 -10   4 440.701 23.1968  -2
  -8   2   4 440.701 23.1968   1
   4  -9   4 -18.290 14.6702  -2
  -7   2   4 -18.290 14.6702   1
   3  -7   4 5.22299 35.0134  -2
  -6   2   4 5.22299 35.0134   1
   3  -6   4 741.800 17.3665  -2
  -5   2   4 741.800 17.3665   1
  -4   2   4 -7.7756 6.09379   1
  -3   2   4 -0.9871 5.46326   1
   2  -2   4 31.7827 4.05864  -2
  -2   2   4 31.7827 4.05864   1
  -1   2   4 -2.2423 2.31235   1
   0   2   4 -0.6570 3.76707   1
   1   2   4 412.248 18.2704  -2
   1   2   4 412.248 18.2704   1
   2   2   4 -3.4590 4.21804   1
   3   2   4 -2.7764 10.4597   1
   0   6   4 875.295 28.5665  -2
   4   2   4 875.295 28.5665   1
   0   7   4 -20.114 16.2231  -2
   5   2   4 -20.114 16.2231   1
  -1   9   4 14.0774 12.1232  -2
   6   2   4 14.0774 12.1232   1
  -1  10   4 546.063 33.6721  -2
   7   2   4 546.063 33.6721   1
   8   2   4 7.81356 32.4616   1
   5 -11   4 135.032 17.8576  -2
  -9   3   4 135.032 17.8576   1
   5 -10   4 -20.801 17.9073  -2
  -8   3   4 -20.801 17.9073   1
   4  -8   4 3.93883 41.1481  -2
  -7   3   4 3.93883 41.1481   1
   4  -7   4 234.379 10.7578  -2
  -6   3   4 234.379 10.7578   1
  -5   3   4 -16.834 8.38266   1
  -4   3   4 -8.5621 6.76339   1
   3  -3   4 1065.64 21.3742  -2
  -3   3   4 1065.64 21.3742   1
  -2   3   4 -6.8459 5.30208   1
  -1   3   4 3.80262 2.92311   1
   2   1   4 3070.66 83.6137  -2
   0   3   4 3070.66 83.6137   1
   1   3   4 1.66645 3.89132   1
   2   3   4 -10.992 16.9916   1
   1   5   4 1536.14 45.9441  -2
   3   3   4 1536.14 45.9441   1
   4   3   4 14.6076 17.7179   1
   0   8   4 -0.3596 10.2479  -2
   5   3   4 -0.3596 10.2479   1
   0   9   4 228.517 22.6233  -2
   6   3   4 228.517 22.6233   1
   7   3   4 -11.555 29.1175   1
  -1  12   4 -2.2227 24.0719  -2
   8   3   4 -2.2227 24.0719   1
   6 -11   4 -6.1071 20.0577  -2
  -9   4   4 -6.1071 20.0577   1
  -8   4   4 10.8651 21.3777   1
   5  -8   4 736.097 20.9190  -2
  -7   4   4 736.097 20.9190   1
   5  -7   4 -21.933 33.1734  -2
  -6   4   4 -21.933 33.1734   1
  -5   4   4 -7.9178 8.61218   1
   4  -4   4 1258.54 25.6122  -2
  -4   4   4 1258.54 25.6122   1
  -3   4   4 -1.7117 4.09609   1
  -2   4   4 5.08275 4.30186   1
   3   0   4 948.138 22.9465  -2
  -1   4   4 948.138 22.9465   1
   0   4   4 0.32076 3.64281   1
   1   4   4 0.72837 3.86571   1
   2   4   4 1391.58 56.8883  -2
   2   4   4 1391.58 56.8883   1
   3   4   4 -0.3939 15.7055   1
   1   7   4 -17.043 12.3497  -2
   4   4   4 -17.043 12.3497   1
   1   8   4 86.8873 13.5416  -2
   5   4   4 86.8873 13.5416   1
   6   4   4 -1.4647 25.4718   1
   0  11   4 2.05336 20.3778  -2
   7   4   4 2.05336 20.3778   1
  -9   5   4 -22.912 23.9712   1
   6  -9   4 865.583 45.3833  -2
  -8   5   4 865.583 45.3833   1
  -7   5   4 -24.885 17.1334   1
  -6   5   4 -5.6387 11.0928   1
   5  -5   4 1224.95 27.4601  -2
  -5   5   4 1224.95 27.4601   1
  -4   5   4 2.06257 5.17013   1
  -3   5   4 8.17536 4.84539   1
   4  -1   4 1482.19 30.1753  -2
  -2   5   4 1482.19 30.1753   1
  -1   5   4 -3.0771 4.35392   1
   0   5   4 0.94110 4.04284   1
   3   3   4 924.752 22.8023  -2
   1   5   4 924.752 22.8023   1
   3   4   4 -15.990 16.5208  -2
   2   5   4 -15.990 16.5208   1
   2   6   4 -13.024 12.8958  -2
   3   5   4 -13.024 12.8958   1
   2   7   4 394.281 24.6097  -2
   4   5   4 394.281 24.6097   1
   5   5   4 1.73159 24.0416   1
   1  10   4 21.9109 18.4341  -2
   6   5   4 21.9109 18.4341   1
   1  11   4 138.985 24.7507  -2
   7   5   4 138.985 24.7507   1
   7 -10   4 201.879 26.5631  -2
  -9   6   4 201.879 26.5631   1
   7  -9   4 -3.6241 25.2639  -2
  -8   6   4 -3.6241 25.2639   1
  -7   6   4 -0.8211 18.7028   1
   6  -6   4 363.562 12.5289  -2
  -6   6   4 363.562 12.5289   1
  -5   6   4 -2.1281 6.57068   1
  -4   6   4 -3.5785 5.86047   1
   5  -2   4 180.718 8.37705  -2
  -3   6   4 180.718 8.37705   1
   5  -1   4 2.60854 17.9021  -2
  -2   6   4 2.60854 17.9021   1
  -1   6   4 8.70512 5.69691   1
   4   2   4 546.592 18.6406  -2
   0   6   4 546.592 18.6406   1
   4   3   4 1.18598 14.8953  -2
   1   6   4 1.18598 14.8953   1
   3   5   4 -1.2535 10.7430  -2
   2   6   4 -1.2535 10.7430   1
   3   6   4 701.656 25.3785  -2
   3   6   4 701.656 25.3785   1
   3   7   4 -0.0486 25.5935  -2
   4   6   4 -0.0486 25.5935   1
   2   9   4 4.83086 15.0890  -2
   5   6   4 4.83086 15.0890   1
   2  10   4 293.875 19.7857  -2
   6   6   4 293.875 19.7857   1
  -9   7   4 0.09816 24.0796   1
  -8   7   4 9.33545 28.5938   1
   7  -7   4 -11.317 11.1034  -2
  -7   7   4 -11.317 11.1034   1
  -6   7   4 4.52513 8.37522   1
   6  -4   4 -3.0264 29.2436  -2
  -5   7   4 -3.0264 29.2436   1
   6  -3   4 152.645 7.99429  -2
  -4   7   4 152.645 7.99429   1
   6  -2   4 6.87271 14.6891  -2
  -3   7   4 6.87271 14.6891   1
   5   0   4 -3.8628 12.2160  -2
  -2   7   4 -3.8628 12.2160   1
   5   1   4 745.562 20.6886  -2
  -1   7   4 745.562 20.6886   1
   5   2   4 4.62624 12.6456  -2
   0   7   4 4.62624 12.6456   1
   4   4   4 4.75360 10.0119  -2
   1   7   4 4.75360 10.0119   1
   4   5   4 576.258 22.0076  -2
   2   7   4 576.258 22.0076   1
   4   6   4 -18.753 23.5963  -2
   3   7   4 -18.753 23.5963   1
   3   8   4 41.6394 14.9649  -2
   4   7   4 41.6394 14.9649   1
   3   9   4 108.071 15.2088  -2
   5   7   4 108.071 15.2088   1
   8  -8   4 158.812 19.5668  -2
  -8   8   4 158.812 19.5668   1
  -7   8   4 -5.0863 11.1919   1
  -6   8   4 -3.7503 10.1092   1
   7  -4   4 679.416 18.4661  -2
  -5   8   4 679.416 18.4661   1
   7  -3   4 -15.676 22.5439  -2
  -4   8   4 -15.676 22.5439   1
   6  -1   4 3.43155 10.5822  -2
  -3   8   4 3.43155 10.5822   1
   6   0   4 517.809 16.8421  -2
  -2   8   4 517.809 16.8421   1
   6   1   4 -6.1193 14.6238  -2
  -1   8   4 -6.1193 14.6238   1
   5   3   4 8.80090 10.7495  -2
   0   8   4 8.80090 10.7495   1
   5   4   4 191.553 13.1201  -2
   1   8   4 191.553 13.1201   1
   5   5   4 33.6881 22.3679  -2
   2   8   4 33.6881 22.3679   1
   4   7   4 4.18196 18.1671  -2
   3   8   4 4.18196 18.1671   1
   4   8   4 137.519 16.3419  -2
   4   8   4 137.519 16.3419   1
   5   8   4 35.9730 49.5217   1
  -8   9   4 3.21969 22.7539   1
  -7   9   4 0.87122 12.2275   1
   8  -5   4 288.239 13.7849  -2
  -6   9   4 288.239 13.7849   1
   8  -4   4 -47.552 25.6704  -2
  -5   9   4 -47.552 25.6704   1
   7  -2   4 -19.828 14.1915  -2
  -4   9   4 -19.828 14.1915   1
   7  -1   4 512.901 18.1213  -2
  -3   9   4 512.901 18.1213   1
   7   0   4 -1.0583 17.3805  -2
  -2   9   4 -1.0583 17.3805   1
   6   2   4 0.22455 11.0775  -2
  -1   9   4 0.22455 11.0775   1
   6   3   4 81.0151 9.61794  -2
   0   9   4 81.0151 9.61794   1
   6   4   4 17.1545 23.3006  -2
   1   9   4 17.1545 23.3006   1
   5   6   4 -10.658 18.2915  -2
   2   9   4 -10.658 18.2915   1
   5   7   4 131.077 16.5185  -2
   3   9   4 131.077 16.5185   1
   4   9   4 44.5914 49.6185   1
   9  -6   4 293.812 15.2593  -2
  -7  10   4 293.812 15.2593   1
   9  -5   4 24.7343 28.2824  -2
  -6  10   4 24.7343 28.2824   1
   8  -3   4 10.7607 13.9379  -2
  -5  10   4 10.7607 13.9379   1
   8  -2   4 125.509 10.9160  -2
  -4  10   4 125.509 10.9160   1
   8  -1   4 -19.964 27.1173  -2
  -3  10   4 -19.964 27.1173   1
   7   1   4 -3.6161 13.6477  -2
  -2  10   4 -3.6161 13.6477   1
   7   2   4 272.354 16.5971  -2
  -1  10   4 272.354 16.5971   1
   0  10   4 2.33914 39.6615   1
   6   5   4 -3.2883 17.9012  -2
   1  10   4 -3.2883 17.9012   1
   6   6   4 305.659 19.9456  -2
   2  10   4 305.659 19.9456   1
   3  10   4 8.99200 50.6200   1
   9  -4   4 -20.625 16.1156  -2
  -6  11   4 -20.625 16.1156   1
   9  -3   4 179.330 13.5343  -2
  -5  11   4 179.330 13.5343   1
   9  -2   4 -56.851 29.9173  -2
  -4  11   4 -56.851 29.9173   1
   8   0   4 -13.770 15.1415  -2
  -3  11   4 -13.770 15.1415   1
   8   1   4 231.488 17.2486  -2
  -2  11   4 231.488 17.2486   1
  -1  11   4 8.79905 41.8675   1
   7   4   4 -25.344 18.1569  -2
   0  11   4 -25.344 18.1569   1
   7   5   4 274.038 19.9346  -2
   1  11   4 274.038 19.9346   1
   9  -1   4 19.7891 20.6436  -2
  -4  12   4 19.7891 20.6436   1
   9   0   4 85.9266 16.3697  -2
  -3  12   4 85.9266 16.3697   1
  -2  12   4 59.6861 46.3885   1
   8   3   4 15.8972 19.7359  -2
  -1  12   4 15.8972 19.7359   1
  -8  -4   5 50.0504 16.7181  -2
   0 -12   5 50.0504 16.7181   1
  -8  -3   5 -27.201 15.2453  -2
   1 -12   5 -27.201 15.2453   1
   2 -12   5 16.8094 39.3549   1
  -9   0   5 134.695 18.0196  -2
   3 -12   5 134.695 18.0196   1
  -9   1   5 44.6665 23.0223  -2
   4 -12   5 44.6665 23.0223   1
   5 -12   5 -20.633 17.3852   1
  -2 -11   5 -17.275 60.7551   1
  -7  -5   5 19.2505 14.3560  -2
  -1 -11   5 19.2505 14.3560   1
  -7  -4   5 -10.232 13.6252  -2
   0 -11   5 -10.232 13.6252   1
   1 -11   5 -2.5831 34.7170   1
  -8  -1   5 49.5714 15.0448  -2
   2 -11   5 49.5714 15.0448   1
  -8   0   5 -37.957 14.4240  -2
   3 -11   5 -37.957 14.4240   1
   4 -11   5 2.78985 22.9811   1
  -9   3   5 449.101 39.5607  -2
   5 -11   5 449.101 39.5607   1
   5 -11   6 449.101 39.5607   1
  -9   4   5 4.22116 19.4383  -2
   6 -11   5 4.22116 19.4383   1
  -3 -10   5 -55.380 63.4010   1
  -6  -6   5 101.919 24.4068  -2
  -2 -10   5 101.919 24.4068   1
  -6  -5   5 0.42431 11.0733  -2
  -1 -10   5 0.42431 11.0733   1
  -7  -3   5 6.40258 24.9710  -2
   0 -10   5 6.40258 24.9710   1
  -7  -2   5 142.285 12.4804  -2
   1 -10   5 142.285 12.4804   1
  -7  -1   5 -4.4797 12.0553  -2
   2 -10   5 -4.4797 12.0553   1
  -8   1   5 7.03326 26.9276  -2
   3 -10   5 7.03326 26.9276   1
  -8   2   5 578.280 24.1345  -2
   4 -10   5 578.280 24.1345   1
  -8   3   5 -22.299 14.4143  -2
   5 -10   5 -22.299 14.4143   1
   6 -10   5 38.5498 24.6052   1
  -9   6   5 240.082 19.5125  -2
   7 -10   5 240.082 19.5125   1
  -4  -9   5 -5.2511 26.0103  -2
  -4  -9   5 -5.2511 26.0103   1
  -5  -7   5 179.434 18.7906  -2
  -3  -9   5 179.434 18.7906   1
  -5  -6   5 -25.414 10.7315  -2
  -2  -9   5 -25.414 10.7315   1
  -6  -4   5 -15.643 20.7643  -2
  -1  -9   5 -15.643 20.7643   1
  -6  -3   5 268.854 12.7935  -2
   0  -9   5 268.854 12.7935   1
  -6  -2   5 -12.840 10.6193  -2
   1  -9   5 -12.840 10.6193   1
  -7   0   5 -5.9652 24.0475  -2
   2  -9   5 -5.9652 24.0475   1
  -7   1   5 484.020 17.3170  -2
   3  -9   5 484.020 17.3170   1
  -7   2   5 -10.824 12.7356  -2
   4  -9   5 -10.824 12.7356   1
  -8   4   5 2.79775 26.7810  -2
   5  -9   5 2.79775 26.7810   1
  -8   5   5 19.4588 17.5984  -2
   6  -9   5 19.4588 17.5984   1
  -8   6   5 -11.291 19.1864  -2
   7  -9   5 -11.291 19.1864   1
   8  -9   5 -25.310 15.9595   1
  -3 -10   5 -3.5880 28.6671  -2
  -5  -8   5 -3.5880 28.6671   1
  -4  -8   5 359.593 18.1592  -2
  -4  -8   5 359.593 18.1592   1
  -4  -7   5 -4.0645 11.6681  -2
  -3  -8   5 -4.0645 11.6681   1
  -5  -5   5 -0.3241 17.8892  -2
  -2  -8   5 -0.3241 17.8892   1
  -5  -4   5 383.368 13.8728  -2
  -1  -8   5 383.368 13.8728   1
  -5  -3   5 -16.092 9.06814  -2
   0  -8   5 -16.092 9.06814   1
  -6  -1   5 -18.300 19.1804  -2
   1  -8   5 -18.300 19.1804   1
  -6   0   5 266.688 12.3679  -2
   2  -8   5 266.688 12.3679   1
  -6   1   5 9.13439 10.5409  -2
   3  -8   5 9.13439 10.5409   1
  -7   3   5 -40.963 23.1468  -2
   4  -8   5 -40.963 23.1468   1
  -7   4   5 84.2260 10.6784  -2
   5  -8   5 84.2260 10.6784   1
  -7   5   5 0.39146 16.7451  -2
   6  -8   5 0.39146 16.7451   1
   7  -8   5 -45.748 13.4848   1
  -8   8   5 312.098 20.0170  -2
   8  -8   5 312.098 20.0170   1
  -2 -11   5 27.7681 31.1425  -2
  -6  -7   5 27.7681 31.1425   1
  -3  -9   5 124.466 18.2594  -2
  -5  -7   5 124.466 18.2594   1
  -3  -8   5 -0.4204 12.0059  -2
  -4  -7   5 -0.4204 12.0059   1
  -3  -7   5 -4.1839 19.4305   1
  -4  -5   5 294.117 15.8247  -2
  -2  -7   5 294.117 15.8247   1
  -4  -4   5 -18.431 8.55641  -2
  -1  -7   5 -18.431 8.55641   1
  -5  -2   5 -32.689 19.0610  -2
   0  -7   5 -32.689 19.0610   1
  -5  -1   5 506.392 14.5361  -2
   1  -7   5 506.392 14.5361   1
  -5   0   5 -3.2301 8.70643  -2
   2  -7   5 -3.2301 8.70643   1
  -6   2   5 -18.875 20.0528  -2
   3  -7   5 -18.875 20.0528   1
  -6   3   5 667.207 19.8264  -2
   4  -7   5 667.207 19.8264   1
  -6   4   5 -13.492 11.9736  -2
   5  -7   5 -13.492 11.9736   1
  -7   6   5 4.60186 44.6521  -2
   6  -7   5 4.60186 44.6521   1
  -7   7   5 523.467 18.5687  -2
   7  -7   5 523.467 18.5687   1
   8  -7   5 -4.4809 15.8949   1
  -7  -6   5 8.10846 29.7029   1
  -2 -10   5 37.6960 26.8671  -2
  -6  -6   5 37.6960 26.8671   1
  -2  -9   5 4.97867 12.7623  -2
  -5  -6   5 4.97867 12.7623   1
  -4  -6   5 17.4638 20.5072   1
  -3  -6   5 19.1683 9.64129  -2
  -3  -6   5 19.1683 9.64129   1
  -3  -5   5 0.19885 7.79556  -2
  -2  -6   5 0.19885 7.79556   1
  -4  -3   5 -21.545 15.7402  -2
  -1  -6   5 -21.545 15.7402   1
  -4  -2   5 213.583 9.11352  -2
   0  -6   5 213.583 9.11352   1
  -4  -1   5 -13.778 9.70189  -2
   1  -6   5 -13.778 9.70189   1
  -5   1   5 -1.6382 16.9909  -2
   2  -6   5 -1.6382 16.9909   1
  -5   2   5 1739.46 38.4695  -2
   3  -6   5 1739.46 38.4695   1
  -5   3   5 6.32291 9.85408  -2
   4  -6   5 6.32291 9.85408   1
   5  -6   5 -24.742 12.2412   1
  -6   6   5 112.354 9.94314  -2
   6  -6   5 112.354 9.94314   1
   7  -6   5 -2.6547 14.2027   1
   8  -6   5 -32.763 15.8010   1
  -7  10   5 76.1684 24.7814  -2
   9  -6   5 76.1684 24.7814   1
  -1 -11   5 37.3537 20.1605  -2
  -7  -5   5 37.3537 20.1605   1
  -1 -10   5 -0.4278 13.1980  -2
  -6  -5   5 -0.4278 13.1980   1
  -5  -5   5 -1.0187 19.7256   1
  -2  -7   5 413.538 16.0120  -2
  -4  -5   5 413.538 16.0120   1
  -2  -6   5 10.3525 10.3839  -2
  -3  -5   5 10.3525 10.3839   1
  -2  -5   5 -5.2182 11.2751   1
  -3  -3   5 530.892 14.8233  -2
  -1  -5   5 530.892 14.8233   1
  -3  -2   5 -2.9838 7.76621  -2
   0  -5   5 -2.9838 7.76621   1
  -4   0   5 6.88356 20.5485  -2
   1  -5   5 6.88356 20.5485   1
  -4   1   5 863.026 20.0587  -2
   2  -5   5 863.026 20.0587   1
  -4   2   5 -4.3713 15.4003  -2
   3  -5   5 -4.3713 15.4003   1
  -5   4   5 24.8690 32.2170  -2
   4  -5   5 24.8690 32.2170   1
  -5   5   5 198.188 10.1381  -2
   5  -5   5 198.188 10.1381   1
   6  -5   5 -14.038 11.4037   1
   7  -5   5 -6.7832 12.4710   1
  -6   9   5 35.1884 18.0889  -2
   8  -5   5 35.1884 18.0889   1
   9  -5   5 43.0806 35.3537   1
   0 -12   5 80.9771 22.1664  -2
  -8  -4   5 80.9771 22.1664   1
   0 -11   5 -0.6101 14.9336  -2
  -7  -4   5 -0.6101 14.9336   1
  -6  -4   5 21.4805 22.7999   1
  -1  -8   5 388.289 19.1551  -2
  -5  -4   5 388.289 19.1551   1
  -1  -7   5 7.57927 9.86924  -2
  -4  -4   5 7.57927 9.86924   1
  -3  -4   5 7.64663 12.6167   1
  -2  -4   5 460.237 13.5110  -2
  -2  -4   5 460.237 13.5110   1
  -1  -4   5 0.23582 7.83662   1
   0  -4   5 -6.3269 7.52785   1
  -3   0   5 271.626 8.09847  -2
   1  -4   5 271.626 8.09847   1
  -3   1   5 14.4903 17.2804  -2
   2  -4   5 14.4903 17.2804   1
  -4   3   5 -8.8790 24.6083  -2
   3  -4   5 -8.8790 24.6083   1
  -4   4   5 574.671 15.3525  -2
   4  -4   5 574.671 15.3525   1
  -4   5   5 -18.572 20.8100  -2
   5  -4   5 -18.572 20.8100   1
   6  -4   5 -2.1044 11.2618   1
   8  -4   5 -13.540 28.3415   1
   9  -4   5 9.82585 40.5984   1
   1 -12   5 4.45880 16.9141  -2
  -8  -3   5 4.45880 16.9141   1
  -7  -3   5 5.59527 24.8895   1
   0  -9   5 224.606 12.8786  -2
  -6  -3   5 224.606 12.8786   1
   0  -8   5 -6.3509 10.3963  -2
  -5  -3   5 -6.3509 10.3963   1
  -1  -6   5 20.2215 24.1358  -2
  -4  -3   5 20.2215 24.1358   1
  -1  -5   5 342.976 13.7040  -2
  -3  -3   5 342.976 13.7040   1
  -2  -3   5 0.08077 8.89232   1
  -1  -3   5 -3.5861 11.2873   1
  -2  -1   5 1698.93 47.5968  -2
   0  -3   5 1698.93 47.5968   1
  -2   0   5 -15.775 15.3235  -2
   1  -3   5 -15.775 15.3235   1
   2  -3   5 -9.0842 5.71903   1
  -3   3   5 1320.62 29.2250  -2
   3  -3   5 1320.62 29.2250   1
  -3   4   5 -2.3215 25.3244  -2
   4  -3   5 -2.3215 25.3244   1
  -4   6   5 3.03104 38.7981  -2
   5  -3   5 3.03104 38.7981   1
  -4   7   5 912.003 25.2554  -2
   6  -3   5 912.003 25.2554   1
   7  -3   5 7.10416 19.0829   1
   8  -3   5 30.8167 24.0507   1
  -5  11   5 160.278 18.4767  -2
   9  -3   5 160.278 18.4767   1
  -8  -2   5 -51.968 28.3524   1
   1 -10   5 73.0656 18.1935  -2
  -7  -2   5 73.0656 18.1935   1
   1  -9   5 10.5530 12.7421  -2
  -6  -2   5 10.5530 12.7421   1
   0  -7   5 -13.297 29.4586  -2
  -5  -2   5 -13.297 29.4586   1
   0  -6   5 206.325 8.98093  -2
  -4  -2   5 206.325 8.98093   1
   0  -5   5 4.64432 22.6895  -2
  -3  -2   5 4.64432 22.6895   1
  -2  -2   5 7.20967 7.94631   1
  -1  -2   5 449.034 14.4996  -2
  -1  -2   5 449.034 14.4996   1
   0  -2   5 21.1095 14.9206   1
   1  -2   5 6.54684 5.06018   1
  -2   2   5 3714.12 91.1655  -2
   2  -2   5 3714.12 91.1655   1
   3  -2   5 8.11502 9.54714   1
  -3   5   5 9.19351 17.3293  -2
   4  -2   5 9.19351 17.3293   1
  -3   6   5 1407.65 34.9445  -2
   5  -2   5 1407.65 34.9445   1
   6  -2   5 6.56880 17.5655   1
   7  -2   5 1.27510 24.5664   1
  -4  10   5 110.501 22.6401  -2
   8  -2   5 110.501 22.6401   1
   9  -2   5 -23.324 35.9054   1
  -9  -1   5 0.21426 33.4961   1
   2 -11   5 37.9208 19.3799  -2
  -8  -1   5 37.9208 19.3799   1
   2 -10   5 -3.6714 14.3101  -2
  -7  -1   5 -3.6714 14.3101   1
   1  -8   5 -55.719 33.2492  -2
  -6  -1   5 -55.719 33.2492   1
   1  -7   5 806.486 20.1653  -2
  -5  -1   5 806.486 20.1653   1
   1  -6   5 -3.1407 9.12037  -2
  -4  -1   5 -3.1407 9.12037   1
  -3  -1   5 5.85747 9.71731   1
   0  -3   5 2476.52 70.1094  -2
  -2  -1   5 2476.52 70.1094   1
  -1  -1   5 4.68325 7.83453   1
  -1   1   5 755.172 18.3760  -2
   1  -1   5 755.172 18.3760   1
   2  -1   5 -6.5355 3.82043   1
   3  -1   5 1.86717 4.40788   1
  -2   5   5 418.421 10.7419  -2
   4  -1   5 418.421 10.7419   1
  -2   6   5 13.8300 16.9503  -2
   5  -1   5 13.8300 16.9503   1
   6  -1   5 -16.489 7.45300   1
  -3   9   5 335.803 17.3048  -2
   7  -1   5 335.803 17.3048   1
   8  -1   5 5.11614 29.7265   1
   9  -1   5 54.7289 63.7110   1
   3 -12   5 206.952 23.7893  -2
  -9   0   5 206.952 23.7893   1
   3 -11   5 8.65537 16.5848  -2
  -8   0   5 8.65537 16.5848   1
   2  -9   5 61.5688 40.4091  -2
  -7   0   5 61.5688 40.4091   1
   2  -8   5 383.357 16.9807  -2
  -6   0   5 383.357 16.9807   1
   2  -7   5 -1.5417 14.2837  -2
  -5   0   5 -1.5417 14.2837   1
   1  -5   5 -19.321 28.8792  -2
  -4   0   5 -19.321 28.8792   1
   1  -4   5 236.783 9.25545  -2
  -3   0   5 236.783 9.25545   1
  -2   0   5 -4.0587 11.9275   1
  -1   0   5 7.48022 10.1071   1
   0   0   5 13.9427 2.89292  -2
   0   0   5 13.9427 2.89292   1
   1   0   5 2.58859 3.12327   1
   2   0   5 -8.6162 4.35124   1
  -1   4   5 1827.33 42.4249  -2
   3   0   5 1827.33 42.4249   1
  -1   5   5 -5.8365 15.7795  -2
   4   0   5 -5.8365 15.7795   1
  -2   7   5 -4.4329 12.6626  -2
   5   0   5 -4.4329 12.6626   1
  -2   8   5 906.398 31.8671  -2
   6   0   5 906.398 31.8671   1
   7   0   5 -1.9446 25.8996   1
  -3  11   5 7.19058 25.8557  -2
   8   0   5 7.19058 25.8557   1
   4 -12   5 -24.207 24.0080  -2
  -9   1   5 -24.207 24.0080   1
  -8   1   5 -10.957 27.3448   1
   3  -9   5 319.197 17.6995  -2
  -7   1   5 319.197 17.6995   1
   3  -8   5 -1.8584 12.1774  -2
  -6   1   5 -1.8584 12.1774   1
   2  -6   5 -0.5435 31.4414  -2
  -5   1   5 -0.5435 31.4414   1
   2  -5   5 511.312 13.2813  -2
  -4   1   5 511.312 13.2813   1
  -3   1   5 -0.6900 5.98948   1
  -2   1   5 -2.3599 2.89112   1
   1  -1   5 654.721 14.8738  -2
  -1   1   5 654.721 14.8738   1
   0   1   5 0.93402 3.66291   1
   1   1   5 0.99770 4.26322   1
   0   3   5 2509.81 70.2928  -2
   2   1   5 2509.81 70.2928   1
   3   1   5 -4.6043 4.87765   1
  -1   6   5 6.51158 14.5680  -2
   4   1   5 6.51158 14.5680   1
  -1   7   5 831.133 28.4624  -2
   5   1   5 831.133 28.4624   1
  -1   8   5 13.3111 19.9053  -2
   6   1   5 13.3111 19.9053   1
  -2  10   5 16.4689 15.6486  -2
   7   1   5 16.4689 15.6486   1
  -2  11   5 53.6597 23.1943  -2
   8   1   5 53.6597 23.1943   1
  -9   2   5 -6.1015 36.1010   1
   4 -10   5 373.663 21.3466  -2
  -8   2   5 373.663 21.3466   1
   4  -9   5 0.08220 15.4443  -2
  -7   2   5 0.08220 15.4443   1
   3  -7   5 39.4142 37.4358  -2
  -6   2   5 39.4142 37.4358   1
   3  -6   5 1691.56 36.1060  -2
  -5   2   5 1691.56 36.1060   1
  -4   2   5 4.37609 7.03219   1
  -3   2   5 3.79926 5.78065   1
   2  -2   5 3561.93 65.6966  -2
  -2   2   5 3561.93 65.6966   1
  -1   2   5 -0.0660 3.32910   1
   0   2   5 -0.2024 3.83537   1
   1   2   5 4116.78 155.059  -2
   1   2   5 4116.78 155.059   1
   2   2   5 -3.7335 5.08473   1
   3   2   5 4.77542 11.7081   1
   0   6   5 758.826 20.4001  -2
   4   2   5 758.826 20.4001   1
   0   7   5 -11.136 16.3407  -2
   5   2   5 -11.136 16.3407   1
  -1   9   5 -4.1130 12.0023  -2
   6   2   5 -4.1130 12.0023   1
  -1  10   5 129.772 21.0502  -2
   7   2   5 129.772 21.0502   1
   8   2   5 10.2113 34.6080   1
   5 -11   5 249.857 27.2186  -2
  -9   3   5 249.857 27.2186   1
   5 -10   5 15.1168 22.3949  -2
  -8   3   5 15.1168 22.3949   1
   4  -8   5 15.1906 43.2071  -2
  -7   3   5 15.1906 43.2071   1
   4  -7   5 746.209 19.7622  -2
  -6   3   5 746.209 19.7622   1
   4  -6   5 -4.8067 27.8030  -2
  -5   3   5 -4.8067 27.8030   1
  -4   3   5 0.26618 6.63989   1
   3  -3   5 1266.20 28.5728  -2
  -3   3   5 1266.20 28.5728   1
  -2   3   5 -9.7185 5.36291   1
  -1   3   5 -0.2264 2.96968   1
   2   1   5 1675.40 65.0198  -2
   0   3   5 1675.40 65.0198   1
   1   3   5 -1.1306 4.32851   1
   2   3   5 9.36912 4.78552   1
   1   5   5 470.280 23.3353  -2
   3   3   5 470.280 23.3353   1
   4   3   5 -21.662 17.0388   1
   0   8   5 -0.8220 11.0103  -2
   5   3   5 -0.8220 11.0103   1
   0   9   5 305.499 24.4569  -2
   6   3   5 305.499 24.4569   1
   7   3   5 1.05935 28.9067   1
   6 -11   5 -26.287 20.2158  -2
  -9   4   5 -26.287 20.2158   1
  -8   4   5 -13.119 21.9259   1
   5  -8   5 233.787 16.4964  -2
  -7   4   5 233.787 16.4964   1
   5  -7   5 -20.540 34.5126  -2
  -6   4   5 -20.540 34.5126   1
  -5   4   5 -8.0589 8.76508   1
   4  -4   5 549.564 13.2816  -2
  -4   4   5 549.564 13.2816   1
  -3   4   5 1.31846 5.90458   1
  -2   4   5 8.61592 4.01830   1
   3   0   5 971.628 23.6977  -2
  -1   4   5 971.628 23.6977   1
   0   4   5 -1.0432 3.93387   1
   1   4   5 2.59362 4.61535   1
   2   4   5 883.032 37.7719  -2
   2   4   5 883.032 37.7719   1
   3   4   5 -10.500 24.2268   1
   1   7   5 -5.1627 9.91457  -2
   4   4   5 -5.1627 9.91457   1
   1   8   5 457.001 27.6260  -2
   5   4   5 457.001 27.6260   1
   6   4   5 -3.5914 26.0635   1
   0  11   5 -10.957 17.4560  -2
   7   4   5 -10.957 17.4560   1
  -9   5   5 -26.455 25.1862   1
   6  -9   5 94.9669 21.0943  -2
  -8   5   5 94.9669 21.0943   1
  -7   5   5 -5.4378 18.2822   1
  -6   5   5 -4.8927 11.0889   1
   5  -5   5 166.857 9.62705  -2
  -5   5   5 166.857 9.62705   1
  -4   5   5 -6.1744 7.72568   1
  -3   5   5 5.52742 4.76909   1
   4  -1   5 649.838 17.4390  -2
  -2   5   5 649.838 17.4390   1
   4   0   5 -21.169 15.8240  -2
  -1   5   5 -21.169 15.8240   1
   0   5   5 3.76767 4.32699   1
   3   3   5 596.364 16.0005  -2
   1   5   5 596.364 16.0005   1
   3   4   5 10.0755 17.7892  -2
   2   5   5 10.0755 17.7892   1
   2   6   5 -0.6250 13.1529  -2
   3   5   5 -0.6250 13.1529   1
   2   7   5 783.777 38.0950  -2
   4   5   5 783.777 38.0950   1
   5   5   5 -5.6372 25.4184   1
   1  10   5 7.79449 18.9520  -2
   6   5   5 7.79449 18.9520   1
   7 -10   5 187.979 26.1274  -2
  -9   6   5 187.979 26.1274   1
   7  -9   5 -12.604 24.5163  -2
  -8   6   5 -12.604 24.5163   1
  -7   6   5 -17.225 19.6169   1
   6  -6   5 65.4070 9.60524  -2
  -6   6   5 65.4070 9.60524   1
  -5   6   5 -4.0146 10.3796   1
  -4   6   5 0.03969 6.20412   1
   5  -2   5 1542.08 34.5209  -2
  -3   6   5 1542.08 34.5209   1
   5  -1   5 -6.1793 11.0296  -2
  -2   6   5 -6.1793 11.0296   1
   4   1   5 -4.1046 17.9992  -2
  -1   6   5 -4.1046 17.9992   1
   4   2   5 917.241 28.2949  -2
   0   6   5 917.241 28.2949   1
   4   3   5 -10.731 15.5800  -2
   1   6   5 -10.731 15.5800   1
   3   5   5 -1.4197 11.1300  -2
   2   6   5 -1.4197 11.1300   1
   3   6   5 44.1339 11.0791  -2
   3   6   5 44.1339 11.0791   1
   3   7   5 29.1232 27.9087  -2
   4   6   5 29.1232 27.9087   1
   2   9   5 15.2302 18.0910  -2
   5   6   5 15.2302 18.0910   1
   2  10   5 20.6433 22.1912  -2
   6   6   5 20.6433 22.1912   1
  -8   7   5 32.1163 29.0256   1
   7  -7   5 594.414 24.5110  -2
  -7   7   5 594.414 24.5110   1
  -6   7   5 14.2283 8.43530   1
  -5   7   5 -11.560 7.54521   1
   6  -3   5 739.446 18.2310  -2
  -4   7   5 739.446 18.2310   1
   6  -2   5 -0.6489 15.0966  -2
  -3   7   5 -0.6489 15.0966   1
   5   0   5 -7.2570 8.83690  -2
  -2   7   5 -7.2570 8.83690   1
   5   1   5 551.318 16.8385  -2
  -1   7   5 551.318 16.8385   1
   5   2   5 16.7583 13.5694  -2
   0   7   5 16.7583 13.5694   1
   4   4   5 6.08452 10.2160  -2
   1   7   5 6.08452 10.2160   1
   4   5   5 413.009 18.3426  -2
   2   7   5 413.009 18.3426   1
   4   6   5 -3.4144 24.9892  -2
   3   7   5 -3.4144 24.9892   1
   3   8   5 42.5867 15.4532  -2
   4   7   5 42.5867 15.4532   1
   3   9   5 171.994 16.9290  -2
   5   7   5 171.994 16.9290   1
   8  -8   5 320.578 26.8815  -2
  -8   8   5 320.578 26.8815   1
  -7   8   5 -9.6197 11.1780   1
  -6   8   5 3.93791 10.0608   1
   7  -4   5 201.983 10.6795  -2
  -5   8   5 201.983 10.6795   1
   7  -3   5 23.4869 22.4466  -2
  -4   8   5 23.4869 22.4466   1
   6  -1   5 4.89934 10.7282  -2
  -3   8   5 4.89934 10.7282   1
   6   0   5 420.483 15.0531  -2
  -2   8   5 420.483 15.0531   1
   6   1   5 6.70991 15.1623  -2
  -1   8   5 6.70991 15.1623   1
   5   3   5 7.26193 9.93350  -2
   0   8   5 7.26193 9.93350   1
   5   4   5 522.297 20.8635  -2
   1   8   5 522.297 20.8635   1
   5   5   5 -4.8372 21.9797  -2
   2   8   5 -4.8372 21.9797   1
   4   7   5 13.2247 18.4154  -2
   3   8   5 13.2247 18.4154   1
   4   8   5 250.120 18.9252  -2
   4   8   5 250.120 18.9252   1
  -8   9   5 -13.925 31.0963   1
  -7   9   5 -0.7765 12.4559   1
   8  -5   5 87.8920 10.3892  -2
  -6   9   5 87.8920 10.3892   1
  -5   9   5 -0.3717 10.6682   1
   7  -2   5 -14.664 14.6143  -2
  -4   9   5 -14.664 14.6143   1
   7  -1   5 365.025 14.3520  -2
  -3   9   5 365.025 14.3520   1
   7   0   5 12.1488 22.1786  -2
  -2   9   5 12.1488 22.1786   1
   6   2   5 7.33773 12.2721  -2
  -1   9   5 7.33773 12.2721   1
   6   3   5 397.730 18.4076  -2
   0   9   5 397.730 18.4076   1
   6   4   5 10.6655 23.4254  -2
   1   9   5 10.6655 23.4254   1
   5   6   5 22.7665 18.5872  -2
   2   9   5 22.7665 18.5872   1
   5   7   5 172.177 17.5614  -2
   3   9   5 172.177 17.5614   1
   9  -6   5 136.403 12.3303  -2
  -7  10   5 136.403 12.3303   1
  -6  10   5 12.3771 12.2160   1
   8  -3   5 -11.887 13.9581  -2
  -5  10   5 -11.887 13.9581   1
   8  -2   5 192.213 12.1464  -2
  -4  10   5 192.213 12.1464   1
   8  -1   5 -30.340 27.3905  -2
  -3  10   5 -30.340 27.3905   1
   7   1   5 -16.024 13.9599  -2
  -2  10   5 -16.024 13.9599   1
   7   2   5 195.010 14.8271  -2
  -1  10   5 195.010 14.8271   1
   0  10   5 -2.7107 38.4194   1
   6   5   5 -20.170 17.6727  -2
   1  10   5 -20.170 17.6727   1
   6   6   5 10.9317 15.3112  -2
   2  10   5 10.9317 15.3112   1
   9  -4   5 -21.174 29.4738  -2
  -6  11   5 -21.174 29.4738   1
   9  -3   5 140.350 13.0064  -2
  -5  11   5 140.350 13.0064   1
   9  -2   5 -1.6408 20.1569  -2
  -4  11   5 -1.6408 20.1569   1
   8   0   5 -14.621 15.2495  -2
  -3  11   5 -14.621 15.2495   1
   8   1   5 15.5473 13.8233  -2
  -2  11   5 15.5473 13.8233   1
  -1  11   5 9.88895 40.4956   1
   7   5   5 11.6911 24.0864  -2
   1  11   5 11.6911 24.0864   1
  -3  12   5 296.198 55.6953   1
  -8  -4   6 12.7441 24.7394  -2
   0 -12   6 12.7441 24.7394   1
  -8  -3   6 -8.4225 15.4257  -2
   1 -12   6 -8.4225 15.4257   1
  -8  -2   6 -15.322 23.1363  -2
   2 -12   6 -15.322 23.1363   1
  -9   0   6 200.045 19.3351  -2
   3 -12   6 200.045 19.3351   1
  -9   1   6 0.98669 16.5668  -2
   4 -12   6 0.98669 16.5668   1
   5 -12   6 4.99456 58.2131   1
  -6  -7   6 -26.731 26.2709  -2
  -2 -11   6 -26.731 26.2709   1
  -7  -5   6 203.113 18.9054  -2
  -1 -11   6 203.113 18.9054   1
  -7  -4   6 -7.0033 13.8168  -2
   0 -11   6 -7.0033 13.8168   1
   1 -11   6 40.0904 36.7260   1
  -8  -1   6 257.599 18.7835  -2
   2 -11   6 257.599 18.7835   1
  -8   0   6 -8.9309 14.8861  -2
   3 -11   6 -8.9309 14.8861   1
  -9   2   6 -48.322 53.4341  -2
   4 -11   6 -48.322 53.4341   1
  -9   3   5 449.101 39.5607  -2
   5 -11   5 449.101 39.5607   1
   5 -11   6 449.101 39.5607   1
  -9   4   6 35.8746 19.9708  -2
   6 -11   6 35.8746 19.9708   1
  -5  -8   6 0.77702 28.0797  -2
  -3 -10   6 0.77702 28.0797   1
  -6  -6   6 239.866 19.3971  -2
  -2 -10   6 239.866 19.3971   1
  -6  -5   6 -24.703 11.0877  -2
  -1 -10   6 -24.703 11.0877   1
  -7  -3   6 -5.4728 26.1662  -2
   0 -10   6 -5.4728 26.1662   1
  -7  -2   6 280.899 14.9591  -2
   1 -10   6 280.899 14.9591   1
  -7  -1   6 -16.443 12.0533  -2
   2 -10   6 -16.443 12.0533   1
  -8   1   6 -24.584 47.7491  -2
   3 -10   6 -24.584 47.7491   1
  -8   2   6 130.678 15.6095  -2
   4 -10   6 130.678 15.6095   1
  -8   3   6 -11.088 16.8883  -2
   5 -10   6 -11.088 16.8883   1
   6 -10   6 63.3909 40.6970   1
  -9   6   6 204.253 19.3967  -2
   7 -10   6 204.253 19.3967   1
  -4  -9   6 0.65478 18.9915  -2
  -4  -9   6 0.65478 18.9915   1
  -5  -7   6 112.077 18.1283  -2
  -3  -9   6 112.077 18.1283   1
  -5  -6   6 0.72973 13.4339  -2
  -2  -9   6 0.72973 13.4339   1
  -6  -4   6 -11.754 21.4057  -2
  -1  -9   6 -11.754 21.4057   1
  -6  -3   6 88.8572 10.8585  -2
   0  -9   6 88.8572 10.8585   1
  -6  -2   6 -17.389 10.8143  -2
   1  -9   6 -17.389 10.8143   1
  -7   0   6 -29.007 23.7833  -2
   2  -9   6 -29.007 23.7833   1
  -7   1   6 287.777 14.3027  -2
   3  -9   6 287.777 14.3027   1
  -7   2   6 -2.7868 12.9192  -2
   4  -9   6 -2.7868 12.9192   1
  -8   4   6 -7.8219 46.5134  -2
   5  -9   6 -7.8219 46.5134   1
  -8   5   6 289.924 18.7826  -2
   6  -9   6 289.924 18.7826   1
  -8   6   6 -25.871 19.1874  -2
   7  -9   6 -25.871 19.1874   1
  -3 -10   6 -0.6911 28.8056  -2
  -5  -8   6 -0.6911 28.8056   1
  -4  -8   6 17.9817 13.5412  -2
  -4  -8   6 17.9817 13.5412   1
  -4  -7   6 8.29553 11.5372  -2
  -3  -8   6 8.29553 11.5372   1
  -2  -8   6 -1.8011 18.8171   1
  -5  -4   6 73.7217 12.4308  -2
  -1  -8   6 73.7217 12.4308   1
  -5  -3   6 -5.9848 9.37420  -2
   0  -8   6 -5.9848 9.37420   1
  -6  -1   6 -3.3032 20.1036  -2
   1  -8   6 -3.3032 20.1036   1
  -6   0   6 472.975 15.1397  -2
   2  -8   6 472.975 15.1397   1
  -6   1   6 -33.596 10.5945  -2
   3  -8   6 -33.596 10.5945   1
  -7   3   6 -19.670 24.0950  -2
   4  -8   6 -19.670 24.0950   1
  -7   4   6 334.353 15.0639  -2
   5  -8   6 334.353 15.0639   1
  -7   5   6 2.58982 16.9705  -2
   6  -8   6 2.58982 16.9705   1
   7  -8   6 -20.619 14.9541   1
  -2 -11   6 35.6799 32.0874  -2
  -6  -7   6 35.6799 32.0874   1
  -3  -9   6 90.6527 14.6362  -2
  -5  -7   6 90.6527 14.6362   1
  -3  -8   6 14.4034 12.0406  -2
  -4  -7   6 14.4034 12.0406   1
  -3  -7   6 -15.028 19.1443   1
  -4  -5   6 213.107 11.6300  -2
  -2  -7   6 213.107 11.6300   1
  -4  -4   6 -6.8282 8.98316  -2
  -1  -7   6 -6.8282 8.98316   1
  -5  -2   6 -1.5592 16.6858  -2
   0  -7   6 -1.5592 16.6858   1
  -5  -1   6 950.743 24.7673  -2
   1  -7   6 950.743 24.7673   1
  -5   0   6 -7.6334 9.36892  -2
   2  -7   6 -7.6334 9.36892   1
  -6   2   6 0.74145 20.7766  -2
   3  -7   6 0.74145 20.7766   1
  -6   3   6 91.7020 9.45512  -2
   4  -7   6 91.7020 9.45512   1
  -6   4   6 25.0103 15.0472  -2
   5  -7   6 25.0103 15.0472   1
  -7   6   6 -11.100 45.5796  -2
   6  -7   6 -11.100 45.5796   1
  -7   7   6 -4.5407 31.8436  -2
   7  -7   6 -4.5407 31.8436   1
   8  -7   6 -14.293 16.0795   1
  -7  -6   6 1.08180 29.1100   1
  -2 -10   6 230.632 21.5833  -2
  -6  -6   6 230.632 21.5833   1
  -2  -9   6 14.9317 12.8163  -2
  -5  -6   6 14.9317 12.8163   1
  -4  -6   6 -2.4734 19.1331   1
  -3  -6   6 350.653 14.3495  -2
  -3  -6   6 350.653 14.3495   1
  -3  -5   6 5.83296 9.92816  -2
  -2  -6   6 5.83296 9.92816   1
  -1  -6   6 15.7477 19.2245   1
  -4  -2   6 436.036 12.5688  -2
   0  -6   6 436.036 12.5688   1
  -4  -1   6 3.10027 11.7810  -2
   1  -6   6 3.10027 11.7810   1
  -5   1   6 5.75802 28.1306  -2
   2  -6   6 5.75802 28.1306   1
  -5   2   6 228.941 9.73066  -2
   3  -6   6 228.941 9.73066   1
  -5   3   6 -8.1999 10.1126  -2
   4  -6   6 -8.1999 10.1126   1
   5  -6   6 10.4958 12.1664   1
  -6   6   6 305.976 13.6956  -2
   6  -6   6 305.976 13.6956   1
   7  -6   6 8.73093 14.9133   1
   8  -6   6 -15.744 15.6789   1
  -1 -11   6 156.208 29.8384  -2
  -7  -5   6 156.208 29.8384   1
  -1 -10   6 4.79426 13.5609  -2
  -6  -5   6 4.79426 13.5609   1
  -5  -5   6 -4.5256 20.8163   1
  -2  -7   6 159.643 12.0370  -2
  -4  -5   6 159.643 12.0370   1
  -2  -6   6 -1.8915 10.4325  -2
  -3  -5   6 -1.8915 10.4325   1
  -2  -5   6 -8.9544 11.1758   1
  -3  -3   6 112.943 9.17978  -2
  -1  -5   6 112.943 9.17978   1
  -3  -2   6 -3.9080 8.14808  -2
   0  -5   6 -3.9080 8.14808   1
   1  -5   6 7.18070 6.50336   1
  -4   1   6 613.378 17.1547  -2
   2  -5   6 613.378 17.1547   1
  -4   2   6 -10.477 15.8392  -2
   3  -5   6 -10.477 15.8392   1
  -5   4   6 -6.2972 30.4630  -2
   4  -5   6 -6.2972 30.4630   1
  -5   5   6 1329.05 33.5881  -2
   5  -5   6 1329.05 33.5881   1
  -5   6   6 -27.944 23.5788  -2
   6  -5   6 -27.944 23.5788   1
   7  -5   6 16.1874 13.6680   1
   9  -5   6 51.2637 67.1305   1
   0 -12   6 -9.5761 28.1167  -2
  -8  -4   6 -9.5761 28.1167   1
   0 -11   6 -22.930 15.0267  -2
  -7  -4   6 -22.930 15.0267   1
  -6  -4   6 -6.1285 22.2371   1
  -1  -8   6 44.0372 9.32370  -2
  -5  -4   6 44.0372 9.32370   1
  -1  -7   6 -1.0638 9.24075  -2
  -4  -4   6 -1.0638 9.24075   1
  -3  -4   6 -3.7345 12.9928   1
  -2  -4   6 1206.64 29.5845  -2
  -2  -4   6 1206.64 29.5845   1
  -2  -3   6 -3.5726 8.43940  -2
  -1  -4   6 -3.5726 8.43940   1
   0  -4   6 -5.6096 7.71900   1
  -3   0   6 1506.68 32.4691  -2
   1  -4   6 1506.68 32.4691   1
  -3   1   6 -2.2583 18.6247  -2
   2  -4   6 -2.2583 18.6247   1
  -4   3   6 3.48554 25.5811  -2
   3  -4   6 3.48554 25.5811   1
  -4   4   6 935.963 22.5304  -2
   4  -4   6 935.963 22.5304   1
  -4   5   6 -21.942 20.7915  -2
   5  -4   6 -21.942 20.7915   1
   6  -4   6 -8.7747 11.3195   1
   8  -4   6 -31.124 28.7384   1
   9  -4   6 -65.221 62.9262   1
   1 -12   6 15.1718 16.7850  -2
  -8  -3   6 15.1718 16.7850   1
  -7  -3   6 12.2626 26.1505   1
   0  -9   6 136.628 11.8985  -2
  -6  -3   6 136.628 11.8985   1
   0  -8   6 -5.7934 10.1671  -2
  -5  -3   6 -5.7934 10.1671   1
  -1  -6   6 6.49525 23.4979  -2
  -4  -3   6 6.49525 23.4979   1
  -1  -5   6 130.739 7.90633  -2
  -3  -3   6 130.739 7.90633   1
  -2  -3   6 -0.3408 8.81155   1
  -1  -3   6 12.0167 11.9985   1
  -2  -1   6 1676.48 47.0163  -2
   0  -3   6 1676.48 47.0163   1
   1  -3   6 -7.0210 5.18869   1
   2  -3   6 7.35499 5.98193   1
  -3   3   6 176.979 7.34900  -2
   3  -3   6 176.979 7.34900   1
  -3   4   6 -14.789 17.1005  -2
   4  -3   6 -14.789 17.1005   1
  -4   6   6 9.94763 38.4237  -2
   5  -3   6 9.94763 38.4237   1
   7  -3   6 -41.236 44.6949   1
   8  -3   6 67.2426 57.2072   1
  -5  11   6 168.396 18.8956  -2
   9  -3   6 168.396 18.8956   1
  -8  -2   6 -70.488 28.8944   1
   1 -10   6 335.466 17.9695  -2
  -7  -2   6 335.466 17.9695   1
   1  -9   6 -12.262 11.7387  -2
  -6  -2   6 -12.262 11.7387   1
   0  -7   6 -27.752 29.4067  -2
  -5  -2   6 -27.752 29.4067   1
   0  -6   6 576.140 17.0705  -2
  -4  -2   6 576.140 17.0705   1
   0  -5   6 17.0537 24.3887  -2
  -3  -2   6 17.0537 24.3887   1
  -2  -2   6 -6.4960 7.91844   1
  -1  -2   6 292.716 10.5581  -2
  -1  -2   6 292.716 10.5581   1
   0  -2   6 7.98482 15.4407   1
   1  -2   6 -2.2794 3.35132   1
  -2   2   6 85.6405 4.82480  -2
   2  -2   6 85.6405 4.82480   1
   3  -2   6 5.79772 9.69558   1
  -3   5   6 28.5238 28.2828  -2
   4  -2   6 28.5238 28.2828   1
  -3   6   6 573.152 29.7529  -2
   5  -2   6 573.152 29.7529   1
  -3   7   6 -4.5404 20.9053  -2
   6  -2   6 -4.5404 20.9053   1
  -4   9   6 24.6969 24.5512  -2
   7  -2   6 24.6969 24.5512   1
  -4  10   6 314.984 19.1758  -2
   8  -2   6 314.984 19.1758   1
   9  -2   6 -5.4033 63.9107   1
  -9  -1   6 -14.599 35.0527   1
   2 -11   6 251.917 22.2370  -2
  -8  -1   6 251.917 22.2370   1
   2 -10   6 -21.439 14.3441  -2
  -7  -1   6 -21.439 14.3441   1
   1  -8   6 -15.909 33.7252  -2
  -6  -1   6 -15.909 33.7252   1
   1  -7   6 579.568 18.6178  -2
  -5  -1   6 579.568 18.6178   1
   1  -6   6 -11.282 9.05801  -2
  -4  -1   6 -11.282 9.05801   1
  -3  -1   6 2.39589 9.71997   1
   0  -3   6 907.055 27.4129  -2
  -2  -1   6 907.055 27.4129   1
  -1  -1   6 -3.0655 7.41123   1
  -1   1   6 4718.97 105.224  -2
   1  -1   6 4718.97 105.224   1
   2  -1   6 4.36068 4.37547   1
  -2   4   6 15.8688 14.8608  -2
   3  -1   6 15.8688 14.8608   1
  -2   5   6 2733.85 63.0388  -2
   4  -1   6 2733.85 63.0388   1
  -2   6   6 -4.6680 18.1151  -2
   5  -1   6 -4.6680 18.1151   1
  -3   8   6 -14.711 20.9567  -2
   6  -1   6 -14.711 20.9567   1
  -3   9   6 366.201 18.2293  -2
   7  -1   6 366.201 18.2293   1
  -3  10   6 -12.410 27.6381  -2
   8  -1   6 -12.410 27.6381   1
   3 -12   6 112.217 29.8220  -2
  -9   0   6 112.217 29.8220   1
   3 -11   6 10.5508 16.4746  -2
  -8   0   6 10.5508 16.4746   1
  -7   0   6 -3.8700 23.2737   1
   2  -8   6 263.223 14.8380  -2
  -6   0   6 263.223 14.8380   1
   2  -7   6 11.3886 13.9065  -2
  -5   0   6 11.3886 13.9065   1
   1  -5   6 -16.639 28.6788  -2
  -4   0   6 -16.639 28.6788   1
   1  -4   6 1182.51 29.0704  -2
  -3   0   6 1182.51 29.0704   1
  -2   0   6 -17.282 9.20394   1
  -1   0   6 -0.9110 9.80697   1
   0   0   6 5773.53 140.914  -2
   0   0   6 5773.53 140.914   1
   1   0   6 -1.4930 3.09652   1
   2   0   6 -2.6387 5.07594   1
  -1   4   6 1056.74 25.6305  -2
   3   0   6 1056.74 25.6305   1
  -1   5   6 -2.0439 16.9150  -2
   4   0   6 -2.0439 16.9150   1
  -2   7   6 -0.1038 13.0403  -2
   5   0   6 -0.1038 13.0403   1
  -2   8   6 151.897 13.9760  -2
   6   0   6 151.897 13.9760   1
  -2   9   6 22.3346 24.9871  -2
   7   0   6 22.3346 24.9871   1
  -3  11   6 1.74672 25.5207  -2
   8   0   6 1.74672 25.5207   1
   4 -12   6 -33.519 36.4449  -2
  -9   1   6 -33.519 36.4449   1
  -8   1   6 15.0647 27.5808   1
   3  -9   6 400.098 19.4638  -2
  -7   1   6 400.098 19.4638   1
   3  -8   6 14.7320 16.8911  -2
  -6   1   6 14.7320 16.8911   1
   2  -6   6 -7.6865 30.6926  -2
  -5   1   6 -7.6865 30.6926   1
   2  -5   6 954.278 21.4360  -2
  -4   1   6 954.278 21.4360   1
  -3   1   6 -3.0094 6.02629   1
  -2   1   6 6.32862 3.55671   1
   1  -1   6 3885.52 95.4353  -2
  -1   1   6 3885.52 95.4353   1
   0   1   6 -0.6740 2.83139   1
   1   1   6 -0.4808 4.81293   1
   0   3   6 1247.92 50.2954  -2
   2   1   6 1247.92 50.2954   1
   3   1   6 -2.1262 5.27822   1
  -1   6   6 -0.3249 10.3367  -2
   4   1   6 -0.3249 10.3367   1
  -1   7   6 470.681 15.3874  -2
   5   1   6 470.681 15.3874   1
  -1   8   6 1.97733 21.6729  -2
   6   1   6 1.97733 21.6729   1
  -2  10   6 -0.9172 16.2525  -2
   7   1   6 -0.9172 16.2525   1
  -2  11   6 239.673 27.4706  -2
   8   1   6 239.673 27.4706   1
  -9   2   6 4.66239 41.6968   1
   4 -10   6 218.818 30.2894  -2
  -8   2   6 218.818 30.2894   1
   4  -9   6 -2.6899 19.8243  -2
  -7   2   6 -2.6899 19.8243   1
   3  -7   6 -7.4702 36.7016  -2
  -6   2   6 -7.4702 36.7016   1
   3  -6   6 469.196 13.7922  -2
  -5   2   6 469.196 13.7922   1
  -4   2   6 -6.4738 7.76805   1
  -3   2   6 -8.2467 4.18319   1
   2  -2   6 66.6926 4.18799  -2
  -2   2   6 66.6926 4.18799   1
  -1   2   6 -0.2169 3.40698   1
   0   2   6 -4.8240 3.28768   1
   1   2   6 321.470 16.1495  -2
   1   2   6 321.470 16.1495   1
   2   2   6 0.03270 5.48614   1
   3   2   6 -3.1325 5.73257   1
   0   6   6 738.288 20.1171  -2
   4   2   6 738.288 20.1171   1
   0   7   6 11.4428 17.2064  -2
   5   2   6 11.4428 17.2064   1
  -1   9   6 -10.135 13.8460  -2
   6   2   6 -10.135 13.8460   1
  -1  10   6 309.251 25.7651  -2
   7   2   6 309.251 25.7651   1
   8   2   6 -9.4503 32.9820   1
   5 -11   6 142.546 24.4678  -2
  -9   3   6 142.546 24.4678   1
   5 -10   6 5.36584 18.2729  -2
  -8   3   6 5.36584 18.2729   1
  -7   3   6 -3.0628 18.9896   1
   4  -7   6 129.428 10.8754  -2
  -6   3   6 129.428 10.8754   1
  -5   3   6 -2.1723 8.91825   1
  -4   3   6 3.36905 7.30038   1
   3  -3   6 128.942 5.59124  -2
  -3   3   6 128.942 5.59124   1
  -2   3   6 0.04193 3.95907   1
  -1   3   6 -1.4101 3.12676   1
   2   1   6 1661.43 64.8731  -2
   0   3   6 1661.43 64.8731   1
   1   3   6 -3.3429 4.57395   1
   2   3   6 -3.0673 5.27489   1
   1   5   6 650.270 20.9864  -2
   3   3   6 650.270 20.9864   1
   1   6   6 0.02745 14.6224  -2
   4   3   6 0.02745 14.6224   1
   0   8   6 5.76147 11.5553  -2
   5   3   6 5.76147 11.5553   1
   0   9   6 123.323 19.5013  -2
   6   3   6 123.323 19.5013   1
   7   3   6 -60.999 29.0869   1
   6 -11   6 -2.8668 19.9503  -2
  -9   4   6 -2.8668 19.9503   1
  -8   4   6 -14.371 21.9096   1
   5  -8   6 241.073 16.5925  -2
  -7   4   6 241.073 16.5925   1
  -6   4   6 12.8615 10.9850   1
  -5   4   6 -14.891 9.26510   1
   4  -4   6 945.699 23.3519  -2
  -4   4   6 945.699 23.3519   1
  -3   4   6 -10.197 6.42617   1
  -2   4   6 7.10912 4.49238   1
   3   0   6 1159.88 27.8597  -2
  -1   4   6 1159.88 27.8597   1
   0   4   6 3.97416 4.23857   1
   1   4   6 4.48706 5.30613   1
   2   4   6 1427.74 40.9137  -2
   2   4   6 1427.74 40.9137   1
   3   4   6 -11.098 6.00237   1
   1   7   6 6.97021 10.5300  -2
   4   4   6 6.97021 10.5300   1
   1   8   6 190.963 19.1303  -2
   5   4   6 190.963 19.1303   1
   6   4   6 -11.921 26.9693   1
   0  11   6 -2.9387 19.9780  -2
   7   4   6 -2.9387 19.9780   1
  -9   5   6 -35.188 25.0111   1
   6  -9   6 263.758 25.4092  -2
  -8   5   6 263.758 25.4092   1
   6  -8   6 -12.387 20.8200  -2
  -7   5   6 -12.387 20.8200   1
  -6   5   6 -5.6789 11.6441   1
   5  -5   6 1255.47 33.1929  -2
  -5   5   6 1255.47 33.1929   1
  -4   5   6 -0.2419 8.42926   1
  -3   5   6 -9.2301 4.73979   1
   4  -1   6 2102.64 48.6768  -2
  -2   5   6 2102.64 48.6768   1
   4   0   6 -7.1626 16.4339  -2
  -1   5   6 -7.1626 16.4339   1
   0   5   6 -5.3332 4.78320   1
   3   3   6 333.420 10.9276  -2
   1   5   6 333.420 10.9276   1
   3   4   6 -3.1097 20.0491  -2
   2   5   6 -3.1097 20.0491   1
   2   6   6 -6.7214 9.86752  -2
   3   5   6 -6.7214 9.86752   1
   2   7   6 282.505 21.0281  -2
   4   5   6 282.505 21.0281   1
   5   5   6 -39.869 35.1734   1
   1  10   6 -1.8878 18.3822  -2
   6   5   6 -1.8878 18.3822   1
   7 -10   6 291.998 28.9635  -2
  -9   6   6 291.998 28.9635   1
   7  -9   6 -42.752 24.0891  -2
  -8   6   6 -42.752 24.0891   1
  -7   6   6 7.58400 20.0631   1
   6  -6   6 302.955 14.8821  -2
  -6   6   6 302.955 14.8821   1
  -5   6   6 -2.1528 10.2203   1
  -4   6   6 0.27680 6.04092   1
   5  -2   6 293.068 10.3925  -2
  -3   6   6 293.068 10.3925   1
   5  -1   6 -1.7947 12.2512  -2
  -2   6   6 -1.7947 12.2512   1
   4   1   6 -23.369 17.7672  -2
  -1   6   6 -23.369 17.7672   1
   4   2   6 536.791 13.6672  -2
   0   6   6 536.791 13.6672   1
   4   3   6 -7.0663 11.2311  -2
   1   6   6 -7.0663 11.2311   1
   3   5   6 0.81749 9.10043  -2
   2   6   6 0.81749 9.10043   1
   3   6   6 515.650 21.3443  -2
   3   6   6 515.650 21.3443   1
   3   7   6 7.69839 29.3097  -2
   4   6   6 7.69839 29.3097   1
   2   9   6 3.57744 18.0572  -2
   5   6   6 3.57744 18.0572   1
   2  10   6 235.295 18.5675  -2
   6   6   6 235.295 18.5675   1
  -8   7   6 -34.996 27.9083   1
   7  -7   6 -16.111 12.6016  -2
  -7   7   6 -16.111 12.6016   1
  -6   7   6 10.1213 18.4292   1
  -5   7   6 -11.738 7.71643   1
   6  -3   6 191.059 8.66379  -2
  -4   7   6 191.059 8.66379   1
   6  -2   6 -2.6589 24.9798  -2
  -3   7   6 -2.6589 24.9798   1
   5   0   6 -2.8779 7.43361  -2
  -2   7   6 -2.8779 7.43361   1
   5   1   6 697.702 19.9451  -2
  -1   7   6 697.702 19.9451   1
   5   2   6 0.25463 13.3994  -2
   0   7   6 0.25463 13.3994   1
   4   4   6 7.86449 8.80432  -2
   1   7   6 7.86449 8.80432   1
   4   5   6 497.276 20.5058  -2
   2   7   6 497.276 20.5058   1
   4   6   6 2.60392 15.4136  -2
   3   7   6 2.60392 15.4136   1
   3   8   6 23.3732 15.9490  -2
   4   7   6 23.3732 15.9490   1
   3   9   6 94.0575 14.7045  -2
   5   7   6 94.0575 14.7045   1
   8  -8   6 201.166 18.1541  -2
  -8   8   6 201.166 18.1541   1
  -7   8   6 -6.1213 20.5869   1
  -6   8   6 -4.6784 19.3757   1
   7  -4   6 748.807 21.9678  -2
  -5   8   6 748.807 21.9678   1
   7  -3   6 -12.344 21.0738  -2
  -4   8   6 -12.344 21.0738   1
   6  -1   6 4.07928 11.0061  -2
  -3   8   6 4.07928 11.0061   1
   6   0   6 234.966 11.4786  -2
  -2   8   6 234.966 11.4786   1
   6   1   6 -7.0662 15.1255  -2
  -1   8   6 -7.0662 15.1255   1
   5   3   6 11.2547 10.4299  -2
   0   8   6 11.2547 10.4299   1
   5   4   6 292.871 15.4625  -2
   1   8   6 292.871 15.4625   1
   5   5   6 17.9145 22.9731  -2
   2   8   6 17.9145 22.9731   1
   4   7   6 -1.4099 18.5498  -2
   3   8   6 -1.4099 18.5498   1
   4   8   6 7.55812 13.8711  -2
   4   8   6 7.55812 13.8711   1
  -7   9   6 16.3966 28.5871   1
   8  -5   6 290.351 13.9334  -2
  -6   9   6 290.351 13.9334   1
  -5   9   6 10.8843 10.8283   1
   7  -2   6 -25.029 22.0679  -2
  -4   9   6 -25.029 22.0679   1
   7  -1   6 305.837 14.6612  -2
  -3   9   6 305.837 14.6612   1
   7   0   6 -17.123 22.0261  -2
  -2   9   6 -17.123 22.0261   1
   6   2   6 -19.191 12.0152  -2
  -1   9   6 -19.191 12.0152   1
   6   3   6 110.129 12.5358  -2
   0   9   6 110.129 12.5358   1
   6   4   6 8.28655 22.4392  -2
   1   9   6 8.28655 22.4392   1
   5   6   6 -10.020 18.1159  -2
   2   9   6 -10.020 18.1159   1
   5   7   6 200.719 18.3688  -2
   3   9   6 200.719 18.3688   1
  -6  10   6 7.54989 12.2091   1
   8  -3   6 1.20705 14.1707  -2
  -5  10   6 1.20705 14.1707   1
   8  -2   6 162.818 11.6814  -2
  -4  10   6 162.818 11.6814   1
   8  -1   6 -16.940 25.8947  -2
  -3  10   6 -16.940 25.8947   1
   7   1   6 11.2897 13.8410  -2
  -2  10   6 11.2897 13.8410   1
   7   2   6 326.088 17.5533  -2
  -1  10   6 326.088 17.5533   1
   0  10   6 71.2875 42.6315   1
   6   5   6 -8.0188 17.7600  -2
   1  10   6 -8.0188 17.7600   1
   6   6   6 200.896 18.5249  -2
   2  10   6 200.896 18.5249   1
   9  -3   6 125.484 12.9430  -2
  -5  11   6 125.484 12.9430   1
   9  -2   6 -18.349 20.3490  -2
  -4  11   6 -18.349 20.3490   1
   8   0   6 -8.1839 15.4818  -2
  -3  11   6 -8.1839 15.4818   1
   8   1   6 381.198 20.1055  -2
  -2  11   6 381.198 20.1055   1
  -1  11   6 15.9921 42.5583   1
   7   4   6 5.73307 19.0276  -2
   0  11   6 5.73307 19.0276   1
   0 -12   7 112.745 44.0587   1
  -8  -3   7 5.04949 22.2923  -2
   1 -12   7 5.04949 22.2923   1
   2 -12   7 12.7534 16.0594   1
  -9   0   7 143.771 19.0495  -2
   3 -12   7 143.771 19.0495   1
  -9   1   7 -0.7571 24.5707  -2
   4 -12   7 -0.7571 24.5707   1
  -6  -7   7 -17.982 18.6659  -2
  -2 -11   7 -17.982 18.6659   1
  -7  -5   7 53.2638 17.3801  -2
  -1 -11   7 53.2638 17.3801   1
  -7  -4   7 -22.863 12.5299  -2
   0 -11   7 -22.863 12.5299   1
   1 -11   7 1.97290 36.0643   1
  -8  -1   7 55.6716 18.2620  -2
   2 -11   7 55.6716 18.2620   1
  -8   0   7 -31.238 14.9795  -2
   3 -11   7 -31.238 14.9795   1
  -9   2   7 -4.5302 54.1496  -2
   4 -11   7 -4.5302 54.1496   1
  -9   3   7 46.8211 15.1172  -2
   5 -11   7 46.8211 15.1172   1
  -5  -8   7 -4.2851 19.6002  -2
  -3 -10   7 -4.2851 19.6002   1
  -6  -6   7 35.6965 16.6053  -2
  -2 -10   7 35.6965 16.6053   1
  -6  -5   7 -8.4947 13.1696  -2
  -1 -10   7 -8.4947 13.1696   1
  -7  -3   7 -43.571 27.5306  -2
   0 -10   7 -43.571 27.5306   1
  -7  -2   7 248.224 13.3659  -2
   1 -10   7 248.224 13.3659   1
  -7  -1   7 -7.7264 12.3725  -2
   2 -10   7 -7.7264 12.3725   1
  -8   1   7 -61.139 47.0375  -2
   3 -10   7 -61.139 47.0375   1
  -8   2   7 149.069 15.9802  -2
   4 -10   7 149.069 15.9802   1
  -8   3   7 4.87184 16.9182  -2
   5 -10   7 4.87184 16.9182   1
   6 -10   7 6.89495 25.8949   1
   7 -10   7 183.576 67.9213   1
  -4  -9   7 -2.2572 19.8120  -2
  -4  -9   7 -2.2572 19.8120   1
  -5  -7   7 109.487 17.9735  -2
  -3  -9   7 109.487 17.9735   1
  -5  -6   7 -8.8428 13.3292  -2
  -2  -9   7 -8.8428 13.3292   1
  -6  -4   7 -30.999 23.6655  -2
  -1  -9   7 -30.999 23.6655   1
  -6  -3   7 280.953 17.1829  -2
   0  -9   7 280.953 17.1829   1
  -6  -2   7 -17.156 10.8250  -2
   1  -9   7 -17.156 10.8250   1
  -7   0   7 -15.462 24.5337  -2
   2  -9   7 -15.462 24.5337   1
  -7   1   7 313.764 14.8505  -2
   3  -9   7 313.764 14.8505   1
  -7   2   7 5.48541 14.6236  -2
   4  -9   7 5.48541 14.6236   1
  -8   4   7 -27.402 46.5076  -2
   5  -9   7 -27.402 46.5076   1
  -8   5   7 21.0742 18.0505  -2
   6  -9   7 21.0742 18.0505   1
  -8   6   7 -56.880 28.6167  -2
   7  -9   7 -56.880 28.6167   1
  -3 -10   7 4.25647 20.0684  -2
  -5  -8   7 4.25647 20.0684   1
  -4  -8   7 238.683 16.2507  -2
  -4  -8   7 238.683 16.2507   1
  -4  -7   7 0.21535 11.5726  -2
  -3  -8   7 0.21535 11.5726   1
  -2  -8   7 -9.5759 29.0576   1
  -5  -4   7 294.575 16.4866  -2
  -1  -8   7 294.575 16.4866   1
  -5  -3   7 -3.6019 9.62486  -2
   0  -8   7 -3.6019 9.62486   1
  -6  -1   7 16.4403 21.0247  -2
   1  -8   7 16.4403 21.0247   1
  -6   0   7 214.332 12.1991  -2
   2  -8   7 214.332 12.1991   1
  -6   1   7 -25.330 11.2755  -2
   3  -8   7 -25.330 11.2755   1
  -7   3   7 22.4067 24.8292  -2
   4  -8   7 22.4067 24.8292   1
  -7   4   7 131.710 14.6399  -2
   5  -8   7 131.710 14.6399   1
  -7   5   7 15.0435 19.9122  -2
   6  -8   7 15.0435 19.9122   1
  -8   7   7 -92.458 54.4100  -2
   7  -8   7 -92.458 54.4100   1
  -8   8   7 153.822 26.0517  -2
   8  -8   7 153.822 26.0517   1
  -2 -11   7 -10.644 22.2913  -2
  -6  -7   7 -10.644 22.2913   1
  -3  -9   7 141.920 15.3705  -2
  -5  -7   7 141.920 15.3705   1
  -3  -8   7 -12.903 11.7857  -2
  -4  -7   7 -12.903 11.7857   1
  -3  -7   7 -7.0398 18.8187   1
  -4  -5   7 228.673 14.9377  -2
  -2  -7   7 228.673 14.9377   1
  -4  -4   7 -7.8799 10.6241  -2
  -1  -7   7 -7.8799 10.6241   1
  -5  -2   7 -19.740 23.2691  -2
   0  -7   7 -19.740 23.2691   1
  -5  -1   7 331.871 12.1191  -2
   1  -7   7 331.871 12.1191   1
  -5   0   7 -14.694 9.33881  -2
   2  -7   7 -14.694 9.33881   1
  -6   2   7 -23.347 34.6069  -2
   3  -7   7 -23.347 34.6069   1
  -6   3   7 534.304 17.6219  -2
   4  -7   7 534.304 17.6219   1
  -6   4   7 6.20083 15.0091  -2
   5  -7   7 6.20083 15.0091   1
  -7   6   7 -12.491 47.1039  -2
   6  -7   7 -12.491 47.1039   1
   8  -7   7 20.6076 18.8357   1
  -7  -6   7 10.5878 32.4048   1
  -2 -10   7 14.8039 15.1155  -2
  -6  -6   7 14.8039 15.1155   1
  -2  -9   7 3.14085 12.6208  -2
  -5  -6   7 3.14085 12.6208   1
  -4  -6   7 18.3317 20.0506   1
  -3  -6   7 11.0289 9.58868  -2
  -3  -6   7 11.0289 9.58868   1
  -3  -5   7 -3.1191 10.0554  -2
  -2  -6   7 -3.1191 10.0554   1
  -1  -6   7 1.36557 10.0433   1
  -4  -2   7 404.903 12.1348  -2
   0  -6   7 404.903 12.1348   1
  -4  -1   7 -0.7221 10.4407  -2
   1  -6   7 -0.7221 10.4407   1
  -5   1   7 -5.1357 25.4237  -2
   2  -6   7 -5.1357 25.4237   1
  -5   2   7 1014.95 24.3879  -2
   3  -6   7 1014.95 24.3879   1
  -5   3   7 -6.3439 10.4751  -2
   4  -6   7 -6.3439 10.4751   1
  -6   5   7 -37.929 38.5421  -2
   5  -6   7 -37.929 38.5421   1
  -6   6   7 172.138 15.0504  -2
   6  -6   7 172.138 15.0504   1
   7  -6   7 -36.320 48.6138   1
  -7   9   7 -26.237 55.7058  -2
   8  -6   7 -26.237 55.7058   1
  -1 -11   7 101.383 28.4127  -2
  -7  -5   7 101.383 28.4127   1
  -1 -10   7 4.90742 13.6188  -2
  -6  -5   7 4.90742 13.6188   1
  -5  -5   7 8.44444 21.5134   1
  -2  -7   7 379.472 15.4803  -2
  -4  -5   7 379.472 15.4803   1
  -2  -6   7 -13.069 11.2421  -2
  -3  -5   7 -13.069 11.2421   1
  -2  -5   7 -9.0289 11.7174   1
  -3  -3   7 799.693 20.7394  -2
  -1  -5   7 799.693 20.7394   1
  -3  -2   7 7.47888 10.3039  -2
   0  -5   7 7.47888 10.3039   1
   1  -5   7 -7.9171 6.33187   1
  -4   1   7 400.967 11.4442  -2
   2  -5   7 400.967 11.4442   1
  -4   2   7 3.82647 16.4336  -2
   3  -5   7 3.82647 16.4336   1
  -5   4   7 -1.8974 33.2491  -2
   4  -5   7 -1.8974 33.2491   1
  -5   5   7 224.687 14.5473  -2
   5  -5   7 224.687 14.5473   1
  -5   6   7 -58.974 41.2554  -2
   6  -5   7 -58.974 41.2554   1
  -6   8   7 -59.219 49.5716  -2
   7  -5   7 -59.219 49.5716   1
  -6   9   7 64.3677 19.2626  -2
   8  -5   7 64.3677 19.2626   1
   0 -11   7 -4.5224 14.8312  -2
  -7  -4   7 -4.5224 14.8312   1
  -6  -4   7 -16.518 22.1576   1
  -1  -8   7 241.651 15.9592  -2
  -5  -4   7 241.651 15.9592   1
  -1  -7   7 -4.2934 9.20983  -2
  -4  -4   7 -4.2934 9.20983   1
  -3  -4   7 -0.6795 13.7389   1
  -2  -4   7 614.173 16.8720  -2
  -2  -4   7 614.173 16.8720   1
  -1  -4   7 -9.3112 13.8448   1
   0  -4   7 -5.9970 8.20089   1
  -3   0   7 290.906 8.94605  -2
   1  -4   7 290.906 8.94605   1
  -3   1   7 -3.1093 18.2795  -2
   2  -4   7 -3.1093 18.2795   1
  -4   3   7 -16.878 24.7660  -2
   3  -4   7 -16.878 24.7660   1
  -4   4   7 1300.53 31.2480  -2
   4  -4   7 1300.53 31.2480   1
  -4   5   7 -6.6901 34.8849  -2
   5  -4   7 -6.6901 34.8849   1
  -5   7   7 -3.2819 43.9410  -2
   6  -4   7 -3.2819 43.9410   1
   8  -4   7 -9.9792 28.1409   1
   1 -12   7 -1.4585 16.7125  -2
  -8  -3   7 -1.4585 16.7125   1
  -7  -3   7 -1.9306 25.7456   1
   0  -9   7 148.670 14.2620  -2
  -6  -3   7 148.670 14.2620   1
   0  -8   7 4.59864 10.2666  -2
  -5  -3   7 4.59864 10.2666   1
  -1  -6   7 1.49025 23.9589  -2
  -4  -3   7 1.49025 23.9589   1
  -1  -5   7 450.066 16.5121  -2
  -3  -3   7 450.066 16.5121   1
  -2  -3   7 -8.6314 9.04527   1
  -1  -3   7 1.84261 12.2546   1
  -2  -1   7 1517.20 49.6586  -2
   0  -3   7 1517.20 49.6586   1
  -2   0   7 -10.875 15.9872  -2
   1  -3   7 -10.875 15.9872   1
   2  -3   7 -3.5051 6.40767   1
  -3   3   7 1855.18 40.1892  -2
   3  -3   7 1855.18 40.1892   1
  -3   4   7 -0.2581 26.3171  -2
   4  -3   7 -0.2581 26.3171   1
  -4   6   7 -17.826 35.4997  -2
   5  -3   7 -17.826 35.4997   1
  -4   8   7 -17.783 25.7425  -2
   7  -3   7 -17.783 25.7425   1
   8  -3   7 -34.220 52.3790   1
  -8  -2   7 -26.913 30.2512   1
   1 -10   7 133.756 14.8256  -2
  -7  -2   7 133.756 14.8256   1
   1  -9   7 -14.348 11.7408  -2
  -6  -2   7 -14.348 11.7408   1
   0  -7   7 -55.229 29.7772  -2
  -5  -2   7 -55.229 29.7772   1
   0  -6   7 333.595 12.4007  -2
  -4  -2   7 333.595 12.4007   1
   0  -5   7 8.69592 9.27451  -2
  -3  -2   7 8.69592 9.27451   1
  -2  -2   7 5.38010 8.51321   1
  -1  -2   7 2119.05 60.1287  -2
  -1  -2   7 2119.05 60.1287   1
   0  -2   7 3.60465 16.4094   1
   1  -2   7 6.17478 3.66619   1
  -2   2   7 4058.17 83.6911  -2
   2  -2   7 4058.17 83.6911   1
  -2   3   7 -0.9320 13.5622  -2
   3  -2   7 -0.9320 13.5622   1
  -3   5   7 -8.5024 14.2872  -2
   4  -2   7 -8.5024 14.2872   1
  -3   6   7 804.494 26.5487  -2
   5  -2   7 804.494 26.5487   1
  -3   7   7 19.5350 21.9016  -2
   6  -2   7 19.5350 21.9016   1
  -4   9   7 24.5751 25.8981  -2
   7  -2   7 24.5751 25.8981   1
  -4  10   7 226.746 17.6320  -2
   8  -2   7 226.746 17.6320   1
   2 -11   7 52.7336 19.3198  -2
  -8  -1   7 52.7336 19.3198   1
   2 -10   7 7.30868 14.5463  -2
  -7  -1   7 7.30868 14.5463   1
   1  -8   7 17.8668 36.1912  -2
  -6  -1   7 17.8668 36.1912   1
   1  -7   7 551.141 15.9769  -2
  -5  -1   7 551.141 15.9769   1
   1  -6   7 -26.124 8.61700  -2
  -4  -1   7 -26.124 8.61700   1
   0  -4   7 -3.5512 24.2050  -2
  -3  -1   7 -3.5512 24.2050   1
   0  -3   7 2302.83 65.5305  -2
  -2  -1   7 2302.83 65.5305   1
  -1  -1   7 4.80415 9.32257   1
   0  -1   7 -3.6045 4.32212   1
  -1   1   7 248.093 8.45541  -2
   1  -1   7 248.093 8.45541   1
   2  -1   7 3.43301 3.75345   1
  -2   4   7 4.75314 14.1286  -2
   3  -1   7 4.75314 14.1286   1
  -2   5   7 260.295 9.75711  -2
   4  -1   7 260.295 9.75711   1
  -2   6   7 1.74493 19.5289  -2
   5  -1   7 1.74493 19.5289   1
  -3   8   7 -3.4980 21.7851  -2
   6  -1   7 -3.4980 21.7851   1
  -3   9   7 364.017 18.5903  -2
   7  -1   7 364.017 18.5903   1
   8  -1   7 31.1643 33.5260   1
   3 -12   7 173.288 31.4515  -2
  -9   0   7 173.288 31.4515   1
   3 -11   7 -23.569 20.8597  -2
  -8   0   7 -23.569 20.8597   1
  -7   0   7 10.6840 24.2413   1
   2  -8   7 259.746 15.0230  -2
  -6   0   7 259.746 15.0230   1
   2  -7   7 4.78479 13.4345  -2
  -5   0   7 4.78479 13.4345   1
  -4   0   7 6.76167 13.1562   1
   1  -4   7 533.999 23.8423  -2
  -3   0   7 533.999 23.8423   1
  -2   0   7 -7.7235 11.2978   1
  -1   0   7 1.60531 4.11911   1
   0   0   7 31.0344 3.80322  -2
   0   0   7 31.0344 3.80322   1
   1   0   7 -1.7055 3.37963   1
   2   0   7 3.16831 4.02433   1
  -1   4   7 690.034 31.1912  -2
   3   0   7 690.034 31.1912   1
  -1   5   7 10.9340 16.5261  -2
   4   0   7 10.9340 16.5261   1
  -2   7   7 16.9640 20.6458  -2
   5   0   7 16.9640 20.6458   1
  -2   8   7 326.518 14.0044  -2
   6   0   7 326.518 14.0044   1
  -2   9   7 1.61319 25.1029  -2
   7   0   7 1.61319 25.1029   1
  -3  11   7 -7.1513 25.4014  -2
   8   0   7 -7.1513 25.4014   1
   4 -12   7 -18.586 23.8863  -2
  -9   1   7 -18.586 23.8863   1
  -8   1   7 -36.867 30.4330   1
   3  -9   7 180.627 26.1950  -2
  -7   1   7 180.627 26.1950   1
   3  -8   7 -6.4794 38.4946  -2
  -6   1   7 -6.4794 38.4946   1
   2  -6   7 -27.365 30.8442  -2
  -5   1   7 -27.365 30.8442   1
   2  -5   7 205.097 8.14472  -2
  -4   1   7 205.097 8.14472   1
  -3   1   7 -5.2407 3.97341   1
  -2   1   7 -4.4765 3.72346   1
   1  -1   7 239.874 8.55774  -2
  -1   1   7 239.874 8.55774   1
   0   1   7 1.68429 3.17030   1
   1   1   7 0.12524 3.55463   1
   0   3   7 1480.74 59.4434  -2
   2   1   7 1480.74 59.4434   1
   0   4   7 -5.3717 13.8622  -2
   3   1   7 -5.3717 13.8622   1
  -1   6   7 13.4725 11.1323  -2
   4   1   7 13.4725 11.1323   1
  -1   7   7 743.839 21.1089  -2
   5   1   7 743.839 21.1089   1
  -1   8   7 9.84553 21.9960  -2
   6   1   7 9.84553 21.9960   1
  -2  10   7 28.9845 25.6383  -2
   7   1   7 28.9845 25.6383   1
  -2  11   7 94.1239 23.3796  -2
   8   1   7 94.1239 23.3796   1
  -9   2   7 -43.744 36.2573   1
   4 -10   7 72.0287 25.7811  -2
  -8   2   7 72.0287 25.7811   1
   4  -9   7 -1.4685 18.6364  -2
  -7   2   7 -1.4685 18.6364   1
   3  -7   7 -26.915 35.9589  -2
  -6   2   7 -26.915 35.9589   1
   3  -6   7 871.307 24.9743  -2
  -5   2   7 871.307 24.9743   1
   3  -5   7 -0.1983 14.0290  -2
  -4   2   7 -0.1983 14.0290   1
  -3   2   7 -7.0553 7.14614   1
   2  -2   7 3853.15 70.9430  -2
  -2   2   7 3853.15 70.9430   1
  -1   2   7 2.96150 2.87241   1
   0   2   7 1.33029 4.32669   1
   1   2   7 1411.20 56.1702  -2
   1   2   7 1411.20 56.1702   1
   2   2   7 9.65102 6.34334   1
   0   5   7 -7.0945 14.0867  -2
   3   2   7 -7.0945 14.0867   1
   0   6   7 845.630 26.7680  -2
   4   2   7 845.630 26.7680   1
   0   7   7 -3.7360 18.5742  -2
   5   2   7 -3.7360 18.5742   1
  -1   9   7 -3.6638 12.6774  -2
   6   2   7 -3.6638 12.6774   1
  -1  10   7 142.830 20.7451  -2
   7   2   7 142.830 20.7451   1
   5 -11   7 94.5207 29.9803  -2
  -9   3   7 94.5207 29.9803   1
   5 -10   7 -21.040 17.9318  -2
  -8   3   7 -21.040 17.9318   1
  -7   3   7 -14.596 23.6580   1
   4  -7   7 575.421 20.1585  -2
  -6   3   7 575.421 20.1585   1
   4  -6   7 -2.9692 17.2775  -2
  -5   3   7 -2.9692 17.2775   1
  -4   3   7 4.77814 5.66356   1
   3  -3   7 1808.18 35.2822  -2
  -3   3   7 1808.18 35.2822   1
  -2   3   7 -4.1019 3.33129   1
  -1   3   7 -5.4306 3.16382   1
   2   1   7 929.861 28.1458  -2
   0   3   7 929.861 28.1458   1
   1   3   7 3.00525 5.23980   1
   2   3   7 -10.226 5.49248   1
   1   5   7 563.668 27.3590  -2
   3   3   7 563.668 27.3590   1
   1   6   7 -14.709 15.5818  -2
   4   3   7 -14.709 15.5818   1
   0   8   7 -5.2762 13.0049  -2
   5   3   7 -5.2762 13.0049   1
   0   9   7 335.876 24.9948  -2
   6   3   7 335.876 24.9948   1
   7   3   7 1.84428 31.4662   1
   6 -11   7 -4.9597 20.1424  -2
  -9   4   7 -4.9597 20.1424   1
  -8   4   7 -2.3744 27.6090   1
   5  -8   7 282.905 23.1215  -2
  -7   4   7 282.905 23.1215   1
   5  -7   7 -16.285 16.3692  -2
  -6   4   7 -16.285 16.3692   1
  -5   4   7 -1.4619 9.61887   1
   4  -4   7 1158.40 23.2681  -2
  -4   4   7 1158.40 23.2681   1
   4  -3   7 6.74575 12.2325  -2
  -3   4   7 6.74575 12.2325   1
  -2   4   7 2.88198 4.57165   1
   3   0   7 336.979 10.9820  -2
  -1   4   7 336.979 10.9820   1
   3   1   7 19.3980 16.5452  -2
   0   4   7 19.3980 16.5452   1
   1   4   7 -1.1606 5.76576   1
   2   4   7 654.530 30.0214  -2
   2   4   7 654.530 30.0214   1
   3   4   7 8.10388 6.67192   1
   1   7   7 4.32672 11.0118  -2
   4   4   7 4.32672 11.0118   1
   1   8   7 321.453 22.7320  -2
   5   4   7 321.453 22.7320   1
   6   4   7 23.6319 40.1356   1
   7   4   7 -5.2343 31.4118   1
  -9   5   7 -29.632 31.9914   1
   6  -9   7 114.864 21.5376  -2
  -8   5   7 114.864 21.5376   1
   6  -8   7 -12.078 21.3313  -2
  -7   5   7 -12.078 21.3313   1
  -6   5   7 -8.3365 11.7414   1
   5  -5   7 189.528 10.7482  -2
  -5   5   7 189.528 10.7482   1
  -4   5   7 -4.2299 6.00545   1
  -3   5   7 2.61768 7.70882   1
   4  -1   7 412.595 16.5365  -2
  -2   5   7 412.595 16.5365   1
   4   0   7 -4.3735 10.1854  -2
  -1   5   7 -4.3735 10.1854   1
   3   2   7 6.57051 12.6787  -2
   0   5   7 6.57051 12.6787   1
   3   3   7 922.714 29.0313  -2
   1   5   7 922.714 29.0313   1
   3   4   7 -1.8554 13.6588  -2
   2   5   7 -1.8554 13.6588   1
   2   6   7 -3.3700 10.4518  -2
   3   5   7 -3.3700 10.4518   1
   2   7   7 331.614 22.7351  -2
   4   5   7 331.614 22.7351   1
   5   5   7 -1.4302 38.2515   1
   1  10   7 -5.0579 18.6116  -2
   6   5   7 -5.0579 18.6116   1
   7  -9   7 -2.2719 19.4617  -2
  -8   6   7 -2.2719 19.4617   1
  -7   6   7 -5.6125 20.4269   1
   6  -6   7 175.713 13.7817  -2
  -6   6   7 175.713 13.7817   1
   6  -5   7 -34.682 34.6184  -2
  -5   6   7 -34.682 34.6184   1
  -4   6   7 -5.9899 8.40664   1
   5  -2   7 922.573 24.4198  -2
  -3   6   7 922.573 24.4198   1
   5  -1   7 -2.9026 9.52246  -2
  -2   6   7 -2.9026 9.52246   1
   4   1   7 -2.2093 8.40433  -2
  -1   6   7 -2.2093 8.40433   1
   4   2   7 851.213 19.4943  -2
   0   6   7 851.213 19.4943   1
   4   3   7 -4.8114 11.8466  -2
   1   6   7 -4.8114 11.8466   1
   3   5   7 -4.9230 9.36831  -2
   2   6   7 -4.9230 9.36831   1
   3   6   7 77.2163 12.6186  -2
   3   6   7 77.2163 12.6186   1
   3   7   7 17.2351 16.5297  -2
   4   6   7 17.2351 16.5297   1
   2   9   7 -2.7968 18.7496  -2
   5   6   7 -2.7968 18.7496   1
  -8   7   7 -18.175 28.5998   1
   7  -7   7 658.748 27.1311  -2
  -7   7   7 658.748 27.1311   1
   7  -6   7 26.4956 25.3162  -2
  -6   7   7 26.4956 25.3162   1
  -5   7   7 7.46676 12.9339   1
   6  -3   7 494.463 13.7874  -2
  -4   7   7 494.463 13.7874   1
   6  -2   7 3.30734 14.8060  -2
  -3   7   7 3.30734 14.8060   1
   5   0   7 -4.3569 7.67918  -2
  -2   7   7 -4.3569 7.67918   1
   5   1   7 396.158 13.8704  -2
  -1   7   7 396.158 13.8704   1
   5   2   7 1.71433 13.6356  -2
   0   7   7 1.71433 13.6356   1
   4   4   7 -3.5927 9.10430  -2
   1   7   7 -3.5927 9.10430   1
   4   5   7 212.023 14.5882  -2
   2   7   7 212.023 14.5882   1
   4   6   7 -7.2148 19.9459  -2
   3   7   7 -7.2148 19.9459   1
   3   8   7 38.7808 16.5615  -2
   4   7   7 38.7808 16.5615   1
   3   9   7 194.246 18.0054  -2
   5   7   7 194.246 18.0054   1
   8  -8   7 95.0832 16.2405  -2
  -8   8   7 95.0832 16.2405   1
   8  -7   7 -63.600 29.4071  -2
  -7   8   7 -63.600 29.4071   1
  -6   8   7 -18.001 14.3648   1
   7  -4   7 256.183 11.5650  -2
  -5   8   7 256.183 11.5650   1
   7  -3   7 -15.621 19.7614  -2
  -4   8   7 -15.621 19.7614   1
   6  -1   7 4.45458 12.1387  -2
  -3   8   7 4.45458 12.1387   1
   6   0   7 295.031 12.8723  -2
  -2   8   7 295.031 12.8723   1
   6   1   7 -22.982 18.4514  -2
  -1   8   7 -22.982 18.4514   1
   5   3   7 9.96084 11.1729  -2
   0   8   7 9.96084 11.1729   1
   5   4   7 364.662 17.1062  -2
   1   8   7 364.662 17.1062   1
   2   8   7 0.08511 38.8930   1
   4   7   7 -10.020 15.7460  -2
   3   8   7 -10.020 15.7460   1
   4   8   7 297.932 20.4402  -2
   4   8   7 297.932 20.4402   1
  -7   9   7 -39.222 16.1078   1
   8  -5   7 45.1258 10.2728  -2
  -6   9   7 45.1258 10.2728   1
   8  -4   7 -34.751 23.2165  -2
  -5   9   7 -34.751 23.2165   1
   7  -2   7 -14.988 12.1540  -2
  -4   9   7 -14.988 12.1540   1
   7  -1   7 549.832 21.6273  -2
  -3   9   7 549.832 21.6273   1
   7   0   7 -5.6339 22.2060  -2
  -2   9   7 -5.6339 22.2060   1
   6   2   7 8.98728 12.0351  -2
  -1   9   7 8.98728 12.0351   1
   6   3   7 299.059 16.4840  -2
   0   9   7 299.059 16.4840   1
   6   4   7 4.73332 24.4150  -2
   1   9   7 4.73332 24.4150   1
   5   6   7 28.7263 18.9122  -2
   2   9   7 28.7263 18.9122   1
   5   7   7 149.751 17.7019  -2
   3   9   7 149.751 17.7019   1
  -6  10   7 7.35327 12.9590   1
   8  -3   7 -9.7883 14.1943  -2
  -5  10   7 -9.7883 14.1943   1
   8  -2   7 351.935 15.2555  -2
  -4  10   7 351.935 15.2555   1
   8  -1   7 -23.006 25.8724  -2
  -3  10   7 -23.006 25.8724   1
   7   1   7 2.17719 13.5531  -2
  -2  10   7 2.17719 13.5531   1
   7   2   7 236.849 16.0081  -2
  -1  10   7 236.849 16.0081   1
   0  10   7 28.2177 40.5929   1
   6   5   7 -15.174 17.6906  -2
   1  10   7 -15.174 17.6906   1
  -4  11   7 -1.6534 13.6211   1
   8   0   7 -5.0187 15.4999  -2
  -3  11   7 -5.0187 15.4999   1
   8   1   7 64.3578 14.2307  -2
  -2  11   7 64.3578 14.2307   1
  -1  11   7 -14.722 41.9898   1
  -8  -3   8 21.5933 16.0780  -2
   1 -12   8 21.5933 16.0780   1
   2 -12   8 15.6374 15.4113   1
   3 -12   8 107.003 43.6213   1
  -6  -7   8 -13.010 27.7444  -2
  -2 -11   8 -13.010 27.7444   1
  -7  -5   8 176.500 19.3892  -2
  -1 -11   8 176.500 19.3892   1
  -7  -4   8 -7.6927 14.3659  -2
   0 -11   8 -7.6927 14.3659   1
  -8  -2   8 -55.565 50.5361  -2
   1 -11   8 -55.565 50.5361   1
  -8  -1   8 187.046 18.5058  -2
   2 -11   8 187.046 18.5058   1
  -8   0   8 -4.2529 15.4580  -2
   3 -11   8 -4.2529 15.4580   1
  -9   2   8 -6.6300 55.3963  -2
   4 -11   8 -6.6300 55.3963   1
  -9   3   8 64.7747 20.7389  -2
   5 -11   8 64.7747 20.7389   1
  -5  -8   8 14.3229 28.1338  -2
  -3 -10   8 14.3229 28.1338   1
  -6  -6   8 137.800 18.0127  -2
  -2 -10   8 137.800 18.0127   1
  -6  -5   8 4.79143 13.4670  -2
  -1 -10   8 4.79143 13.4670   1
  -7  -3   8 -15.328 23.2369  -2
   0 -10   8 -15.328 23.2369   1
  -7  -2   8 167.518 12.2533  -2
   1 -10   8 167.518 12.2533   1
  -7  -1   8 -10.231 13.9152  -2
   2 -10   8 -10.231 13.9152   1
  -8   1   8 -0.6183 49.7582  -2
   3 -10   8 -0.6183 49.7582   1
  -8   2   8 100.348 15.9670  -2
   4 -10   8 100.348 15.9670   1
  -8   3   8 -20.857 25.9432  -2
   5 -10   8 -20.857 25.9432   1
   6 -10   8 2.21305 30.3555   1
  -4  -9   8 21.6484 20.1965  -2
  -4  -9   8 21.6484 20.1965   1
  -5  -7   8 68.7880 17.6349  -2
  -3  -9   8 68.7880 17.6349   1
  -5  -6   8 -10.300 13.3135  -2
  -2  -9   8 -10.300 13.3135   1
  -6  -4   8 -15.519 32.1432  -2
  -1  -9   8 -15.519 32.1432   1
  -6  -3   8 64.0295 10.1007  -2
   0  -9   8 64.0295 10.1007   1
  -6  -2   8 -6.4632 11.0982  -2
   1  -9   8 -6.4632 11.0982   1
  -7   0   8 -33.300 24.4641  -2
   2  -9   8 -33.300 24.4641   1
  -7   1   8 111.426 11.6380  -2
   3  -9   8 111.426 11.6380   1
  -7   2   8 -13.572 14.0225  -2
   4  -9   8 -13.572 14.0225   1
   5  -9   8 -13.584 39.0861   1
  -8   5   8 125.859 20.2254  -2
   6  -9   8 125.859 20.2254   1
  -8   6   8 24.0783 30.0425  -2
   7  -9   8 24.0783 30.0425   1
  -3 -10   8 18.5647 20.7858  -2
  -5  -8   8 18.5647 20.7858   1
  -4  -8   8 26.6800 17.0920  -2
  -4  -8   8 26.6800 17.0920   1
  -4  -7   8 11.9702 13.5449  -2
  -3  -8   8 11.9702 13.5449   1
  -2  -8   8 -21.980 29.0629   1
  -5  -4   8 169.538 14.3728  -2
  -1  -8   8 169.538 14.3728   1
  -5  -3   8 -3.2999 9.93085  -2
   0  -8   8 -3.2999 9.93085   1
  -6  -1   8 1.17318 21.3027  -2
   1  -8   8 1.17318 21.3027   1
  -6   0   8 237.036 11.7674  -2
   2  -8   8 237.036 11.7674   1
  -6   1   8 -13.435 11.0740  -2
   3  -8   8 -13.435 11.0740   1
  -7   3   8 -51.914 39.4277  -2
   4  -8   8 -51.914 39.4277   1
  -7   5   8 -21.802 24.8916  -2
   6  -8   8 -21.802 24.8916   1
  -8   7   8 -46.456 58.4091  -2
   7  -8   8 -46.456 58.4091   1
  -6  -7   8 -15.689 35.3046   1
  -3  -9   8 33.7264 14.3789  -2
  -5  -7   8 33.7264 14.3789   1
  -3  -8   8 1.19990 12.0162  -2
  -4  -7   8 1.19990 12.0162   1
  -3  -7   8 24.4543 18.9736   1
  -4  -5   8 298.445 16.6366  -2
  -2  -7   8 298.445 16.6366   1
  -4  -4   8 -4.6048 11.1881  -2
  -1  -7   8 -4.6048 11.1881   1
   0  -7   8 2.07972 12.2394   1
  -5  -1   8 638.224 17.3184  -2
   1  -7   8 638.224 17.3184   1
  -5   0   8 -12.455 9.77017  -2
   2  -7   8 -12.455 9.77017   1
   3  -7   8 1.53617 12.9144   1
  -6   3   8 56.0951 14.2694  -2
   4  -7   8 56.0951 14.2694   1
  -6   4   8 9.94611 18.4770  -2
   5  -7   8 9.94611 18.4770   1
  -7   6   8 -73.355 46.2118  -2
   6  -7   8 -73.355 46.2118   1
  -7   7   8 17.9093 17.3183  -2
   7  -7   8 17.9093 17.3183   1
  -7   8   8 41.2681 33.0741  -2
   8  -7   8 41.2681 33.0741   1
  -2 -10   8 135.811 16.5192  -2
  -6  -6   8 135.811 16.5192   1
  -2  -9   8 -5.2262 12.4682  -2
  -5  -6   8 -5.2262 12.4682   1
  -4  -6   8 15.2633 20.0355   1
  -3  -6   8 401.753 15.2483  -2
  -3  -6   8 401.753 15.2483   1
  -3  -5   8 2.20774 8.49005  -2
  -2  -6   8 2.20774 8.49005   1
  -1  -6   8 0.56975 10.8495   1
  -4  -2   8 472.151 17.9788  -2
   0  -6   8 472.151 17.9788   1
  -4  -1   8 -21.096 8.53916  -2
   1  -6   8 -21.096 8.53916   1
  -5   1   8 -0.2284 26.3698  -2
   2  -6   8 -0.2284 26.3698   1
  -5   2   8 213.854 10.8192  -2
   3  -6   8 213.854 10.8192   1
  -5   3   8 -3.8469 14.2868  -2
   4  -6   8 -3.8469 14.2868   1
  -6   5   8 -59.998 37.5989  -2
   5  -6   8 -59.998 37.5989   1
  -6   6   8 402.309 20.1827  -2
   6  -6   8 402.309 20.1827   1
  -6   7   8 15.0017 26.5828  -2
   7  -6   8 15.0017 26.5828   1
   8  -6   8 -5.5731 37.3536   1
  -1 -11   8 88.0825 17.0504  -2
  -7  -5   8 88.0825 17.0504   1
  -1 -10   8 -1.1450 13.4247  -2
  -6  -5   8 -1.1450 13.4247   1
  -5  -5   8 -15.702 20.9602   1
  -2  -7   8 197.480 15.1060  -2
  -4  -5   8 197.480 15.1060   1
  -2  -6   8 -1.0124 9.07195  -2
  -3  -5   8 -1.0124 9.07195   1
  -2  -5   8 1.94883 19.3342   1
  -3  -3   8 312.642 13.7188  -2
  -1  -5   8 312.642 13.7188   1
  -3  -2   8 -13.835 10.1292  -2
   0  -5   8 -13.835 10.1292   1
   1  -5   8 9.95985 6.74515   1
  -4   1   8 1622.68 35.6574  -2
   2  -5   8 1622.68 35.6574   1
  -4   2   8 8.61580 11.6229  -2
   3  -5   8 8.61580 11.6229   1
  -5   4   8 22.0650 32.4915  -2
   4  -5   8 22.0650 32.4915   1
  -5   5   8 1120.86 36.5368  -2
   5  -5   8 1120.86 36.5368   1
  -5   6   8 11.2738 22.6909  -2
   6  -5   8 11.2738 22.6909   1
  -6   8   8 -35.205 52.5000  -2
   7  -5   8 -35.205 52.5000   1
   0 -11   8 -6.1052 18.9682  -2
  -7  -4   8 -6.1052 18.9682   1
  -6  -4   8 18.9485 23.6869   1
  -1  -8   8 99.1098 12.0235  -2
  -5  -4   8 99.1098 12.0235   1
  -1  -7   8 12.6679 9.35801  -2
  -4  -4   8 12.6679 9.35801   1
  -3  -4   8 -7.7026 14.1128   1
  -2  -4   8 1354.32 33.0346  -2
  -2  -4   8 1354.32 33.0346   1
  -2  -3   8 3.98880 9.84000  -2
  -1  -4   8 3.98880 9.84000   1
   0  -4   8 1.99572 8.62608   1
  -3   0   8 1330.49 29.1279  -2
   1  -4   8 1330.49 29.1279   1
  -3   1   8 28.6104 18.7996  -2
   2  -4   8 28.6104 18.7996   1
  -4   3   8 -0.1909 24.8268  -2
   3  -4   8 -0.1909 24.8268   1
  -4   4   8 525.528 18.1236  -2
   4  -4   8 525.528 18.1236   1
  -4   5   8 2.73101 32.8261  -2
   5  -4   8 2.73101 32.8261   1
  -5   7   8 19.3927 42.9075  -2
   6  -4   8 19.3927 42.9075   1
   8  -4   8 -37.919 52.5476   1
   1 -12   8 -2.9441 21.5716  -2
  -8  -3   8 -2.9441 21.5716   1
  -7  -3   8 -4.3183 26.7999   1
   0  -9   8 94.3222 11.7668  -2
  -6  -3   8 94.3222 11.7668   1
   0  -8   8 -4.5162 10.3723  -2
  -5  -3   8 -4.5162 10.3723   1
  -1  -6   8 -42.513 24.6544  -2
  -4  -3   8 -42.513 24.6544   1
  -1  -5   8 463.960 14.1486  -2
  -3  -3   8 463.960 14.1486   1
  -1  -4   8 0.21609 8.85203  -2
  -2  -3   8 0.21609 8.85203   1
  -1  -3   8 6.77261 13.1996   1
  -2  -1   8 1691.88 54.9324  -2
   0  -3   8 1691.88 54.9324   1
  -2   0   8 -14.302 17.0645  -2
   1  -3   8 -14.302 17.0645   1
  -3   2   8 2.73002 11.3518  -2
   2  -3   8 2.73002 11.3518   1
  -3   3   8 99.5920 6.48041  -2
   3  -3   8 99.5920 6.48041   1
  -3   4   8 -4.7138 14.2711  -2
   4  -3   8 -4.7138 14.2711   1
  -4   6   8 -10.070 35.7659  -2
   5  -3   8 -10.070 35.7659   1
  -4   7   8 80.4658 10.1007  -2
   6  -3   8 80.4658 10.1007   1
  -4   8   8 -7.8326 26.6344  -2
   7  -3   8 -7.8326 26.6344   1
  -5  10   8 2.84469 31.0815  -2
   8  -3   8 2.84469 31.0815   1
  -8  -2   8 -5.3678 34.4127   1
   1 -10   8 241.082 20.6737  -2
  -7  -2   8 241.082 20.6737   1
   1  -9   8 -11.395 14.9119  -2
  -6  -2   8 -11.395 14.9119   1
  -5  -2   8 -14.327 17.5251   1
   0  -6   8 624.337 18.2440  -2
  -4  -2   8 624.337 18.2440   1
   0  -5   8 -14.403 7.21455  -2
  -3  -2   8 -14.403 7.21455   1
  -2  -2   8 -0.6591 8.51818   1
  -1  -2   8 134.821 10.0190  -2
  -1  -2   8 134.821 10.0190   1
   1  -2   8 -3.1592 3.53740   1
  -2   2   8 21.2840 4.76323  -2
   2  -2   8 21.2840 4.76323   1
  -2   3   8 19.4166 14.9886  -2
   3  -2   8 19.4166 14.9886   1
  -3   5   8 9.68460 14.7238  -2
   4  -2   8 9.68460 14.7238   1
  -3   6   8 156.119 11.3945  -2
   5  -2   8 156.119 11.3945   1
  -3   7   8 5.57939 21.9989  -2
   6  -2   8 5.57939 21.9989   1
  -4   9   8 -16.221 26.6810  -2
   7  -2   8 -16.221 26.6810   1
  -4  10   8 443.550 22.5653  -2
   8  -2   8 443.550 22.5653   1
   2 -11   8 50.1386 29.9724  -2
  -8  -1   8 50.1386 29.9724   1
   2 -10   8 13.6143 18.3462  -2
  -7  -1   8 13.6143 18.3462   1
   1  -8   8 -18.510 39.4633  -2
  -6  -1   8 -18.510 39.4633   1
   1  -7   8 260.353 18.7832  -2
  -5  -1   8 260.353 18.7832   1
   1  -6   8 -4.7986 14.5271  -2
  -4  -1   8 -4.7986 14.5271   1
  -3  -1   8 5.71128 10.5605   1
   0  -3   8 737.996 23.2187  -2
  -2  -1   8 737.996 23.2187   1
   0  -1   8 3.18243 4.60874   1
  -1   1   8 1807.77 42.0530  -2
   1  -1   8 1807.77 42.0530   1
   2  -1   8 3.76255 5.22421   1
  -2   4   8 9.65155 15.9352  -2
   3  -1   8 9.65155 15.9352   1
  -2   5   8 1043.71 31.9159  -2
   4  -1   8 1043.71 31.9159   1
  -2   6   8 25.5340 20.9647  -2
   5  -1   8 25.5340 20.9647   1
  -3   8   8 21.0843 22.6434  -2
   6  -1   8 21.0843 22.6434   1
  -3   9   8 536.170 22.9304  -2
   7  -1   8 536.170 22.9304   1
   8  -1   8 29.7617 53.4281   1
   3 -11   8 -21.201 20.6570  -2
  -8   0   8 -21.201 20.6570   1
  -7   0   8 -27.753 7.83504   1
   2  -8   8 57.4657 16.9546  -2
  -6   0   8 57.4657 16.9546   1
   2  -7   8 -23.350 36.1739  -2
  -5   0   8 -23.350 36.1739   1
  -4   0   8 -10.075 17.8256   1
   1  -4   8 903.791 28.5875  -2
  -3   0   8 903.791 28.5875   1
  -2   0   8 9.64514 12.7728   1
  -1   0   8 -6.6527 3.66388   1
   0   0   8 1614.31 41.2734  -2
   0   0   8 1614.31 41.2734   1
   1   0   8 1.84481 3.75474   1
   2   0   8 -4.9567 4.13785   1
  -1   4   8 1670.02 67.5917  -2
   3   0   8 1670.02 67.5917   1
  -1   5   8 15.6168 17.8682  -2
   4   0   8 15.6168 17.8682   1
  -2   7   8 25.9045 21.1818  -2
   5   0   8 25.9045 21.1818   1
  -2   8   8 249.519 12.6433  -2
   6   0   8 249.519 12.6433   1
  -2   9   8 -40.998 26.2363  -2
   7   0   8 -40.998 26.2363   1
  -3  11   8 -17.015 24.2990  -2
   8   0   8 -17.015 24.2990   1
  -9   1   8 -26.418 10.4967   1
  -8   1   8 -36.768 9.35014   1
   3  -9   8 183.440 27.5043  -2
  -7   1   8 183.440 27.5043   1
   3  -8   8 -9.8852 40.7634  -2
  -6   1   8 -9.8852 40.7634   1
   2  -6   8 12.5439 33.0329  -2
  -5   1   8 12.5439 33.0329   1
   2  -5   8 1992.63 59.9551  -2
  -4   1   8 1992.63 59.9551   1
  -3   1   8 5.75086 8.40934   1
  -2   1   8 -8.1309 4.46282   1
   1  -1   8 1618.39 41.3995  -2
  -1   1   8 1618.39 41.3995   1
   0   1   8 2.76254 3.45673   1
   1   1   8 -1.7184 5.21180   1
   0   3   8 1739.66 69.6160  -2
   2   1   8 1739.66 69.6160   1
   0   4   8 2.41289 15.6134  -2
   3   1   8 2.41289 15.6134   1
  -1   6   8 -5.3717 11.1161  -2
   4   1   8 -5.3717 11.1161   1
  -1   7   8 427.544 17.4536  -2
   5   1   8 427.544 17.4536   1
  -1   8   8 41.9762 23.3176  -2
   6   1   8 41.9762 23.3176   1
  -2  10   8 11.5088 16.5692  -2
   7   1   8 11.5088 16.5692   1
  -9   2   8 -65.592 35.7113   1
   4 -10   8 131.496 27.5713  -2
  -8   2   8 131.496 27.5713   1
   4  -9   8 -10.970 30.2749  -2
  -7   2   8 -10.970 30.2749   1
   3  -7   8 54.7042 38.6158  -2
  -6   2   8 54.7042 38.6158   1
   3  -6   8 494.449 20.4750  -2
  -5   2   8 494.449 20.4750   1
   3  -5   8 -5.1924 9.80285  -2
  -4   2   8 -5.1924 9.80285   1
  -3   2   8 -2.3701 7.42179   1
   2  -2   8 30.3420 4.12035  -2
  -2   2   8 30.3420 4.12035   1
   2  -1   8 -9.9251 9.52051  -2
  -1   2   8 -9.9251 9.52051   1
   0   2   8 1.08771 4.87306   1
   1   2   8 301.935 16.8115  -2
   1   2   8 301.935 16.8115   1
   2   2   8 -1.0428 6.14147   1
   0   5   8 -5.0474 16.1895  -2
   3   2   8 -5.0474 16.1895   1
   0   6   8 621.403 21.3857  -2
   4   2   8 621.403 21.3857   1
   0   7   8 -25.271 20.5246  -2
   5   2   8 -25.271 20.5246   1
  -1   9   8 -19.276 13.9023  -2
   6   2   8 -19.276 13.9023   1
  -1  10   8 431.743 29.5514  -2
   7   2   8 431.743 29.5514   1
   5 -10   8 -26.727 17.7846  -2
  -8   3   8 -26.727 17.7846   1
  -7   3   8 -4.2662 24.3997   1
   4  -7   8 138.330 12.1068  -2
  -6   3   8 138.330 12.1068   1
   4  -6   8 -49.011 31.1362  -2
  -5   3   8 -49.011 31.1362   1
  -4   3   8 -6.7877 5.55242   1
   3  -3   8 66.7444 6.72253  -2
  -3   3   8 66.7444 6.72253   1
   3  -2   8 -1.4487 12.0374  -2
  -2   3   8 -1.4487 12.0374   1
  -1   3   8 -3.7816 3.43226   1
   2   1   8 2103.65 58.4936  -2
   0   3   8 2103.65 58.4936   1
   1   3   8 -6.1992 5.46861   1
   1   4   8 2.66108 13.6145  -2
   2   3   8 2.66108 13.6145   1
   1   5   8 218.116 16.7666  -2
   3   3   8 218.116 16.7666   1
   1   6   8 -9.7287 17.5197  -2
   4   3   8 -9.7287 17.5197   1
   0   8   8 -0.5678 21.2567  -2
   5   3   8 -0.5678 21.2567   1
   0   9   8 160.580 19.9276  -2
   6   3   8 160.580 19.9276   1
   7   3   8 11.2673 31.5766   1
  -9   4   8 -17.878 32.4883   1
  -8   4   8 -28.970 27.4458   1
   5  -8   8 501.238 22.8076  -2
  -7   4   8 501.238 22.8076   1
   5  -7   8 17.1990 19.3897  -2
  -6   4   8 17.1990 19.3897   1
  -5   4   8 13.8375 7.28904   1
   4  -4   8 576.775 14.5638  -2
  -4   4   8 576.775 14.5638   1
   4  -3   8 -13.466 12.3512  -2
  -3   4   8 -13.466 12.3512   1
   3  -1   8 -10.246 12.5584  -2
  -2   4   8 -10.246 12.5584   1
   3   0   8 1500.47 35.6628  -2
  -1   4   8 1500.47 35.6628   1
   3   1   8 14.8677 9.28735  -2
   0   4   8 14.8677 9.28735   1
   1   4   8 -3.4391 6.04698   1
   2   4   8 899.015 39.5925  -2
   2   4   8 899.015 39.5925   1
   2   5   8 -1.5884 14.8129  -2
   3   4   8 -1.5884 14.8129   1
   1   7   8 1.10389 11.7339  -2
   4   4   8 1.10389 11.7339   1
   1   8   8 60.5708 15.5439  -2
   5   4   8 60.5708 15.5439   1
   6   4   8 6.11134 39.6755   1
   6  -9   8 217.245 18.4594  -2
  -8   5   8 217.245 18.4594   1
   6  -8   8 -1.5604 17.3258  -2
  -7   5   8 -1.5604 17.3258   1
  -6   5   8 -15.287 9.87230   1
   5  -5   8 1080.75 29.9117  -2
  -5   5   8 1080.75 29.9117   1
   5  -4   8 -38.753 26.9868  -2
  -4   5   8 -38.753 26.9868   1
  -3   5   8 0.21433 8.33180   1
   4  -1   8 682.068 23.6619  -2
  -2   5   8 682.068 23.6619   1
   4   0   8 -1.8823 11.1755  -2
  -1   5   8 -1.8823 11.1755   1
   3   2   8 -2.3373 10.5215  -2
   0   5   8 -2.3373 10.5215   1
   3   3   8 187.416 11.7493  -2
   1   5   8 187.416 11.7493   1
   3   4   8 10.0624 15.0717  -2
   2   5   8 10.0624 15.0717   1
   2   6   8 -4.7609 11.0539  -2
   3   5   8 -4.7609 11.0539   1
   2   7   8 251.555 20.3137  -2
   4   5   8 251.555 20.3137   1
   2   8   8 15.0056 21.9083  -2
   5   5   8 15.0056 21.9083   1
   1  10   8 24.4035 18.9466  -2
   6   5   8 24.4035 18.9466   1
   7  -9   8 8.33526 19.7128  -2
  -8   6   8 8.33526 19.7128   1
  -7   6   8 -10.799 11.9456   1
   6  -6   8 444.375 20.3657  -2
  -6   6   8 444.375 20.3657   1
  -5   6   8 17.0866 17.1745   1
  -4   6   8 -8.3645 10.0071   1
   5  -2   8 119.902 8.25911  -2
  -3   6   8 119.902 8.25911   1
   5  -1   8 4.30225 13.1372  -2
  -2   6   8 4.30225 13.1372   1
   4   1   8 -4.7586 8.92017  -2
  -1   6   8 -4.7586 8.92017   1
   4   2   8 432.476 14.7678  -2
   0   6   8 432.476 14.7678   1
   4   3   8 1.53955 12.3831  -2
   1   6   8 1.53955 12.3831   1
   3   5   8 -6.4624 9.75705  -2
   2   6   8 -6.4624 9.75705   1
   3   6   8 422.636 19.6114  -2
   3   6   8 422.636 19.6114   1
   3   7   8 1.55623 17.6571  -2
   4   6   8 1.55623 17.6571   1
   2   9   8 6.42218 19.3658  -2
   5   6   8 6.42218 19.3658   1
  -8   7   8 19.2143 16.0972   1
   7  -7   8 14.5213 13.6297  -2
  -7   7   8 14.5213 13.6297   1
  -6   7   8 -1.6939 11.8563   1
  -5   7   8 -15.078 17.6040   1
   6  -3   8 211.079 10.3995  -2
  -4   7   8 211.079 10.3995   1
   6  -2   8 -8.0681 16.3803  -2
  -3   7   8 -8.0681 16.3803   1
   5   0   8 6.07383 8.01574  -2
  -2   7   8 6.07383 8.01574   1
   5   1   8 700.970 26.3388  -2
  -1   7   8 700.970 26.3388   1
   5   2   8 18.2177 17.2184  -2
   0   7   8 18.2177 17.2184   1
   4   4   8 -3.4926 9.11260  -2
   1   7   8 -3.4926 9.11260   1
   4   5   8 284.806 12.8700  -2
   2   7   8 284.806 12.8700   1
   4   6   8 10.6393 16.7944  -2
   3   7   8 10.6393 16.7944   1
   3   8   8 12.5380 16.7713  -2
   4   7   8 12.5380 16.7713   1
  -7   8   8 -20.634 15.2404   1
  -6   8   8 -14.565 12.3307   1
   7  -4   8 572.815 17.5293  -2
  -5   8   8 572.815 17.5293   1
   7  -3   8 1.38366 19.3869  -2
  -4   8   8 1.38366 19.3869   1
   6  -1   8 6.01346 12.2595  -2
  -3   8   8 6.01346 12.2595   1
   6   0   8 371.728 24.7406  -2
  -2   8   8 371.728 24.7406   1
   6   1   8 0.78387 20.1781  -2
  -1   8   8 0.78387 20.1781   1
   5   3   8 15.0971 11.0322  -2
   0   8   8 15.0971 11.0322   1
   5   4   8 119.077 11.8796  -2
   1   8   8 119.077 11.8796   1
   2   8   8 -16.028 36.6130   1
   4   7   8 0.18163 16.9709  -2
   3   8   8 0.18163 16.9709   1
  -7   9   8 2.14738 15.7791   1
   8  -5   8 347.017 18.7071  -2
  -6   9   8 347.017 18.7071   1
   8  -4   8 5.85831 28.3347  -2
  -5   9   8 5.85831 28.3347   1
   7  -2   8 -14.016 12.4772  -2
  -4   9   8 -14.016 12.4772   1
   7  -1   8 360.303 17.3509  -2
  -3   9   8 360.303 17.3509   1
   7   0   8 -9.2742 22.7776  -2
  -2   9   8 -9.2742 22.7776   1
   6   2   8 8.59538 12.6123  -2
  -1   9   8 8.59538 12.6123   1
   6   3   8 102.793 12.6779  -2
   0   9   8 102.793 12.6779   1
   1   9   8 -21.210 37.1896   1
   5   6   8 -21.308 18.1669  -2
   2   9   8 -21.308 18.1669   1
   8  -3   8 10.6743 14.3429  -2
  -5  10   8 10.6743 14.3429   1
   8  -2   8 219.450 13.2649  -2
  -4  10   8 219.450 13.2649   1
  -3  10   8 4.73854 37.2675   1
   7   1   8 -1.7154 13.6083  -2
  -2  10   8 -1.7154 13.6083   1
   7   2   8 259.741 16.7971  -2
  -1  10   8 259.741 16.7971   1
   0  10   8 4.34848 40.2429   1
   6   5   8 24.9521 18.2520  -2
   1  10   8 24.9521 18.2520   1
   8   0   8 -42.734 28.4592  -2
  -3  11   8 -42.734 28.4592   1
  -2  11   8 200.645 14.3290   1
   2 -12   9 20.9764 58.0128   1
  -7  -5   9 42.0238 18.2902  -2
  -1 -11   9 42.0238 18.2902   1
  -7  -4   9 -0.8802 14.8796  -2
   0 -11   9 -0.8802 14.8796   1
  -8  -2   9 -4.0437 53.3709  -2
   1 -11   9 -4.0437 53.3709   1
  -8  -1   9 31.5568 18.2036  -2
   2 -11   9 31.5568 18.2036   1
   4 -11   9 -18.551 27.5522   1
   5 -11   9 164.112 64.1627   1
  -5  -8   9 -18.332 27.8075  -2
  -3 -10   9 -18.332 27.8075   1
  -6  -6   9 18.3053 17.1013  -2
  -2 -10   9 18.3053 17.1013   1
  -6  -5   9 16.5642 13.8023  -2
  -1 -10   9 16.5642 13.8023   1
  -7  -3   9 -39.926 41.7567  -2
   0 -10   9 -39.926 41.7567   1
  -7  -2   9 103.409 13.0635  -2
   1 -10   9 103.409 13.0635   1
  -7  -1   9 -3.9090 14.5926  -2
   2 -10   9 -3.9090 14.5926   1
  -8   1   9 -5.5869 49.9926  -2
   3 -10   9 -5.5869 49.9926   1
  -8   2   9 115.656 20.0334  -2
   4 -10   9 115.656 20.0334   1
  -8   3   9 18.6632 26.6592  -2
   5 -10   9 18.6632 26.6592   1
   6 -10   9 55.6337 60.2755   1
  -4  -9   9 -11.231 20.2226  -2
  -4  -9   9 -11.231 20.2226   1
  -5  -7   9 154.645 19.2141  -2
  -3  -9   9 154.645 19.2141   1
  -5  -6   9 -8.4816 13.5095  -2
  -2  -9   9 -8.4816 13.5095   1
  -6  -4   9 -23.812 33.5110  -2
  -1  -9   9 -23.812 33.5110   1
  -6  -3   9 243.981 12.7171  -2
   0  -9   9 243.981 12.7171   1
  -6  -2   9 -4.0733 11.3569  -2
   1  -9   9 -4.0733 11.3569   1
  -7   0   9 -19.341 25.2055  -2
   2  -9   9 -19.341 25.2055   1
  -7   1   9 338.539 20.0048  -2
   3  -9   9 338.539 20.0048   1
  -7   2   9 -32.609 20.0853  -2
   4  -9   9 -32.609 20.0853   1
   5  -9   9 4.40108 50.0969   1
  -8   5   9 19.7867 18.5930  -2
   6  -9   9 19.7867 18.5930   1
  -3 -10   9 23.7773 30.2861  -2
  -5  -8   9 23.7773 30.2861   1
  -4  -8   9 228.434 20.0740  -2
  -4  -8   9 228.434 20.0740   1
  -4  -7   9 1.52551 13.5875  -2
  -3  -8   9 1.52551 13.5875   1
  -5  -5   9 -1.8866 29.9850  -2
  -2  -8   9 -1.8866 29.9850   1
  -5  -4   9 318.850 17.7194  -2
  -1  -8   9 318.850 17.7194   1
  -5  -3   9 9.07911 11.3184  -2
   0  -8   9 9.07911 11.3184   1
  -6  -1   9 -1.2839 21.3542  -2
   1  -8   9 -1.2839 21.3542   1
  -6   0   9 168.958 15.4076  -2
   2  -8   9 168.958 15.4076   1
  -6   1   9 -17.302 15.0940  -2
   3  -8   9 -17.302 15.0940   1
  -7   3   9 -28.073 41.3742  -2
   4  -8   9 -28.073 41.3742   1
  -7   4   9 147.835 18.8071  -2
   5  -8   9 147.835 18.8071   1
  -7   5   9 6.67479 25.4792  -2
   6  -8   9 6.67479 25.4792   1
   7  -8   9 -6.3821 16.3619   1
  -6  -7   9 -20.511 31.0840   1
  -3  -9   9 125.239 15.5271  -2
  -5  -7   9 125.239 15.5271   1
  -3  -8   9 -8.3887 13.5117  -2
  -4  -7   9 -8.3887 13.5117   1
  -4  -6   9 31.6721 32.8415  -2
  -3  -7   9 31.6721 32.8415   1
  -4  -5   9 365.772 18.4216  -2
  -2  -7   9 365.772 18.4216   1
  -4  -4   9 -16.498 11.4199  -2
  -1  -7   9 -16.498 11.4199   1
  -5  -2   9 -18.365 26.1632  -2
   0  -7   9 -18.365 26.1632   1
  -5  -1   9 399.279 14.6704  -2
   1  -7   9 399.279 14.6704   1
  -5   0   9 -12.202 12.7008  -2
   2  -7   9 -12.202 12.7008   1
  -6   2   9 -14.102 35.1301  -2
   3  -7   9 -14.102 35.1301   1
  -6   3   9 531.899 23.3338  -2
   4  -7   9 531.899 23.3338   1
  -6   4   9 -12.026 32.2463  -2
   5  -7   9 -12.026 32.2463   1
  -7   6   9 -57.402 49.4627  -2
   6  -7   9 -57.402 49.4627   1
  -2 -10   9 -5.3755 17.9762  -2
  -6  -6   9 -5.3755 17.9762   1
  -2  -9   9 -23.137 15.9690  -2
  -5  -6   9 -23.137 15.9690   1
  -4  -6   9 -8.4732 19.9818   1
  -3  -6   9 52.5923 12.5693  -2
  -3  -6   9 52.5923 12.5693   1
  -3  -5   9 3.85709 10.0495  -2
  -2  -6   9 3.85709 10.0495   1
  -4  -3   9 16.6382 23.3563  -2
  -1  -6   9 16.6382 23.3563   1
  -4  -2   9 798.042 23.2929  -2
   0  -6   9 798.042 23.2929   1
  -4  -1   9 -9.5848 12.1620  -2
   1  -6   9 -9.5848 12.1620   1
  -5   1   9 -1.6293 25.9830  -2
   2  -6   9 -1.6293 25.9830   1
  -5   2   9 708.752 22.8650  -2
   3  -6   9 708.752 22.8650   1
  -5   3   9 -10.230 14.7591  -2
   4  -6   9 -10.230 14.7591   1
  -6   5   9 -9.1349 39.4106  -2
   5  -6   9 -9.1349 39.4106   1
  -6   6   9 97.7952 17.2832  -2
   6  -6   9 97.7952 17.2832   1
  -6   7   9 42.4243 27.7870  -2
   7  -6   9 42.4243 27.7870   1
   8  -6   9 -85.736 65.1339   1
  -1 -11   9 45.5012 29.9731  -2
  -7  -5   9 45.5012 29.9731   1
  -1 -10   9 22.2090 17.8451  -2
  -6  -5   9 22.2090 17.8451   1
  -5  -5   9 5.36360 21.2176   1
  -2  -7   9 493.557 17.6066  -2
  -4  -5   9 493.557 17.6066   1
  -2  -6   9 -4.4899 9.04307  -2
  -3  -5   9 -4.4899 9.04307   1
  -2  -5   9 2.21136 20.5187   1
  -3  -3   9 541.465 19.1276  -2
  -1  -5   9 541.465 19.1276   1
  -3  -2   9 -4.1439 12.4327  -2
   0  -5   9 -4.1439 12.4327   1
   1  -5   9 0.67373 7.48344   1
  -4   1   9 233.529 11.4171  -2
   2  -5   9 233.529 11.4171   1
  -4   2   9 7.30130 11.9922  -2
   3  -5   9 7.30130 11.9922   1
  -5   4   9 13.0515 31.6866  -2
   4  -5   9 13.0515 31.6866   1
  -5   5   9 460.956 20.2443  -2
   5  -5   9 460.956 20.2443   1
  -5   6   9 7.15180 23.1100  -2
   6  -5   9 7.15180 23.1100   1
  -6   8   9 0.03234 53.1115  -2
   7  -5   9 0.03234 53.1115   1
  -6   9   9 45.6086 12.9314  -2
   8  -5   9 45.6086 12.9314   1
   0 -11   9 15.9991 19.1338  -2
  -7  -4   9 15.9991 19.1338   1
  -6  -4   9 20.7176 28.2153   1
  -1  -8   9 253.500 18.0086  -2
  -5  -4   9 253.500 18.0086   1
  -1  -7   9 8.95928 11.9555  -2
  -4  -4   9 8.95928 11.9555   1
  -3  -4   9 3.21943 14.1622   1
  -2  -4   9 412.407 22.6405  -2
  -2  -4   9 412.407 22.6405   1
  -1  -4   9 14.8967 25.1033   1
   0  -4   9 2.89172 10.3656   1
  -3   0   9 335.853 12.4914  -2
   1  -4   9 335.853 12.4914   1
  -3   1   9 -10.684 8.64614  -2
   2  -4   9 -10.684 8.64614   1
  -4   3   9 12.6663 25.7632  -2
   3  -4   9 12.6663 25.7632   1
  -4   4   9 172.725 9.48784  -2
   4  -4   9 172.725 9.48784   1
  -4   5   9 -13.340 13.7168  -2
   5  -4   9 -13.340 13.7168   1
  -5   7   9 -9.2480 21.8221  -2
   6  -4   9 -9.2480 21.8221   1
  -5   8   9 225.341 16.0844  -2
   7  -4   9 225.341 16.0844   1
  -5   9   9 -61.813 52.3576  -2
   8  -4   9 -61.813 52.3576   1
  -8  -3   9 19.7433 36.2192   1
  -7  -3   9 -3.8445 31.1321   1
   0  -9   9 229.302 19.0487  -2
  -6  -3   9 229.302 19.0487   1
   0  -8   9 -24.494 13.3825  -2
  -5  -3   9 -24.494 13.3825   1
  -1  -6   9 -20.211 25.6494  -2
  -4  -3   9 -20.211 25.6494   1
  -2  -3   9 -13.436 23.7036   1
  -1  -3   9 -1.6031 21.2889   1
  -2  -1   9 343.415 15.3244  -2
   0  -3   9 343.415 15.3244   1
   1  -3   9 9.23722 10.2682   1
  -3   2   9 9.03686 14.1719  -2
   2  -3   9 9.03686 14.1719   1
  -3   3   9 703.740 20.6114  -2
   3  -3   9 703.740 20.6114   1
  -3   4   9 -1.8283 14.7707  -2
   4  -3   9 -1.8283 14.7707   1
  -4   6   9 8.05807 18.6348  -2
   5  -3   9 8.05807 18.6348   1
  -4   7   9 726.660 26.3652  -2
   6  -3   9 726.660 26.3652   1
  -4   8   9 -27.540 27.4308  -2
   7  -3   9 -27.540 27.4308   1
   8  -3   9 -47.419 56.1151   1
  -8  -2   9 45.6907 35.5302   1
   1 -10   9 22.2603 26.9733  -2
  -7  -2   9 22.2603 26.9733   1
   1  -9   9 13.8752 15.1059  -2
  -6  -2   9 13.8752 15.1059   1
   0  -7   9 -13.245 31.6966  -2
  -5  -2   9 -13.245 31.6966   1
   0  -6   9 647.188 31.9643  -2
  -4  -2   9 647.188 31.9643   1
   0  -5   9 -1.1565 12.1498  -2
  -3  -2   9 -1.1565 12.1498   1
  -2  -2   9 -2.3727 11.0653   1
  -1  -2   9 617.472 26.9270  -2
  -1  -2   9 617.472 26.9270   1
   1  -2   9 -0.8474 4.94906   1
  -2   2   9 3020.83 95.1711  -2
   2  -2   9 3020.83 95.1711   1
  -2   3   9 14.3423 16.8566  -2
   3  -2   9 14.3423 16.8566   1
  -3   5   9 24.0326 16.1157  -2
   4  -2   9 24.0326 16.1157   1
  -3   6   9 1256.10 38.6975  -2
   5  -2   9 1256.10 38.6975   1
  -3   7   9 -11.065 19.8964  -2
   6  -2   9 -11.065 19.8964   1
  -4   9   9 -26.827 27.8877  -2
   7  -2   9 -26.827 27.8877   1
  -4  10   9 222.610 18.5659  -2
   8  -2   9 222.610 18.5659   1
   2 -11   9 42.5222 24.6260  -2
  -8  -1   9 42.5222 24.6260   1
   2 -10   9 12.5216 17.9032  -2
  -7  -1   9 12.5216 17.9032   1
  -6  -1   9 -14.440 23.7274   1
   1  -7   9 558.941 19.8852  -2
  -5  -1   9 558.941 19.8852   1
   1  -6   9 5.95902 8.47709  -2
  -4  -1   9 5.95902 8.47709   1
  -3  -1   9 -4.7856 14.1793   1
   0  -3   9 762.198 23.8400  -2
  -2  -1   9 762.198 23.8400   1
   0  -1   9 -2.0149 3.62609   1
  -1   1   9 690.237 18.2264  -2
   1  -1   9 690.237 18.2264   1
  -1   2   9 7.32350 13.8840  -2
   2  -1   9 7.32350 13.8840   1
  -2   4   9 -12.150 16.4781  -2
   3  -1   9 -12.150 16.4781   1
  -2   5   9 351.525 14.7150  -2
   4  -1   9 351.525 14.7150   1
  -2   6   9 -14.457 17.7905  -2
   5  -1   9 -14.457 17.7905   1
  -3   8   9 -20.510 24.1130  -2
   6  -1   9 -20.510 24.1130   1
  -3   9   9 324.629 18.4218  -2
   7  -1   9 324.629 18.4218   1
   8  -1   9 39.2772 54.0825   1
   3 -11   9 15.0773 20.6177  -2
  -8   0   9 15.0773 20.6177   1
  -7   0   9 -18.381 8.22347   1
   2  -8   9 399.851 18.3480  -2
  -6   0   9 399.851 18.3480   1
   2  -7   9 -6.4955 9.89285  -2
  -5   0   9 -6.4955 9.89285   1
  -4   0   9 4.92507 18.3094   1
   1  -4   9 765.888 24.9429  -2
  -3   0   9 765.888 24.9429   1
   1  -3   9 6.21650 9.48229  -2
  -2   0   9 6.21650 9.48229   1
  -1   0   9 -0.1455 4.90738   1
   0   0   9 6.53973 3.87751  -2
   0   0   9 6.53973 3.87751   1
   1   0   9 -3.2259 4.17390   1
  -1   3   9 -16.811 14.5932  -2
   2   0   9 -16.811 14.5932   1
  -1   4   9 205.334 16.3290  -2
   3   0   9 205.334 16.3290   1
  -1   5   9 12.0357 19.4657  -2
   4   0   9 12.0357 19.4657   1
  -2   7   9 -2.9894 21.0348  -2
   5   0   9 -2.9894 21.0348   1
  -2   8   9 469.757 19.9541  -2
   6   0   9 469.757 19.9541   1
  -2   9   9 27.5977 28.6411  -2
   7   0   9 27.5977 28.6411   1
  -8   1   9 4.20890 9.66083   1
   3  -9   9 127.363 26.6237  -2
  -7   1   9 127.363 26.6237   1
   3  -8   9 -30.569 22.2776  -2
  -6   1   9 -30.569 22.2776   1
   2  -6   9 -39.235 32.7527  -2
  -5   1   9 -39.235 32.7527   1
   2  -5   9 110.702 13.6481  -2
  -4   1   9 110.702 13.6481   1
   2  -4   9 -2.4128 11.6279  -2
  -3   1   9 -2.4128 11.6279   1
   1  -2   9 0.81822 11.0638  -2
  -2   1   9 0.81822 11.0638   1
   1  -1   9 643.374 18.5201  -2
  -1   1   9 643.374 18.5201   1
   1   0   9 -26.824 12.5323  -2
   0   1   9 -26.824 12.5323   1
   1   1   9 5.89520 6.00897   1
   0   3   9 1453.87 60.0409  -2
   2   1   9 1453.87 60.0409   1
   0   4   9 -2.0784 16.9118  -2
   3   1   9 -2.0784 16.9118   1
  -1   6   9 -6.3237 11.1940  -2
   4   1   9 -6.3237 11.1940   1
  -1   7   9 771.805 26.1769  -2
   5   1   9 771.805 26.1769   1
  -1   8   9 -5.3728 24.2531  -2
   6   1   9 -5.3728 24.2531   1
  -2  10   9 11.8734 16.8718  -2
   7   1   9 11.8734 16.8718   1
  -9   2   9 12.1118 12.0094   1
   4 -10   9 90.1964 27.3753  -2
  -8   2   9 90.1964 27.3753   1
   4  -9   9 10.2839 28.9039  -2
  -7   2   9 10.2839 28.9039   1
   3  -7   9 -29.550 39.0323  -2
  -6   2   9 -29.550 39.0323   1
   3  -6   9 550.563 18.5434  -2
  -5   2   9 550.563 18.5434   1
   3  -5   9 -6.6616 9.51693  -2
  -4   2   9 -6.6616 9.51693   1
  -3   2   9 3.55794 8.25229   1
   2  -2   9 2713.70 51.1613  -2
  -2   2   9 2713.70 51.1613   1
   2  -1   9 -6.6629 10.7992  -2
  -1   2   9 -6.6629 10.7992   1
   1   1   9 -4.3488 13.4747  -2
   0   2   9 -4.3488 13.4747   1
   1   2   9 617.419 28.5937  -2
   1   2   9 617.419 28.5937   1
   1   3   9 12.1317 13.1308  -2
   2   2   9 12.1317 13.1308   1
   0   5   9 -11.094 18.7500  -2
   3   2   9 -11.094 18.7500   1
   0   6   9 186.269 18.1921  -2
   4   2   9 186.269 18.1921   1
   0   7   9 -16.078 22.8064  -2
   5   2   9 -16.078 22.8064   1
  -1   9   9 23.3913 14.6549  -2
   6   2   9 23.3913 14.6549   1
  -1  10   9 135.646 20.9346  -2
   7   2   9 135.646 20.9346   1
   5 -10   9 -43.106 32.4963  -2
  -8   3   9 -43.106 32.4963   1
  -7   3   9 15.9223 9.52131   1
   4  -7   9 620.182 21.6248  -2
  -6   3   9 620.182 21.6248   1
   4  -6   9 -7.6331 14.9963  -2
  -5   3   9 -7.6331 14.9963   1
  -4   3   9 -5.8639 5.86371   1
   3  -3   9 649.932 17.8667  -2
  -3   3   9 649.932 17.8667   1
   3  -2   9 -7.2607 12.6821  -2
  -2   3   9 -7.2607 12.6821   1
   2   0   9 -4.6338 9.80407  -2
  -1   3   9 -4.6338 9.80407   1
   2   1   9 891.473 28.1453  -2
   0   3   9 891.473 28.1453   1
   2   2   9 5.80777 10.2225  -2
   1   3   9 5.80777 10.2225   1
   1   4   9 9.96852 14.5449  -2
   2   3   9 9.96852 14.5449   1
   1   5   9 301.153 20.2127  -2
   3   3   9 301.153 20.2127   1
   1   6   9 -11.170 19.8227  -2
   4   3   9 -11.170 19.8227   1
   0   8   9 -13.716 13.0052  -2
   5   3   9 -13.716 13.0052   1
   0   9   9 274.834 16.1136  -2
   6   3   9 274.834 16.1136   1
  -8   4   9 -32.895 10.7252   1
   5  -8   9 374.585 20.4036  -2
  -7   4   9 374.585 20.4036   1
   5  -7   9 6.78652 15.7316  -2
  -6   4   9 6.78652 15.7316   1
  -5   4   9 -5.1853 7.11920   1
   4  -4   9 158.767 8.06778  -2
  -4   4   9 158.767 8.06778   1
   4  -3   9 -1.8231 13.0330  -2
  -3   4   9 -1.8231 13.0330   1
   3  -1   9 -7.8536 13.7790  -2
  -2   4   9 -7.8536 13.7790   1
   3   0   9 200.312 8.98338  -2
  -1   4   9 200.312 8.98338   1
   3   1   9 0.74224 7.78382  -2
   0   4   9 0.74224 7.78382   1
   2   3   9 3.98588 14.4122  -2
   1   4   9 3.98588 14.4122   1
   2   4   9 476.276 25.3112  -2
   2   4   9 476.276 25.3112   1
   2   5   9 -24.916 17.3299  -2
   3   4   9 -24.916 17.3299   1
   1   7   9 21.3815 12.3682  -2
   4   4   9 21.3815 12.3682   1
   1   8   9 410.219 25.4092  -2
   5   4   9 410.219 25.4092   1
   6   4   9 6.41316 38.2661   1
   6  -9   9 92.0498 16.4065  -2
  -8   5   9 92.0498 16.4065   1
   6  -8   9 -4.8946 17.1379  -2
  -7   5   9 -4.8946 17.1379   1
  -6   5   9 -3.4113 10.0397   1
   5  -5   9 394.030 15.7470  -2
  -5   5   9 394.030 15.7470   1
   5  -4   9 -17.513 12.7527  -2
  -4   5   9 -17.513 12.7527   1
   4  -2   9 6.15221 16.1102  -2
  -3   5   9 6.15221 16.1102   1
   4  -1   9 565.140 21.1076  -2
  -2   5   9 565.140 21.1076   1
   4   0   9 2.07801 8.81813  -2
  -1   5   9 2.07801 8.81813   1
   3   2   9 -1.6783 8.64557  -2
   0   5   9 -1.6783 8.64557   1
   3   3   9 384.081 16.7527  -2
   1   5   9 384.081 16.7527   1
   3   4   9 14.6009 10.9848  -2
   2   5   9 14.6009 10.9848   1
   2   6   9 14.5775 11.8043  -2
   3   5   9 14.5775 11.8043   1
   2   7   9 686.447 34.8709  -2
   4   5   9 686.447 34.8709   1
   2   8   9 -33.255 23.3588  -2
   5   5   9 -33.255 23.3588   1
   7  -9   9 -5.6298 19.3137  -2
  -8   6   9 -5.6298 19.3137   1
  -7   6   9 -24.891 12.8497   1
   6  -6   9 198.216 14.8037  -2
  -6   6   9 198.216 14.8037   1
   6  -5   9 -34.760 25.3685  -2
  -5   6   9 -34.760 25.3685   1
   5  -3   9 10.4901 28.0663  -2
  -4   6   9 10.4901 28.0663   1
   5  -2   9 1321.61 41.7928  -2
  -3   6   9 1321.61 41.7928   1
   5  -1   9 0.38714 13.2051  -2
  -2   6   9 0.38714 13.2051   1
   4   1   9 5.66736 9.45055  -2
  -1   6   9 5.66736 9.45055   1
   4   2   9 212.496 10.7905  -2
   0   6   9 212.496 10.7905   1
   4   3   9 0.42762 13.2132  -2
   1   6   9 0.42762 13.2132   1
   3   5   9 -3.1425 10.0432  -2
   2   6   9 -3.1425 10.0432   1
   3   6   9 224.673 26.1594  -2
   3   6   9 224.673 26.1594   1
   3   7   9 22.5273 18.6870  -2
   4   6   9 22.5273 18.6870   1
   2   9   9 10.8555 19.7454  -2
   5   6   9 10.8555 19.7454   1
  -8   7   9 -29.554 18.3122   1
   7  -7   9 510.474 23.9958  -2
  -7   7   9 510.474 23.9958   1
  -6   7   9 -0.1385 12.9362   1
  -5   7   9 -2.6400 22.3378   1
   6  -3   9 583.211 17.8850  -2
  -4   7   9 583.211 17.8850   1
   6  -2   9 21.1803 16.3960  -2
  -3   7   9 21.1803 16.3960   1
   5   0   9 10.0945 10.2930  -2
  -2   7   9 10.0945 10.2930   1
   5   1   9 524.539 29.5618  -2
  -1   7   9 524.539 29.5618   1
   5   2   9 -9.9113 18.6227  -2
   0   7   9 -9.9113 18.6227   1
   4   4   9 -15.045 9.09286  -2
   1   7   9 -15.045 9.09286   1
   4   5   9 356.563 14.1410  -2
   2   7   9 356.563 14.1410   1
   4   6   9 -10.406 17.8504  -2
   3   7   9 -10.406 17.8504   1
   3   8   9 34.8004 17.0527  -2
   4   7   9 34.8004 17.0527   1
  -7   8   9 -42.031 14.6817   1
  -6   8   9 -16.416 13.7282   1
   7  -4   9 134.055 12.9052  -2
  -5   8   9 134.055 12.9052   1
   7  -3   9 -26.150 15.4127  -2
  -4   8   9 -26.150 15.4127   1
   6  -1   9 10.8727 12.0785  -2
  -3   8   9 10.8727 12.0785   1
   6   0   9 240.286 21.2440  -2
  -2   8   9 240.286 21.2440   1
   6   1   9 3.92648 20.5984  -2
  -1   8   9 3.92648 20.5984   1
   5   3   9 7.26693 11.0906  -2
   0   8   9 7.26693 11.0906   1
   5   4   9 370.897 18.4602  -2
   1   8   9 370.897 18.4602   1
   4   7   9 17.1271 16.9933  -2
   3   8   9 17.1271 16.9933   1
   8  -5   9 65.3671 12.9028  -2
  -6   9   9 65.3671 12.9028   1
   8  -4   9 -9.1851 29.5352  -2
  -5   9   9 -9.1851 29.5352   1
   7  -2   9 -22.932 12.6671  -2
  -4   9   9 -22.932 12.6671   1
   7  -1   9 248.168 22.8863  -2
  -3   9   9 248.168 22.8863   1
   7   0   9 -13.718 23.0332  -2
  -2   9   9 -13.718 23.0332   1
   6   2   9 -0.4678 12.6418  -2
  -1   9   9 -0.4678 12.6418   1
   6   3   9 398.035 29.8311  -2
   0   9   9 398.035 29.8311   1
   5   6   9 18.2516 15.3494  -2
   2   9   9 18.2516 15.3494   1
   8  -3   9 -8.2524 14.3254  -2
  -5  10   9 -8.2524 14.3254   1
   8  -2   9 373.285 16.0803  -2
  -4  10   9 373.285 16.0803   1
   8  -1   9 -20.482 24.7663  -2
  -3  10   9 -20.482 24.7663   1
   7   1   9 -18.969 13.4219  -2
  -2  10   9 -18.969 13.4219   1
   7   2   9 244.480 16.0104  -2
  -1  10   9 244.480 16.0104   1
  -1 -11  10 129.612 64.3427   1
  -7  -4  10 0.68767 21.4320  -2
   0 -11  10 0.68767 21.4320   1
  -8  -2  10 -59.866 49.5837  -2
   1 -11  10 -59.866 49.5837   1
  -8  -1  10 97.2157 19.8756  -2
   2 -11  10 97.2157 19.8756   1
  -8   0  10 -13.327 22.4644  -2
   3 -11  10 -13.327 22.4644   1
   4 -11  10 15.8565 58.0158   1
  -6  -6  10 243.518 29.0199  -2
  -2 -10  10 243.518 29.0199   1
  -6  -5  10 14.0077 20.8201  -2
  -1 -10  10 14.0077 20.8201   1
   0 -10  10 40.5773 52.5012   1
  -7  -2  10 102.459 14.0695  -2
   1 -10  10 102.459 14.0695   1
  -7  -1  10 -59.752 46.8593  -2
   2 -10  10 -59.752 46.8593   1
  -8   1  10 -56.659 51.5916  -2
   3 -10  10 -56.659 51.5916   1
  -8   2  10 77.8037 19.4735  -2
   4 -10  10 77.8037 19.4735   1
  -8   3  10 -17.928 25.7875  -2
   5 -10  10 -17.928 25.7875   1
  -5  -7  10 53.7901 25.7872  -2
  -3  -9  10 53.7901 25.7872   1
  -5  -6  10 -12.389 20.3423  -2
  -2  -9  10 -12.389 20.3423   1
  -6  -4  10 3.15619 34.8300  -2
  -1  -9  10 3.15619 34.8300   1
  -6  -3  10 32.2485 14.0284  -2
   0  -9  10 32.2485 14.0284   1
  -6  -2  10 -21.195 16.7983  -2
   1  -9  10 -21.195 16.7983   1
  -7   0  10 -28.319 26.4010  -2
   2  -9  10 -28.319 26.4010   1
  -7   1  10 260.668 19.2455  -2
   3  -9  10 260.668 19.2455   1
  -7   2  10 3.17193 19.9928  -2
   4  -9  10 3.17193 19.9928   1
   5  -9  10 9.36417 52.9129   1
  -8   5  10 -26.769 35.4798  -2
   6  -9  10 -26.769 35.4798   1
  -4  -8  10 66.4496 25.3182  -2
  -4  -8  10 66.4496 25.3182   1
  -4  -7  10 -3.0937 19.2214  -2
  -3  -8  10 -3.0937 19.2214   1
  -5  -5  10 -1.0273 31.9925  -2
  -2  -8  10 -1.0273 31.9925   1
  -5  -4  10 354.914 20.5329  -2
  -1  -8  10 354.914 20.5329   1
  -5  -3  10 4.48016 15.0077  -2
   0  -8  10 4.48016 15.0077   1
  -6  -1  10 -15.753 22.3148  -2
   1  -8  10 -15.753 22.3148   1
  -6   0  10 213.593 14.6181  -2
   2  -8  10 213.593 14.6181   1
  -6   1  10 -19.343 15.6502  -2
   3  -8  10 -19.343 15.6502   1
  -7   3  10 18.3508 42.1520  -2
   4  -8  10 18.3508 42.1520   1
  -7   5  10 -8.6304 25.9260  -2
   6  -8  10 -8.6304 25.9260   1
   7  -8  10 12.2370 18.9270   1
  -3  -9  10 80.2935 26.2818  -2
  -5  -7  10 80.2935 26.2818   1
  -3  -8  10 15.3165 19.7224  -2
  -4  -7  10 15.3165 19.7224   1
  -4  -6  10 7.36559 30.1978  -2
  -3  -7  10 7.36559 30.1978   1
  -4  -5  10 466.589 23.2511  -2
  -2  -7  10 466.589 23.2511   1
  -4  -4  10 -2.5425 14.2593  -2
  -1  -7  10 -2.5425 14.2593   1
  -5  -2  10 0.83591 26.6467  -2
   0  -7  10 0.83591 26.6467   1
  -5  -1  10 363.208 18.3173  -2
   1  -7  10 363.208 18.3173   1
  -5   0  10 12.9508 13.2316  -2
   2  -7  10 12.9508 13.2316   1
   3  -7  10 -5.7190 15.6388   1
  -6   3  10 63.3076 15.1737  -2
   4  -7  10 63.3076 15.1737   1
  -6   4  10 53.2849 23.9616  -2
   5  -7  10 53.2849 23.9616   1
  -7   6  10 -74.225 50.4658  -2
   6  -7  10 -74.225 50.4658   1
  -7   7  10 14.4561 18.5260  -2
   7  -7  10 14.4561 18.5260   1
  -2 -10  10 195.663 21.1491  -2
  -6  -6  10 195.663 21.1491   1
  -2  -9  10 7.57911 16.1827  -2
  -5  -6  10 7.57911 16.1827   1
  -4  -6  10 -2.0876 23.4587   1
  -3  -6  10 316.965 19.1160  -2
  -3  -6  10 316.965 19.1160   1
  -3  -5  10 6.98448 13.9889  -2
  -2  -6  10 6.98448 13.9889   1
  -4  -3  10 2.20331 23.8529  -2
  -1  -6  10 2.20331 23.8529   1
  -4  -2  10 178.231 25.1755  -2
   0  -6  10 178.231 25.1755   1
  -4  -1  10 1.75358 9.52043  -2
   1  -6  10 1.75358 9.52043   1
  -5   1  10 21.9269 25.7262  -2
   2  -6  10 21.9269 25.7262   1
  -5   2  10 178.259 13.9768  -2
   3  -6  10 178.259 13.9768   1
  -5   3  10 -18.428 15.5211  -2
   4  -6  10 -18.428 15.5211   1
  -6   5  10 -23.199 40.4071  -2
   5  -6  10 -23.199 40.4071   1
  -6   6  10 107.236 18.2022  -2
   6  -6  10 107.236 18.2022   1
  -6   7  10 8.01581 27.8705  -2
   7  -6  10 8.01581 27.8705   1
  -1 -10  10 9.00877 17.8003  -2
  -6  -5  10 9.00877 17.8003   1
  -5  -5  10 -34.538 24.3434   1
  -2  -7  10 225.302 22.1454  -2
  -4  -5  10 225.302 22.1454   1
  -2  -6  10 15.5343 12.3833  -2
  -3  -5  10 15.5343 12.3833   1
  -2  -5  10 -3.1614 32.5305   1
  -3  -2  10 -3.8294 11.0605  -2
   0  -5  10 -3.8294 11.0605   1
  -4   0  10 8.44609 11.9318  -2
   1  -5  10 8.44609 11.9318   1
  -4   1  10 675.317 24.2027  -2
   2  -5  10 675.317 24.2027   1
  -4   2  10 -3.0089 13.0192  -2
   3  -5  10 -3.0089 13.0192   1
  -5   4  10 -2.6426 33.3887  -2
   4  -5  10 -2.6426 33.3887   1
  -5   5  10 912.438 25.7292  -2
   5  -5  10 912.438 25.7292   1
  -5   6  10 -26.746 17.8321  -2
   6  -5  10 -26.746 17.8321   1
  -6   8  10 -52.228 54.5311  -2
   7  -5  10 -52.228 54.5311   1
   0 -11  10 -11.636 19.1820  -2
  -7  -4  10 -11.636 19.1820   1
  -6  -4  10 -11.035 27.8308   1
  -1  -8  10 123.675 15.7540  -2
  -5  -4  10 123.675 15.7540   1
  -1  -7  10 -12.176 16.5592  -2
  -4  -4  10 -12.176 16.5592   1
  -3  -4  10 -11.662 16.5668   1
  -2  -4  10 301.007 19.7436  -2
  -2  -4  10 301.007 19.7436   1
  -2  -3  10 6.76180 12.0065  -2
  -1  -4  10 6.76180 12.0065   1
   0  -4  10 -14.738 11.3726   1
  -3   0  10 716.026 26.6609  -2
   1  -4  10 716.026 26.6609   1
  -3   1  10 -6.0891 9.10321  -2
   2  -4  10 -6.0891 9.10321   1
  -4   3  10 12.6257 15.1207  -2
   3  -4  10 12.6257 15.1207   1
  -4   4  10 880.254 26.0658  -2
   4  -4  10 880.254 26.0658   1
  -4   5  10 -15.333 14.2531  -2
   5  -4  10 -15.333 14.2531   1
  -5   7  10 -8.9293 23.5062  -2
   6  -4  10 -8.9293 23.5062   1
  -5   8  10 339.384 19.2170  -2
   7  -4  10 339.384 19.2170   1
   8  -4  10 -57.226 53.5675   1
  -7  -3  10 35.7142 32.1443   1
   0  -9  10 139.986 17.4919  -2
  -6  -3  10 139.986 17.4919   1
   0  -8  10 0.81319 13.5304  -2
  -5  -3  10 0.81319 13.5304   1
  -1  -6  10 -29.643 25.4689  -2
  -4  -3  10 -29.643 25.4689   1
  -1  -5  10 364.094 16.4698  -2
  -3  -3  10 364.094 16.4698   1
  -1  -4  10 10.9992 11.2521  -2
  -2  -3  10 10.9992 11.2521   1
  -1  -3  10 -17.132 23.4061   1
  -2  -1  10 1377.05 45.7196  -2
   0  -3  10 1377.05 45.7196   1
   1  -3  10 -2.9526 5.49410   1
  -3   2  10 2.58779 15.7729  -2
   2  -3  10 2.58779 15.7729   1
  -3   3  10 718.791 21.2114  -2
   3  -3  10 718.791 21.2114   1
  -3   4  10 14.6611 16.3951  -2
   4  -3  10 14.6611 16.3951   1
  -4   6  10 -13.372 19.1752  -2
   5  -3  10 -13.372 19.1752   1
  -4   7  10 85.4640 10.9121  -2
   6  -3  10 85.4640 10.9121   1
  -4   8  10 4.18783 29.1118  -2
   7  -3  10 4.18783 29.1118   1
   8  -3  10 64.7332 60.3564   1
  -8  -2  10 -22.995 33.4797   1
   1 -10  10 209.131 25.4823  -2
  -7  -2  10 209.131 25.4823   1
   1  -9  10 -14.649 16.0879  -2
  -6  -2  10 -14.649 16.0879   1
   0  -7  10 18.5904 34.5030  -2
  -5  -2  10 18.5904 34.5030   1
   0  -6  10 497.190 20.5796  -2
  -4  -2  10 497.190 20.5796   1
   0  -5  10 -5.9947 7.79265  -2
  -3  -2  10 -5.9947 7.79265   1
  -2  -2  10 -1.8666 12.3019   1
  -1  -2  10 84.1341 9.43283  -2
  -1  -2  10 84.1341 9.43283   1
   1  -2  10 1.28043 5.85229   1
  -2   2  10 15.8024 6.63948  -2
   2  -2  10 15.8024 6.63948   1
  -2   3  10 -8.0353 17.7284  -2
   3  -2  10 -8.0353 17.7284   1
  -3   5  10 0.42526 16.6892  -2
   4  -2  10 0.42526 16.6892   1
  -3   6  10 701.962 24.6781  -2
   5  -2  10 701.962 24.6781   1
  -3   7  10 -55.009 24.7090  -2
   6  -2  10 -55.009 24.7090   1
  -4   9  10 -8.5350 29.8853  -2
   7  -2  10 -8.5350 29.8853   1
   2 -11  10 111.806 20.4162  -2
  -8  -1  10 111.806 20.4162   1
   2 -10  10 15.6807 17.9076  -2
  -7  -1  10 15.6807 17.9076   1
   1  -8  10 -34.790 39.7962  -2
  -6  -1  10 -34.790 39.7962   1
   1  -7  10 300.683 17.6448  -2
  -5  -1  10 300.683 17.6448   1
   1  -6  10 -1.3847 8.95192  -2
  -4  -1  10 -1.3847 8.95192   1
  -3  -1  10 -20.601 15.0743   1
   0  -3  10 589.176 19.8047  -2
  -2  -1  10 589.176 19.8047   1
   0  -1  10 3.49548 5.83716   1
  -1   1  10 957.269 24.3069  -2
   1  -1  10 957.269 24.3069   1
  -1   2  10 20.2706 15.3401  -2
   2  -1  10 20.2706 15.3401   1
  -2   4  10 -24.160 17.3250  -2
   3  -1  10 -24.160 17.3250   1
  -2   5  10 651.741 32.6010  -2
   4  -1  10 651.741 32.6010   1
  -2   6  10 19.7649 18.1175  -2
   5  -1  10 19.7649 18.1175   1
  -3   8  10 -14.073 24.7578  -2
   6  -1  10 -14.073 24.7578   1
  -3   9  10 321.133 18.7131  -2
   7  -1  10 321.133 18.7131   1
   3 -11  10 -3.3830 20.4772  -2
  -8   0  10 -3.3830 20.4772   1
  -7   0  10 3.14252 8.41041   1
   2  -8  10 41.5483 18.0492  -2
  -6   0  10 41.5483 18.0492   1
   2  -7  10 -14.028 9.93849  -2
  -5   0  10 -14.028 9.93849   1
  -4   0  10 9.31307 18.5130   1
   1  -4  10 473.561 13.4366  -2
  -3   0  10 473.561 13.4366   1
   1  -3  10 2.65143 10.6322  -2
  -2   0  10 2.65143 10.6322   1
  -1   0  10 -0.2669 3.62110   1
   0   0  10 2358.44 59.8777  -2
   0   0  10 2358.44 59.8777   1
   0   1  10 -6.9687 12.9664  -2
   1   0  10 -6.9687 12.9664   1
  -1   3  10 -7.3545 9.24558  -2
   2   0  10 -7.3545 9.24558   1
  -1   4  10 663.338 32.5271  -2
   3   0  10 663.338 32.5271   1
  -1   5  10 6.27803 20.4480  -2
   4   0  10 6.27803 20.4480   1
  -2   7  10 28.5870 22.9474  -2
   5   0  10 28.5870 22.9474   1
  -2   8  10 251.634 15.1609  -2
   6   0  10 251.634 15.1609   1
  -2   9  10 13.8427 28.4707  -2
   7   0  10 13.8427 28.4707   1
  -8   1  10 -15.970 9.87775   1
   3  -9  10 303.346 21.1695  -2
  -7   1  10 303.346 21.1695   1
   3  -8  10 9.83970 13.2336  -2
  -6   1  10 9.83970 13.2336   1
  -5   1  10 -11.852 21.8273   1
   2  -5  10 886.483 32.4959  -2
  -4   1  10 886.483 32.4959   1
   2  -4  10 2.74570 12.1142  -2
  -3   1  10 2.74570 12.1142   1
   1  -2  10 -17.599 12.4361  -2
  -2   1  10 -17.599 12.4361   1
   1  -1  10 797.990 19.3393  -2
  -1   1  10 797.990 19.3393   1
   1   0  10 -5.6461 8.26220  -2
   0   1  10 -5.6461 8.26220   1
   0   2  10 3.61817 13.7664  -2
   1   1  10 3.61817 13.7664   1
   0   3  10 306.751 12.6872  -2
   2   1  10 306.751 12.6872   1
   0   4  10 -23.885 19.2676  -2
   3   1  10 -23.885 19.2676   1
  -1   6  10 0.26589 11.5929  -2
   4   1  10 0.26589 11.5929   1
  -1   7  10 429.404 26.7051  -2
   5   1  10 429.404 26.7051   1
  -1   8  10 62.3973 26.2012  -2
   6   1  10 62.3973 26.2012   1
  -2  10  10 17.0437 17.2702  -2
   7   1  10 17.0437 17.2702   1
   4 -10  10 176.195 30.9724  -2
  -8   2  10 176.195 30.9724   1
   4  -9  10 -7.2508 29.2686  -2
  -7   2  10 -7.2508 29.2686   1
  -6   2  10 0.72883 8.23900   1
   3  -6  10 176.940 16.9565  -2
  -5   2  10 176.940 16.9565   1
   3  -5  10 -17.052 14.2981  -2
  -4   2  10 -17.052 14.2981   1
   2  -3  10 -7.0921 13.8086  -2
  -3   2  10 -7.0921 13.8086   1
   2  -2  10 15.9068 4.89567  -2
  -2   2  10 15.9068 4.89567   1
   2  -1  10 -0.1100 11.7870  -2
  -1   2  10 -0.1100 11.7870   1
   1   1  10 2.93836 9.32074  -2
   0   2  10 2.93836 9.32074   1
   1   2  10 181.229 14.6586  -2
   1   2  10 181.229 14.6586   1
   1   3  10 -4.2260 15.2583  -2
   2   2  10 -4.2260 15.2583   1
   0   5  10 -3.8803 19.9879  -2
   3   2  10 -3.8803 19.9879   1
   0   6  10 792.500 38.9394  -2
   4   2  10 792.500 38.9394   1
   0   7  10 7.50570 23.9564  -2
   5   2  10 7.50570 23.9564   1
  -1   9  10 -4.8955 15.0545  -2
   6   2  10 -4.8955 15.0545   1
   5 -10  10 -21.821 31.7185  -2
  -8   3  10 -21.821 31.7185   1
  -7   3  10 -13.578 10.1391   1
   4  -7  10 103.540 13.3556  -2
  -6   3  10 103.540 13.3556   1
   4  -6  10 -11.090 10.1806  -2
  -5   3  10 -11.090 10.1806   1
  -4   3  10 -3.4837 6.07109   1
   3  -3  10 618.121 17.5665  -2
  -3   3  10 618.121 17.5665   1
   3  -2  10 -11.405 11.1691  -2
  -2   3  10 -11.405 11.1691   1
   2   0  10 -6.6981 11.0288  -2
  -1   3  10 -6.6981 11.0288   1
   2   1  10 487.143 18.4262  -2
   0   3  10 487.143 18.4262   1
   2   2  10 11.3493 8.81893  -2
   1   3  10 11.3493 8.81893   1
   1   4  10 -13.596 16.1413  -2
   2   3  10 -13.596 16.1413   1
   1   5  10 590.102 30.7876  -2
   3   3  10 590.102 30.7876   1
   1   6  10 -20.023 20.7820  -2
   4   3  10 -20.023 20.7820   1
   0   8  10 -1.0654 13.5091  -2
   5   3  10 -1.0654 13.5091   1
   0   9  10 149.061 13.9382  -2
   6   3  10 149.061 13.9382   1
  -8   4  10 -13.212 11.5334   1
   5  -8  10 446.034 22.0970  -2
  -7   4  10 446.034 22.0970   1
   5  -7  10 7.19871 15.6955  -2
  -6   4  10 7.19871 15.6955   1
  -5   4  10 0.33319 7.33908   1
   4  -4  10 880.671 32.5198  -2
  -4   4  10 880.671 32.5198   1
   4  -3  10 -19.603 13.4449  -2
  -3   4  10 -19.603 13.4449   1
   3  -1  10 -9.2930 14.9079  -2
  -2   4  10 -9.2930 14.9079   1
   3   0  10 663.694 18.6898  -2
  -1   4  10 663.694 18.6898   1
   3   1  10 1.23701 8.47762  -2
   0   4  10 1.23701 8.47762   1
   2   3  10 8.46817 15.7168  -2
   1   4  10 8.46817 15.7168   1
   2   4  10 1847.37 75.7620  -2
   2   4  10 1847.37 75.7620   1
   2   5  10 -17.400 18.7504  -2
   3   4  10 -17.400 18.7504   1
   1   7  10 -8.7283 12.8423  -2
   4   4  10 -8.7283 12.8423   1
   1   8  10 111.662 15.5084  -2
   5   4  10 111.662 15.5084   1
   6   4  10 13.3101 40.5714   1
   6  -9  10 228.713 19.0263  -2
  -8   5  10 228.713 19.0263   1
   6  -8  10 -0.9613 17.3882  -2
  -7   5  10 -0.9613 17.3882   1
  -6   5  10 4.15356 10.4386   1
   5  -5  10 811.037 28.5795  -2
  -5   5  10 811.037 28.5795   1
   5  -4  10 -22.630 16.0508  -2
  -4   5  10 -22.630 16.0508   1
   4  -2  10 1.44438 13.9137  -2
  -3   5  10 1.44438 13.9137   1
   4  -1  10 472.573 19.1075  -2
  -2   5  10 472.573 19.1075   1
   4   0  10 -4.4212 9.36112  -2
  -1   5  10 -4.4212 9.36112   1
   3   2  10 -2.8118 8.34285  -2
   0   5  10 -2.8118 8.34285   1
   3   3  10 282.185 12.6951  -2
   1   5  10 282.185 12.6951   1
   3   4  10 -11.268 11.6567  -2
   2   5  10 -11.268 11.6567   1
   2   6  10 0.35657 21.0267  -2
   3   5  10 0.35657 21.0267   1
   2   7  10 361.534 25.7269  -2
   4   5  10 361.534 25.7269   1
   2   8  10 -8.8525 26.4597  -2
   5   5  10 -8.8525 26.4597   1
  -8   6  10 -8.7011 14.6668   1
  -7   6  10 15.5143 12.9289   1
   6  -6  10 146.764 13.8662  -2
  -6   6  10 146.764 13.8662   1
   6  -5  10 -15.727 23.4527  -2
  -5   6  10 -15.727 23.4527   1
  -4   6  10 2.91691 25.3037   1
   5  -2  10 396.483 20.0946  -2
  -3   6  10 396.483 20.0946   1
   5  -1  10 7.22999 14.7440  -2
  -2   6  10 7.22999 14.7440   1
   4   1  10 -2.3486 8.47692  -2
  -1   6  10 -2.3486 8.47692   1
   4   2  10 408.288 15.0928  -2
   0   6  10 408.288 15.0928   1
   4   3  10 2.90454 10.6134  -2
   1   6  10 2.90454 10.6134   1
   3   5  10 -5.8821 16.2051  -2
   2   6  10 -5.8821 16.2051   1
   3   6  10 558.002 23.8372  -2
   3   6  10 558.002 23.8372   1
   3   7  10 15.2984 19.7098  -2
   4   6  10 15.2984 19.7098   1
   7  -7  10 -5.5143 13.5373  -2
  -7   7  10 -5.5143 13.5373   1
   7  -6  10 -2.2861 27.6294  -2
  -6   7  10 -2.2861 27.6294   1
  -5   7  10 3.12346 22.4074   1
   6  -3  10 119.971 18.3793  -2
  -4   7  10 119.971 18.3793   1
   6  -2  10 3.40533 15.7589  -2
  -3   7  10 3.40533 15.7589   1
   5   0  10 9.13571 12.6918  -2
  -2   7  10 9.13571 12.6918   1
   5   1  10 615.848 33.2644  -2
  -1   7  10 615.848 33.2644   1
   5   2  10 3.69661 19.5989  -2
   0   7  10 3.69661 19.5989   1
   4   4  10 26.6194 15.6900  -2
   1   7  10 26.6194 15.6900   1
   4   5  10 663.323 26.0702  -2
   2   7  10 663.323 26.0702   1
   4   6  10 7.64175 19.2798  -2
   3   7  10 7.64175 19.2798   1
  -6   8  10 13.6830 14.5236   1
   7  -4  10 446.997 20.3496  -2
  -5   8  10 446.997 20.3496   1
   7  -3  10 -0.4349 15.6646  -2
  -4   8  10 -0.4349 15.6646   1
   6  -1  10 -4.0266 12.2980  -2
  -3   8  10 -4.0266 12.2980   1
   6   0  10 338.173 24.8426  -2
  -2   8  10 338.173 24.8426   1
   6   1  10 -4.1910 21.2947  -2
  -1   8  10 -4.1910 21.2947   1
   5   3  10 9.67327 22.8080  -2
   0   8  10 9.67327 22.8080   1
   5   4  10 239.519 16.4835  -2
   1   8  10 239.519 16.4835   1
   8  -4  10 -30.905 30.8540  -2
  -5   9  10 -30.905 30.8540   1
   7  -2  10 -1.6624 12.6686  -2
  -4   9  10 -1.6624 12.6686   1
   7  -1  10 231.761 22.2153  -2
  -3   9  10 231.761 22.2153   1
   7   0  10 -15.190 22.5800  -2
  -2   9  10 -15.190 22.5800   1
   6   2  10 2.22889 23.3589  -2
  -1   9  10 2.22889 23.3589   1
   6   3  10 110.663 19.5616  -2
   0   9  10 110.663 19.5616   1
   8  -2  10 124.495 23.0839  -2
  -4  10  10 124.495 23.0839   1
  -3  10  10 -22.429 14.3182   1
   7   1  10 -44.406 25.0569  -2
  -2  10  10 -44.406 25.0569   1
  -7  -4  11 16.1345 22.2683  -2
   0 -11  11 16.1345 22.2683   1
   1 -11  11 -2.9226 24.3132   1
  -8  -1  11 54.5979 19.8622  -2
   2 -11  11 54.5979 19.8622   1
  -8   0  11 -25.053 24.3729  -2
   3 -11  11 -25.053 24.3729   1
  -6  -6  11 25.1150 25.2645  -2
  -2 -10  11 25.1150 25.2645   1
  -6  -5  11 -0.2380 21.0339  -2
  -1 -10  11 -0.2380 21.0339   1
  -7  -3  11 -6.1711 42.2785  -2
   0 -10  11 -6.1711 42.2785   1
  -7  -2  11 164.425 24.6216  -2
   1 -10  11 164.425 24.6216   1
  -7  -1  11 -8.3353 19.4780  -2
   2 -10  11 -8.3353 19.4780   1
  -8   1  11 -22.299 51.8011  -2
   3 -10  11 -22.299 51.8011   1
  -8   2  11 78.2504 20.1396  -2
   4 -10  11 78.2504 20.1396   1
  -8   3  11 7.87577 26.4259  -2
   5 -10  11 7.87577 26.4259   1
  -5  -6  11 -5.8858 20.4961  -2
  -2  -9  11 -5.8858 20.4961   1
  -6  -4  11 -10.378 34.6022  -2
  -1  -9  11 -10.378 34.6022   1
  -6  -3  11 178.511 17.8381  -2
   0  -9  11 178.511 17.8381   1
  -6  -2  11 -4.9021 16.7800  -2
   1  -9  11 -4.9021 16.7800   1
  -7   0  11 6.45449 27.7255  -2
   2  -9  11 6.45449 27.7255   1
  -7   1  11 393.195 28.5383  -2
   3  -9  11 393.195 28.5383   1
  -7   2  11 -31.357 20.5064  -2
   4  -9  11 -31.357 20.5064   1
  -8   4  11 -18.274 52.3796  -2
   5  -9  11 -18.274 52.3796   1
   6  -9  11 197.456 64.2447   1
  -4  -8  11 200.352 28.5270  -2
  -4  -8  11 200.352 28.5270   1
  -4  -7  11 0.57999 19.5085  -2
  -3  -8  11 0.57999 19.5085   1
  -5  -5  11 -10.468 30.2196  -2
  -2  -8  11 -10.468 30.2196   1
  -5  -4  11 227.604 18.1542  -2
  -1  -8  11 227.604 18.1542   1
  -5  -3  11 -13.903 14.9804  -2
   0  -8  11 -13.903 14.9804   1
  -6  -1  11 -19.584 34.2623  -2
   1  -8  11 -19.584 34.2623   1
  -6   0  11 68.7006 17.1358  -2
   2  -8  11 68.7006 17.1358   1
  -6   1  11 -20.502 15.8965  -2
   3  -8  11 -20.502 15.8965   1
  -7   3  11 -3.5017 45.2839  -2
   4  -8  11 -3.5017 45.2839   1
  -7   4  11 34.7964 17.9092  -2
   5  -8  11 34.7964 17.9092   1
  -7   5  11 29.9172 26.9088  -2
   6  -8  11 29.9172 26.9088   1
  -3  -9  11 162.736 28.1882  -2
  -5  -7  11 162.736 28.1882   1
  -3  -8  11 25.8012 19.0822  -2
  -4  -7  11 25.8012 19.0822   1
  -4  -6  11 65.5045 32.4476  -2
  -3  -7  11 65.5045 32.4476   1
  -4  -5  11 122.906 15.1646  -2
  -2  -7  11 122.906 15.1646   1
  -4  -4  11 -7.9238 14.3489  -2
  -1  -7  11 -7.9238 14.3489   1
  -5  -2  11 -11.981 27.9259  -2
   0  -7  11 -11.981 27.9259   1
  -5  -1  11 52.8543 10.6550  -2
   1  -7  11 52.8543 10.6550   1
  -5   0  11 1.71920 10.8935  -2
   2  -7  11 1.71920 10.8935   1
  -6   2  11 -7.7309 34.2134  -2
   3  -7  11 -7.7309 34.2134   1
  -6   3  11 294.052 24.6535  -2
   4  -7  11 294.052 24.6535   1
   6  -7  11 -14.841 18.4635   1
  -7   7  11 509.313 25.7015  -2
   7  -7  11 509.313 25.7015   1
  -2 -10  11 46.1062 26.6919  -2
  -6  -6  11 46.1062 26.6919   1
  -2  -9  11 16.3141 19.2381  -2
  -5  -6  11 16.3141 19.2381   1
  -4  -6  11 -45.914 41.7172   1
  -3  -6  11 5.19817 12.0984  -2
  -3  -6  11 5.19817 12.0984   1
  -3  -5  11 21.0575 14.3838  -2
  -2  -6  11 21.0575 14.3838   1
  -4  -3  11 -2.7595 25.4022  -2
  -1  -6  11 -2.7595 25.4022   1
  -4  -2  11 434.701 21.3110  -2
   0  -6  11 434.701 21.3110   1
  -4  -1  11 -1.2548 9.44677  -2
   1  -6  11 -1.2548 9.44677   1
  -5   1  11 -0.3143 15.2047  -2
   2  -6  11 -0.3143 15.2047   1
  -5   2  11 1114.79 27.2109  -2
   3  -6  11 1114.79 27.2109   1
  -5   3  11 -4.5462 14.5740  -2
   4  -6  11 -4.5462 14.5740   1
  -6   5  11 -21.253 23.9661  -2
   5  -6  11 -21.253 23.9661   1
  -6   6  11 307.468 19.1331  -2
   6  -6  11 307.468 19.1331   1
  -6   7  11 34.4998 29.5679  -2
   7  -6  11 34.4998 29.5679   1
  -1 -10  11 -27.138 29.3600  -2
  -6  -5  11 -27.138 29.3600   1
  -5  -5  11 -32.855 25.0780   1
  -2  -7  11 306.028 24.4243  -2
  -4  -5  11 306.028 24.4243   1
  -2  -6  11 -12.748 15.9809  -2
  -3  -5  11 -12.748 15.9809   1
  -2  -5  11 15.2989 34.1849   1
  -3  -3  11 301.908 17.5826  -2
  -1  -5  11 301.908 17.5826   1
  -3  -2  11 4.84527 11.9148  -2
   0  -5  11 4.84527 11.9148   1
  -4   0  11 -15.873 12.7118  -2
   1  -5  11 -15.873 12.7118   1
  -4   1  11 781.617 23.7666  -2
   2  -5  11 781.617 23.7666   1
  -4   2  11 -2.9075 11.7438  -2
   3  -5  11 -2.9075 11.7438   1
  -5   4  11 -12.905 19.4428  -2
   4  -5  11 -12.905 19.4428   1
  -5   5  11 44.1607 10.1096  -2
   5  -5  11 44.1607 10.1096   1
  -5   6  11 -8.1830 18.3486  -2
   6  -5  11 -8.1830 18.3486   1
  -6   8  11 -66.921 55.6213  -2
   7  -5  11 -66.921 55.6213   1
   0 -11  11 0.67345 18.8605  -2
  -7  -4  11 0.67345 18.8605   1
  -6  -4  11 6.68070 28.6045   1
  -1  -8  11 233.861 18.2569  -2
  -5  -4  11 233.861 18.2569   1
  -1  -7  11 4.65606 13.9798  -2
  -4  -4  11 4.65606 13.9798   1
  -3  -4  11 21.1983 18.1908   1
  -2  -4  11 536.880 28.1075  -2
  -2  -4  11 536.880 28.1075   1
  -2  -3  11 16.5174 12.9582  -2
  -1  -4  11 16.5174 12.9582   1
  -3  -1  11 -0.7452 13.7268  -2
   0  -4  11 -0.7452 13.7268   1
  -3   0  11 135.963 11.9355  -2
   1  -4  11 135.963 11.9355   1
  -3   1  11 0.64044 9.59394  -2
   2  -4  11 0.64044 9.59394   1
  -4   3  11 1.39968 15.8806  -2
   3  -4  11 1.39968 15.8806   1
  -4   4  11 339.418 14.7685  -2
   4  -4  11 339.418 14.7685   1
  -4   5  11 -23.310 14.4367  -2
   5  -4  11 -23.310 14.4367   1
  -5   7  11 -23.347 24.0798  -2
   6  -4  11 -23.347 24.0798   1
  -5   8  11 -29.923 33.9965  -2
   7  -4  11 -29.923 33.9965   1
  -7  -3  11 9.95973 31.6142   1
   0  -9  11 189.420 18.3943  -2
  -6  -3  11 189.420 18.3943   1
   0  -8  11 -5.7228 14.2976  -2
  -5  -3  11 -5.7228 14.2976   1
  -4  -3  11 7.48610 20.7355   1
  -1  -5  11 115.413 11.6569  -2
  -3  -3  11 115.413 11.6569   1
  -1  -4  11 -0.2951 12.1373  -2
  -2  -3  11 -0.2951 12.1373   1
  -1  -3  11 -8.7696 24.4110   1
  -2  -1  11 357.633 16.5777  -2
   0  -3  11 357.633 16.5777   1
  -2   0  11 4.90115 14.2066  -2
   1  -3  11 4.90115 14.2066   1
  -3   2  11 -4.8110 13.1094  -2
   2  -3  11 -4.8110 13.1094   1
  -3   3  11 941.790 26.6061  -2
   3  -3  11 941.790 26.6061   1
  -3   4  11 -10.114 12.3218  -2
   4  -3  11 -10.114 12.3218   1
  -4   6  11 -14.803 20.1375  -2
   5  -3  11 -14.803 20.1375   1
  -4   7  11 629.247 24.5483  -2
   6  -3  11 629.247 24.5483   1
  -4   8  11 -21.098 30.0028  -2
   7  -3  11 -21.098 30.0028   1
   1 -10  11 31.6830 29.2020  -2
  -7  -2  11 31.6830 29.2020   1
   1  -9  11 -12.667 16.3568  -2
  -6  -2  11 -12.667 16.3568   1
  -5  -2  11 21.3740 23.6550   1
   0  -6  11 270.609 15.4806  -2
  -4  -2  11 270.609 15.4806   1
   0  -5  11 -11.084 8.41220  -2
  -3  -2  11 -11.084 8.41220   1
  -2  -2  11 -9.7505 12.9453   1
   0  -2  11 -1.8270 6.53831   1
  -2   1  11 -5.8787 14.3522  -2
   1  -2  11 -5.8787 14.3522   1
  -2   2  11 1035.87 26.7128  -2
   2  -2  11 1035.87 26.7128   1
  -2   3  11 -20.234 18.9707  -2
   3  -2  11 -20.234 18.9707   1
  -3   5  11 7.27077 17.0718  -2
   4  -2  11 7.27077 17.0718   1
  -3   6  11 870.100 29.2462  -2
   5  -2  11 870.100 29.2462   1
  -3   7  11 -5.3573 25.5410  -2
   6  -2  11 -5.3573 25.5410   1
  -4   9  11 -9.3447 31.0309  -2
   7  -2  11 -9.3447 31.0309   1
   2 -11  11 47.3618 19.9430  -2
  -8  -1  11 47.3618 19.9430   1
   2 -10  11 9.35971 17.8922  -2
  -7  -1  11 9.35971 17.8922   1
  -6  -1  11 -17.657 24.7502   1
   1  -7  11 192.577 15.5210  -2
  -5  -1  11 192.577 15.5210   1
   1  -6  11 6.33430 9.03250  -2
  -4  -1  11 6.33430 9.03250   1
   0  -4  11 -21.200 11.6651  -2
  -3  -1  11 -21.200 11.6651   1
   0  -3  11 617.441 31.8425  -2
  -2  -1  11 617.441 31.8425   1
   0  -2  11 -2.9475 10.6352  -2
  -1  -1  11 -2.9475 10.6352   1
   0  -1  11 0.72425 4.48668   1
  -1   1  11 207.153 9.47776  -2
   1  -1  11 207.153 9.47776   1
  -1   2  11 -4.0237 9.17671  -2
   2  -1  11 -4.0237 9.17671   1
  -2   4  11 11.0933 19.6504  -2
   3  -1  11 11.0933 19.6504   1
  -2   5  11 147.220 15.1190  -2
   4  -1  11 147.220 15.1190   1
  -2   6  11 33.7775 23.4432  -2
   5  -1  11 33.7775 23.4432   1
  -3   8  11 9.07650 26.6555  -2
   6  -1  11 9.07650 26.6555   1
  -3   9  11 181.766 15.1764  -2
   7  -1  11 181.766 15.1764   1
   3 -11  11 30.7702 20.1499  -2
  -8   0  11 30.7702 20.1499   1
  -7   0  11 3.43364 8.38029   1
   2  -8  11 288.567 16.9858  -2
  -6   0  11 288.567 16.9858   1
   2  -7  11 5.08350 9.81708  -2
  -5   0  11 5.08350 9.81708   1
  -4   0  11 -6.1383 18.5694   1
   1  -4  11 138.267 19.0323  -2
  -3   0  11 138.267 19.0323   1
   1  -3  11 14.6086 11.4255  -2
  -2   0  11 14.6086 11.4255   1
  -1   0  11 7.13975 4.23316   1
   0   0  11 9.83393 4.83845  -2
   0   0  11 9.83393 4.83845   1
   0   1  11 1.88477 8.58724  -2
   1   0  11 1.88477 8.58724   1
  -1   3  11 3.29751 10.1639  -2
   2   0  11 3.29751 10.1639   1
  -1   4  11 335.536 22.3197  -2
   3   0  11 335.536 22.3197   1
  -1   5  11 -1.1692 11.8877  -2
   4   0  11 -1.1692 11.8877   1
  -2   7  11 -13.509 23.8973  -2
   5   0  11 -13.509 23.8973   1
  -2   8  11 286.805 15.5330  -2
   6   0  11 286.805 15.5330   1
  -2   9  11 -15.890 30.8063  -2
   7   0  11 -15.890 30.8063   1
  -8   1  11 4.61435 9.69252   1
   3  -9  11 172.628 18.0917  -2
  -7   1  11 172.628 18.0917   1
   3  -8  11 -1.1909 12.0283  -2
  -6   1  11 -1.1909 12.0283   1
  -5   1  11 3.40159 22.4084   1
   2  -5  11 444.568 16.0484  -2
  -4   1  11 444.568 16.0484   1
   2  -4  11 9.36950 11.9288  -2
  -3   1  11 9.36950 11.9288   1
   1  -2  11 -3.1507 12.1357  -2
  -2   1  11 -3.1507 12.1357   1
   1  -1  11 140.582 7.45756  -2
  -1   1  11 140.582 7.45756   1
   1   0  11 -6.0874 9.36944  -2
   0   1  11 -6.0874 9.36944   1
   0   2  11 11.9852 10.7730  -2
   1   1  11 11.9852 10.7730   1
   0   3  11 2063.30 54.1310  -2
   2   1  11 2063.30 54.1310   1
   0   4  11 -18.103 20.3327  -2
   3   1  11 -18.103 20.3327   1
  -1   6  11 19.1841 11.2628  -2
   4   1  11 19.1841 11.2628   1
  -1   7  11 780.398 39.7448  -2
   5   1  11 780.398 39.7448   1
  -1   8  11 -21.529 27.7374  -2
   6   1  11 -21.529 27.7374   1
   4 -10  11 43.6218 28.3287  -2
  -8   2  11 43.6218 28.3287   1
   4  -9  11 32.7608 29.7335  -2
  -7   2  11 32.7608 29.7335   1
  -6   2  11 -11.889 8.58145   1
   3  -6  11 757.812 30.8959  -2
  -5   2  11 757.812 30.8959   1
   3  -5  11 1.55349 11.5568  -2
  -4   2  11 1.55349 11.5568   1
   2  -3  11 -16.981 13.4917  -2
  -3   2  11 -16.981 13.4917   1
   2  -2  11 996.228 24.0182  -2
  -2   2  11 996.228 24.0182   1
   2  -1  11 0.24092 10.7510  -2
  -1   2  11 0.24092 10.7510   1
   1   1  11 6.25058 9.19959  -2
   0   2  11 6.25058 9.19959   1
   1   2  11 632.670 30.6990  -2
   1   2  11 632.670 30.6990   1
   1   3  11 -9.9203 10.1147  -2
   2   2  11 -9.9203 10.1147   1
   0   5  11 -15.206 20.3637  -2
   3   2  11 -15.206 20.3637   1
   0   6  11 698.291 36.0851  -2
   4   2  11 698.291 36.0851   1
   0   7  11 10.1492 25.1487  -2
   5   2  11 10.1492 25.1487   1
  -1   9  11 -7.4763 15.3339  -2
   6   2  11 -7.4763 15.3339   1
   5 -10  11 0.52225 31.8621  -2
  -8   3  11 0.52225 31.8621   1
  -7   3  11 8.89199 10.1906   1
   4  -7  11 358.655 30.2613  -2
  -6   3  11 358.655 30.2613   1
   4  -6  11 -33.726 10.4132  -2
  -5   3  11 -33.726 10.4132   1
  -4   3  11 2.92557 6.66363   1
   3  -3  11 912.810 23.8041  -2
  -3   3  11 912.810 23.8041   1
   3  -2  11 5.07421 9.18885  -2
  -2   3  11 5.07421 9.18885   1
   2   0  11 3.41834 8.57431  -2
  -1   3  11 3.41834 8.57431   1
   2   1  11 1519.38 34.5916  -2
   0   3  11 1519.38 34.5916   1
   2   2  11 -13.526 8.61401  -2
   1   3  11 -13.526 8.61401   1
   1   4  11 -2.9296 17.6196  -2
   2   3  11 -2.9296 17.6196   1
   1   5  11 508.321 29.0929  -2
   3   3  11 508.321 29.0929   1
   1   6  11 -11.185 22.8884  -2
   4   3  11 -11.185 22.8884   1
   0   8  11 -15.814 13.8246  -2
   5   3  11 -15.814 13.8246   1
   0   9  11 321.957 27.2157  -2
   6   3  11 321.957 27.2157   1
  -8   4  11 -27.530 12.1328   1
   5  -8  11 116.373 15.3788  -2
  -7   4  11 116.373 15.3788   1
   5  -7  11 -23.043 15.7737  -2
  -6   4  11 -23.043 15.7737   1
  -5   4  11 -4.6407 8.32264   1
   4  -4  11 343.181 13.8697  -2
  -4   4  11 343.181 13.8697   1
   4  -3  11 -10.373 12.1540  -2
  -3   4  11 -10.373 12.1540   1
   3  -1  11 -11.551 9.36892  -2
  -2   4  11 -11.551 9.36892   1
   3   0  11 165.754 9.04036  -2
  -1   4  11 165.754 9.04036   1
   3   1  11 -6.9112 8.27087  -2
   0   4  11 -6.9112 8.27087   1
   2   3  11 11.8914 16.7192  -2
   1   4  11 11.8914 16.7192   1
   2   4  11 620.270 32.4880  -2
   2   4  11 620.270 32.4880   1
   2   5  11 -4.4814 20.8949  -2
   3   4  11 -4.4814 20.8949   1
   1   7  11 24.3751 23.7715  -2
   4   4  11 24.3751 23.7715   1
   1   8  11 508.578 31.8292  -2
   5   4  11 508.578 31.8292   1
   6  -8  11 -18.930 17.2417  -2
  -7   5  11 -18.930 17.2417   1
  -6   5  11 -21.369 10.7286   1
   5  -5  11 25.7321 10.4744  -2
  -5   5  11 25.7321 10.4744   1
   5  -4  11 -19.404 15.4309  -2
  -4   5  11 -19.404 15.4309   1
   4  -2  11 -13.437 17.0959  -2
  -3   5  11 -13.437 17.0959   1
   4  -1  11 189.091 13.0992  -2
  -2   5  11 189.091 13.0992   1
   4   0  11 4.56607 8.10548  -2
  -1   5  11 4.56607 8.10548   1
   3   2  11 14.5650 9.12433  -2
   0   5  11 14.5650 9.12433   1
   3   3  11 846.351 24.7106  -2
   1   5  11 846.351 24.7106   1
   3   4  11 -3.4118 12.7431  -2
   2   5  11 -3.4118 12.7431   1
   2   6  11 24.8106 22.8071  -2
   3   5  11 24.8106 22.8071   1
   2   7  11 344.565 26.5354  -2
   4   5  11 344.565 26.5354   1
  -7   6  11 16.9775 14.0421   1
   6  -6  11 272.396 16.7900  -2
  -6   6  11 272.396 16.7900   1
   6  -5  11 -54.065 26.6025  -2
  -5   6  11 -54.065 26.6025   1
  -4   6  11 17.1791 10.9178   1
   5  -2  11 1037.68 52.0302  -2
  -3   6  11 1037.68 52.0302   1
   5  -1  11 19.2270 12.1005  -2
  -2   6  11 19.2270 12.1005   1
   4   1  11 8.84147 9.87477  -2
  -1   6  11 8.84147 9.87477   1
   4   2  11 742.424 26.2651  -2
   0   6  11 742.424 26.2651   1
   4   3  11 0.36727 15.2407  -2
   1   6  11 0.36727 15.2407   1
   3   5  11 42.6158 17.9757  -2
   2   6  11 42.6158 17.9757   1
   3   6  11 53.7004 10.8748  -2
   3   6  11 53.7004 10.8748   1
   3   7  11 41.9196 21.2140  -2
   4   6  11 41.9196 21.2140   1
   7  -7  11 540.309 38.5089  -2
  -7   7  11 540.309 38.5089   1
   7  -6  11 27.7041 28.5715  -2
  -6   7  11 27.7041 28.5715   1
  -5   7  11 6.33171 23.4990   1
   6  -3  11 565.579 35.2667  -2
  -4   7  11 565.579 35.2667   1
   6  -2  11 9.82603 11.7773  -2
  -3   7  11 9.82603 11.7773   1
   5   0  11 40.4280 17.5604  -2
  -2   7  11 40.4280 17.5604   1
   5   1  11 501.567 29.9327  -2
  -1   7  11 501.567 29.9327   1
   5   2  11 22.4878 21.7942  -2
   0   7  11 22.4878 21.7942   1
   4   4  11 8.40731 16.9416  -2
   1   7  11 8.40731 16.9416   1
   4   5  11 202.890 14.6389  -2
   2   7  11 202.890 14.6389   1
   4   6  11 34.8635 20.5543  -2
   3   7  11 34.8635 20.5543   1
  -6   8  11 -1.1469 14.2957   1
   7  -4  11 376.172 52.7641  -2
  -5   8  11 376.172 52.7641   1
   6  -1  11 8.59250 19.3489  -2
  -3   8  11 8.59250 19.3489   1
   6   0  11 214.771 22.1085  -2
  -2   8  11 214.771 22.1085   1
   6   1  11 -10.232 21.8206  -2
  -1   8  11 -10.232 21.8206   1
   5   3  11 2.74614 23.0942  -2
   0   8  11 2.74614 23.0942   1
   5   4  11 325.405 18.7829  -2
   1   8  11 325.405 18.7829   1
   2   8  11 18.4618 18.0977   1
  -5   9  11 16.1500 27.3234   1
   7  -2  11 -6.6009 17.2907  -2
  -4   9  11 -6.6009 17.2907   1
   7  -1  11 208.822 21.6497  -2
  -3   9  11 208.822 21.6497   1
   7   0  11 -20.135 23.5054  -2
  -2   9  11 -20.135 23.5054   1
   6   2  11 -11.464 24.3950  -2
  -1   9  11 -11.464 24.3950   1
   6   3  11 297.473 28.2886  -2
   0   9  11 297.473 28.2886   1
  -6  -5  12 -10.064 19.3761  -2
  -1 -10  12 -10.064 19.3761   1
  -7  -3  12 -14.385 43.5971  -2
   0 -10  12 -14.385 43.5971   1
  -7  -2  12 163.971 20.1549  -2
   1 -10  12 163.971 20.1549   1
  -7  -1  12 -8.4595 19.5539  -2
   2 -10  12 -8.4595 19.5539   1
  -8   1  12 -74.155 51.2868  -2
   3 -10  12 -74.155 51.2868   1
  -5  -6  12 5.76477 17.8085  -2
  -2  -9  12 5.76477 17.8085   1
  -6  -4  12 -30.007 33.9822  -2
  -1  -9  12 -30.007 33.9822   1
  -6  -3  12 33.9144 15.1834  -2
   0  -9  12 33.9144 15.1834   1
  -6  -2  12 -17.413 17.4974  -2
   1  -9  12 -17.413 17.4974   1
  -7   0  12 -20.687 41.9284  -2
   2  -9  12 -20.687 41.9284   1
  -7   1  12 83.9405 11.4990  -2
   3  -9  12 83.9405 11.4990   1
  -7   2  12 28.1478 24.3354  -2
   4  -9  12 28.1478 24.3354   1
   5  -9  12 -31.343 28.5448   1
  -4  -8  12 35.2382 24.9906  -2
  -4  -8  12 35.2382 24.9906   1
  -4  -7  12 37.5655 17.8976  -2
  -3  -8  12 37.5655 17.8976   1
  -5  -5  12 -3.0617 33.3507  -2
  -2  -8  12 -3.0617 33.3507   1
  -5  -4  12 33.8431 13.9615  -2
  -1  -8  12 33.8431 13.9615   1
  -5  -3  12 18.6878 16.0392  -2
   0  -8  12 18.6878 16.0392   1
  -6  -1  12 -11.870 33.7081  -2
   1  -8  12 -11.870 33.7081   1
  -6   0  12 315.976 17.1441  -2
   2  -8  12 315.976 17.1441   1
  -6   1  12 -9.9229 14.1587  -2
   3  -8  12 -9.9229 14.1587   1
  -6   1  12 -17.195 43.8905  -2
  -6   2  12 -17.195 43.8905  -2
   3  -8  12 -17.195 43.8905   1
  -7   3  12 -42.163 44.1855  -2
   4  -8  12 -42.163 44.1855   1
  -7   4  12 468.398 23.1293  -2
   5  -8  12 468.398 23.1293   1
  -3  -8  12 15.5072 17.2161  -2
  -4  -7  12 15.5072 17.2161   1
  -4  -6  12 20.2199 33.6503  -2
  -3  -7  12 20.2199 33.6503   1
  -4  -5  12 199.485 23.6407  -2
  -2  -7  12 199.485 23.6407   1
  -4  -4  12 -18.486 14.7372  -2
  -1  -7  12 -18.486 14.7372   1
  -5  -2  12 29.7620 28.8730  -2
   0  -7  12 29.7620 28.8730   1
  -5  -1  12 827.252 33.2365  -2
   1  -7  12 827.252 33.2365   1
  -5   0  12 -6.5236 12.0833  -2
   2  -7  12 -6.5236 12.0833   1
  -6   2  12 -6.5651 19.1361  -2
   3  -7  12 -6.5651 19.1361   1
  -6   3  12 42.6545 10.7706  -2
   4  -7  12 42.6545 10.7706   1
  -6   4  12 32.6095 24.2055  -2
   5  -7  12 32.6095 24.2055   1
   6  -7  12 -14.994 16.3918   1
  -2  -9  12 -6.0956 19.3466  -2
  -5  -6  12 -6.0956 19.3466   1
  -4  -6  12 -20.294 43.8738   1
  -3  -6  12 234.687 18.4563  -2
  -3  -6  12 234.687 18.4563   1
  -3  -5  12 21.6682 14.7858  -2
  -2  -6  12 21.6682 14.7858   1
  -4  -3  12 0.17635 26.6706  -2
  -1  -6  12 0.17635 26.6706   1
  -4  -2  12 357.543 19.7346  -2
   0  -6  12 357.543 19.7346   1
  -4  -1  12 -21.358 9.90036  -2
   1  -6  12 -21.358 9.90036   1
  -5   1  12 4.15887 15.9023  -2
   2  -6  12 4.15887 15.9023   1
  -5   2  12 72.4295 8.54878  -2
   3  -6  12 72.4295 8.54878   1
  -5   3  12 -10.192 14.4283  -2
   4  -6  12 -10.192 14.4283   1
  -6   5  12 27.7108 25.3618  -2
   5  -6  12 27.7108 25.3618   1
  -6   6  12 357.069 20.1529  -2
   6  -6  12 357.069 20.1529   1
  -1 -10  12 -9.2663 21.6510  -2
  -6  -5  12 -9.2663 21.6510   1
  -5  -5  12 1.53308 34.6901   1
  -2  -7  12 190.499 21.8067  -2
  -4  -5  12 190.499 21.8067   1
  -2  -6  12 -24.081 16.1401  -2
  -3  -5  12 -24.081 16.1401   1
  -3  -4  12 8.05733 26.6037  -2
  -2  -5  12 8.05733 26.6037   1
  -3  -3  12 146.449 14.3998  -2
  -1  -5  12 146.449 14.3998   1
  -3  -2  12 13.7875 12.7050  -2
   0  -5  12 13.7875 12.7050   1
  -4   0  12 2.59060 12.0508  -2
   1  -5  12 2.59060 12.0508   1
  -4   1  12 563.032 16.0233  -2
   2  -5  12 563.032 16.0233   1
  -4   2  12 -2.7969 12.2406  -2
   3  -5  12 -2.7969 12.2406   1
  -5   4  12 -4.1735 20.7350  -2
   4  -5  12 -4.1735 20.7350   1
  -5   5  12 869.382 30.6800  -2
   5  -5  12 869.382 30.6800   1
  -5   6  12 -7.9471 17.5363  -2
   6  -5  12 -7.9471 17.5363   1
   7  -5  12 -9.1049 32.4623   1
  -6  -4  12 -5.6247 29.0232   1
  -1  -8  12 -16.600 15.2578  -2
  -5  -4  12 -16.600 15.2578   1
  -1  -7  12 -9.0483 16.8896  -2
  -4  -4  12 -9.0483 16.8896   1
  -3  -4  12 2.36181 33.9413   1
  -2  -4  12 453.824 25.7282  -2
  -2  -4  12 453.824 25.7282   1
  -2  -3  12 -11.950 13.6136  -2
  -1  -4  12 -11.950 13.6136   1
  -3  -1  12 1.60160 12.0606  -2
   0  -4  12 1.60160 12.0606   1
  -3   0  12 452.006 20.1589  -2
   1  -4  12 452.006 20.1589   1
  -3   1  12 -4.5055 13.4945  -2
   2  -4  12 -4.5055 13.4945   1
  -4   3  12 -7.9572 16.5646  -2
   3  -4  12 -7.9572 16.5646   1
  -4   4  12 490.838 19.3706  -2
   4  -4  12 490.838 19.3706   1
  -4   5  12 -6.2300 14.9494  -2
   5  -4  12 -6.2300 14.9494   1
  -5   7  12 2.37240 25.1569  -2
   6  -4  12 2.37240 25.1569   1
  -5   8  12 112.351 20.4003  -2
   7  -4  12 112.351 20.4003   1
  -7  -3  12 23.2230 32.0662   1
   0  -9  12 42.6792 27.2104  -2
  -6  -3  12 42.6792 27.2104   1
   0  -8  12 3.30510 14.3911  -2
  -5  -3  12 3.30510 14.3911   1
  -1  -6  12 -20.563 13.1023  -2
  -4  -3  12 -20.563 13.1023   1
  -1  -5  12 348.414 16.6619  -2
  -3  -3  12 348.414 16.6619   1
  -1  -4  12 -9.2235 8.65918  -2
  -2  -3  12 -9.2235 8.65918   1
  -1  -3  12 -2.6312 28.2021   1
  -2  -1  12 742.275 27.3684  -2
   0  -3  12 742.275 27.3684   1
  -2   0  12 -4.7297 16.1679  -2
   1  -3  12 -4.7297 16.1679   1
  -3   2  12 9.04303 13.8014  -2
   2  -3  12 9.04303 13.8014   1
  -3   3  12 145.650 12.5479  -2
   3  -3  12 145.650 12.5479   1
  -3   4  12 9.16550 17.5651  -2
   4  -3  12 9.16550 17.5651   1
  -4   6  12 -2.1895 21.1563  -2
   5  -3  12 -2.1895 21.1563   1
  -4   7  12 53.7621 11.2354  -2
   6  -3  12 53.7621 11.2354   1
   7  -3  12 3.57337 48.1275   1
   1  -9  12 -10.864 29.0386  -2
  -6  -2  12 -10.864 29.0386   1
  -5  -2  12 45.8531 25.0963   1
   0  -6  12 127.188 13.1609  -2
  -4  -2  12 127.188 13.1609   1
   0  -5  12 -1.4777 12.1280  -2
  -3  -2  12 -1.4777 12.1280   1
  -2  -2  12 7.22235 24.8440   1
  -1  -1  12 4.02795 11.1862  -2
   0  -2  12 4.02795 11.1862   1
  -2   1  12 -10.089 16.7100  -2
   1  -2  12 -10.089 16.7100   1
  -2   2  12 284.384 11.7103  -2
   2  -2  12 284.384 11.7103   1
  -2   3  12 13.6839 20.6219  -2
   3  -2  12 13.6839 20.6219   1
  -3   5  12 13.5473 17.7881  -2
   4  -2  12 13.5473 17.7881   1
  -3   6  12 407.178 18.0743  -2
   5  -2  12 407.178 18.0743   1
  -3   7  12 -25.308 26.5422  -2
   6  -2  12 -25.308 26.5422   1
   7  -2  12 5.82676 13.6570   1
   2 -10  12 -13.033 17.8316  -2
  -7  -1  12 -13.033 17.8316   1
  -6  -1  12 -4.3261 25.7850   1
   1  -7  12 375.278 23.9307  -2
  -5  -1  12 375.278 23.9307   1
   1  -6  12 7.89858 9.61769  -2
  -4  -1  12 7.89858 9.61769   1
   0  -4  12 0.61107 12.8657  -2
  -3  -1  12 0.61107 12.8657   1
   0  -3  12 210.535 18.4326  -2
  -2  -1  12 210.535 18.4326   1
   0  -2  12 -2.3983 11.1297  -2
  -1  -1  12 -2.3983 11.1297   1
   0  -1  12 -1.5060 5.10473   1
  -1   1  12 710.907 20.0604  -2
   1  -1  12 710.907 20.0604   1
  -1   2  12 -6.2810 10.0957  -2
   2  -1  12 -6.2810 10.0957   1
  -2   4  12 -2.9006 15.0308  -2
   3  -1  12 -2.9006 15.0308   1
  -2   5  12 716.571 36.2286  -2
   4  -1  12 716.571 36.2286   1
  -2   6  12 -8.9451 24.7880  -2
   5  -1  12 -8.9451 24.7880   1
  -3   8  12 7.31692 28.1743  -2
   6  -1  12 7.31692 28.1743   1
  -8   0  12 -17.680 10.3335   1
  -7   0  12 -5.2486 8.96508   1
   2  -8  12 170.249 16.6243  -2
  -6   0  12 170.249 16.6243   1
   2  -7  12 -1.9102 9.51164  -2
  -5   0  12 -1.9102 9.51164   1
  -4   0  12 -20.209 18.7604   1
   1  -4  12 256.519 22.8551  -2
  -3   0  12 256.519 22.8551   1
   1  -3  12 -12.045 12.2604  -2
  -2   0  12 -12.045 12.2604   1
   0  -1  12 0.67926 12.6156  -2
  -1   0  12 0.67926 12.6156   1
   0   0  12 2225.33 57.4930  -2
   0   0  12 2225.33 57.4930   1
   0   1  12 -0.9631 9.10590  -2
   1   0  12 -0.9631 9.10590   1
  -1   3  12 -5.3560 10.7637  -2
   2   0  12 -5.3560 10.7637   1
  -1   4  12 1795.94 74.9261  -2
   3   0  12 1795.94 74.9261   1
  -1   5  12 -8.2924 22.6178  -2
   4   0  12 -8.2924 22.6178   1
  -2   7  12 -32.839 25.8173  -2
   5   0  12 -32.839 25.8173   1
  -2   8  12 103.791 11.7601  -2
   6   0  12 103.791 11.7601   1
  -8   1  12 -7.2009 10.5800   1
   3  -9  12 95.7370 28.3035  -2
  -7   1  12 95.7370 28.3035   1
   3  -8  12 -17.583 11.0287  -2
  -6   1  12 -17.583 11.0287   1
  -5   1  12 -10.869 21.4981   1
   2  -5  12 684.835 22.9616  -2
  -4   1  12 684.835 22.9616   1
   2  -4  12 21.4534 11.5689  -2
  -3   1  12 21.4534 11.5689   1
   1  -2  12 -21.869 13.2392  -2
  -2   1  12 -21.869 13.2392   1
   1  -1  12 625.298 16.7449  -2
  -1   1  12 625.298 16.7449   1
   1   0  12 -9.3487 7.88953  -2
   0   1  12 -9.3487 7.88953   1
   0   2  12 6.34800 8.82745  -2
   1   1  12 6.34800 8.82745   1
   0   3  12 827.029 25.1412  -2
   2   1  12 827.029 25.1412   1
   0   4  12 -4.7949 22.1027  -2
   3   1  12 -4.7949 22.1027   1
  -1   6  12 -2.5655 25.1280  -2
   4   1  12 -2.5655 25.1280   1
  -1   7  12 262.159 24.5414  -2
   5   1  12 262.159 24.5414   1
  -1   8  12 26.7268 30.7094  -2
   6   1  12 26.7268 30.7094   1
   4 -10  12 85.5394 19.0567  -2
  -8   2  12 85.5394 19.0567   1
   4  -9  12 -22.751 30.0442  -2
  -7   2  12 -22.751 30.0442   1
  -6   2  12 -15.863 9.10800   1
   3  -6  12 210.774 18.8636  -2
  -5   2  12 210.774 18.8636   1
   3  -5  12 8.56844 11.7844  -2
  -4   2  12 8.56844 11.7844   1
   2  -3  12 6.05373 13.0871  -2
  -3   2  12 6.05373 13.0871   1
   2  -2  12 293.952 10.9687  -2
  -2   2  12 293.952 10.9687   1
   2  -1  12 9.48587 8.80111  -2
  -1   2  12 9.48587 8.80111   1
   1   1  12 11.3224 8.94593  -2
   0   2  12 11.3224 8.94593   1
   1   2  12 235.892 17.9755  -2
   1   2  12 235.892 17.9755   1
   1   3  12 22.8393 11.2862  -2
   2   2  12 22.8393 11.2862   1
   0   5  12 31.9080 21.2880  -2
   3   2  12 31.9080 21.2880   1
   0   6  12 568.564 32.4067  -2
   4   2  12 568.564 32.4067   1
   0   7  12 -34.680 25.9611  -2
   5   2  12 -34.680 25.9611   1
   6   2  12 0.55852 12.8255   1
  -8   3  12 -10.002 11.6239   1
  -7   3  12 3.05158 10.7023   1
   4  -7  12 94.6003 23.4621  -2
  -6   3  12 94.6003 23.4621   1
   4  -6  12 -17.396 25.6032  -2
  -5   3  12 -17.396 25.6032   1
   3  -4  12 -20.900 31.5110  -2
  -4   3  12 -20.900 31.5110   1
   3  -3  12 120.404 9.32249  -2
  -3   3  12 120.404 9.32249   1
   3  -2  12 -9.2383 8.77763  -2
  -2   3  12 -9.2383 8.77763   1
   2   0  12 -4.1298 9.25495  -2
  -1   3  12 -4.1298 9.25495   1
   2   1  12 1105.51 35.1738  -2
   0   3  12 1105.51 35.1738   1
   2   2  12 -14.460 9.32604  -2
   1   3  12 -14.460 9.32604   1
   1   4  12 -2.5840 19.7509  -2
   2   3  12 -2.5840 19.7509   1
   1   5  12 490.278 29.6050  -2
   3   3  12 490.278 29.6050   1
   1   6  12 16.4440 25.3366  -2
   4   3  12 16.4440 25.3366   1
   0   8  12 -5.0553 28.1527  -2
   5   3  12 -5.0553 28.1527   1
   5  -7  12 -7.2278 15.2497  -2
  -6   4  12 -7.2278 15.2497   1
  -5   4  12 3.32491 9.69757   1
   4  -4  12 396.708 21.8421  -2
  -4   4  12 396.708 21.8421   1
   4  -3  12 -6.2652 12.5731  -2
  -3   4  12 -6.2652 12.5731   1
   3  -1  12 9.22626 10.2149  -2
  -2   4  12 9.22626 10.2149   1
   3   0  12 1590.47 39.0453  -2
  -1   4  12 1590.47 39.0453   1
   3   1  12 -2.7750 10.1573  -2
   0   4  12 -2.7750 10.1573   1
   2   3  12 -6.5917 10.7339  -2
   1   4  12 -6.5917 10.7339   1
   2   4  12 913.215 44.0895  -2
   2   4  12 913.215 44.0895   1
   2   5  12 12.0570 23.1250  -2
   3   4  12 12.0570 23.1250   1
   1   7  12 -5.1315 25.7768  -2
   4   4  12 -5.1315 25.7768   1
   1   8  12 35.4498 13.8539  -2
   5   4  12 35.4498 13.8539   1
   6  -8  12 -10.468 17.6009  -2
  -7   5  12 -10.468 17.6009   1
  -6   5  12 -10.349 10.9722   1
   5  -5  12 823.638 45.3713  -2
  -5   5  12 823.638 45.3713   1
   5  -4  12 18.7692 16.0476  -2
  -4   5  12 18.7692 16.0476   1
   4  -2  12 -14.892 18.6329  -2
  -3   5  12 -14.892 18.6329   1
   4  -1  12 481.277 21.0793  -2
  -2   5  12 481.277 21.0793   1
   4   0  12 -2.6990 9.04236  -2
  -1   5  12 -2.6990 9.04236   1
   3   2  12 8.66914 9.70739  -2
   0   5  12 8.66914 9.70739   1
   3   3  12 238.724 15.4415  -2
   1   5  12 238.724 15.4415   1
   3   4  12 -8.4740 13.9923  -2
   2   5  12 -8.4740 13.9923   1
   2   6  12 -9.1249 25.5069  -2
   3   5  12 -9.1249 25.5069   1
   2   7  12 182.261 20.5538  -2
   4   5  12 182.261 20.5538   1
  -7   6  12 -3.9990 27.3396   1
   6  -6  12 306.217 17.5319  -2
  -6   6  12 306.217 17.5319   1
   6  -5  12 -55.996 27.4159  -2
  -5   6  12 -55.996 27.4159   1
   5  -3  12 6.44574 21.0777  -2
  -4   6  12 6.44574 21.0777   1
   5  -2  12 240.398 23.6702  -2
  -3   6  12 240.398 23.6702   1
   5  -1  12 -7.5822 12.0400  -2
  -2   6  12 -7.5822 12.0400   1
   4   1  12 0.65150 10.3381  -2
  -1   6  12 0.65150 10.3381   1
   4   2  12 349.136 17.3149  -2
   0   6  12 349.136 17.3149   1
   4   3  12 -4.3331 16.5919  -2
   1   6  12 -4.3331 16.5919   1
   3   5  12 -6.7278 18.3512  -2
   2   6  12 -6.7278 18.3512   1
   3   6  12 315.717 19.8649  -2
   3   6  12 315.717 19.8649   1
   7  -6  12 -8.3159 28.3109  -2
  -6   7  12 -8.3159 28.3109   1
  -5   7  12 -19.767 29.5611   1
   6  -3  12 110.055 21.1598  -2
  -4   7  12 110.055 21.1598   1
   6  -2  12 -11.500 25.4789  -2
  -3   7  12 -11.500 25.4789   1
   5   0  12 3.33276 13.5736  -2
  -2   7  12 3.33276 13.5736   1
   5   1  12 365.692 26.1672  -2
  -1   7  12 365.692 26.1672   1
   5   2  12 -16.017 21.8475  -2
   0   7  12 -16.017 21.8475   1
   4   4  12 -3.9131 17.8395  -2
   1   7  12 -3.9131 17.8395   1
   4   5  12 375.922 20.9155  -2
   2   7  12 375.922 20.9155   1
   7  -4  12 161.764 24.5639  -2
  -5   8  12 161.764 24.5639   1
   7  -3  12 15.5340 28.5313  -2
  -4   8  12 15.5340 28.5313   1
   6  -1  12 0.86763 19.4891  -2
  -3   8  12 0.86763 19.4891   1
   6   0  12 246.570 23.7552  -2
  -2   8  12 246.570 23.7552   1
   6   1  12 3.26253 22.2925  -2
  -1   8  12 3.26253 22.2925   1
   5   3  12 30.7187 24.9723  -2
   0   8  12 30.7187 24.9723   1
   5   4  12 89.6423 12.4206  -2
   1   8  12 89.6423 12.4206   1
   7  -1  12 187.787 21.9702  -2
  -3   9  12 187.787 21.9702   1
  -2   9  12 6.37998 15.2980   1
   0 -10  13 -27.836 20.5757   1
  -7  -2  13 189.216 21.6774  -2
   1 -10  13 189.216 21.6774   1
  -7  -1  13 -34.258 19.9494  -2
   2 -10  13 -34.258 19.9494   1
   3 -10  13 -1.2999 54.1985   1
  -5  -6  13 8.99760 18.1257  -2
  -2  -9  13 8.99760 18.1257   1
  -6  -4  13 -16.686 34.7558  -2
  -1  -9  13 -16.686 34.7558   1
  -6  -3  13 304.718 22.1510  -2
   0  -9  13 304.718 22.1510   1
  -6  -2  13 3.59170 20.6321  -2
   1  -9  13 3.59170 20.6321   1
  -7   0  13 -53.926 42.8952  -2
   2  -9  13 -53.926 42.8952   1
  -7   1  13 334.630 18.6264  -2
   3  -9  13 334.630 18.6264   1
  -7   2  13 -41.789 17.1004  -2
   4  -9  13 -41.789 17.1004   1
  -4  -7  13 33.7129 37.4937  -2
  -3  -8  13 33.7129 37.4937   1
  -5  -5  13 -22.885 33.7969  -2
  -2  -8  13 -22.885 33.7969   1
  -5  -4  13 325.831 21.6669  -2
  -1  -8  13 325.831 21.6669   1
  -5  -3  13 -7.7056 16.7025  -2
   0  -8  13 -7.7056 16.7025   1
  -6  -1  13 -15.631 33.5352  -2
   1  -8  13 -15.631 33.5352   1
  -6   0  13 63.9887 13.7172  -2
   2  -8  13 63.9887 13.7172   1
  -6   1  13 -11.262 14.2015  -2
   3  -8  13 -11.262 14.2015   1
  -7   3  13 -27.625 45.0903  -2
   4  -8  13 -27.625 45.0903   1
  -7   4  13 86.0204 13.5389  -2
   5  -8  13 86.0204 13.5389   1
  -3  -8  13 27.9710 17.6036  -2
  -4  -7  13 27.9710 17.6036   1
  -4  -6  13 -19.782 34.8187  -2
  -3  -7  13 -19.782 34.8187   1
  -4  -5  13 79.9935 16.1461  -2
  -2  -7  13 79.9935 16.1461   1
  -4  -4  13 -12.219 15.6588  -2
  -1  -7  13 -12.219 15.6588   1
  -5  -2  13 -1.2445 29.7182  -2
   0  -7  13 -1.2445 29.7182   1
  -5  -1  13 47.2447 13.6395  -2
   1  -7  13 47.2447 13.6395   1
  -5   0  13 -7.6690 12.3684  -2
   2  -7  13 -7.6690 12.3684   1
  -6   2  13 -18.665 19.2214  -2
   3  -7  13 -18.665 19.2214   1
  -6   3  13 460.867 21.4647  -2
   4  -7  13 460.867 21.4647   1
  -6   4  13 -1.1032 23.6874  -2
   5  -7  13 -1.1032 23.6874   1
   6  -7  13 -65.785 52.7887   1
  -2  -9  13 -7.3175 19.5335  -2
  -5  -6  13 -7.3175 19.5335   1
  -4  -6  13 -28.525 42.9646   1
  -3  -6  13 65.9948 14.9108  -2
  -3  -6  13 65.9948 14.9108   1
  -3  -5  13 -3.3841 15.5055  -2
  -2  -6  13 -3.3841 15.5055   1
  -4  -3  13 31.7923 29.6179  -2
  -1  -6  13 31.7923 29.6179   1
  -4  -2  13 439.545 22.4134  -2
   0  -6  13 439.545 22.4134   1
  -4  -1  13 8.13548 11.1055  -2
   1  -6  13 8.13548 11.1055   1
  -5   1  13 -4.6242 16.0534  -2
   2  -6  13 -4.6242 16.0534   1
  -5   2  13 522.437 16.6858  -2
   3  -6  13 522.437 16.6858   1
  -5   3  13 -1.0028 15.0968  -2
   4  -6  13 -1.0028 15.0968   1
  -6   5  13 -44.246 26.0162  -2
   5  -6  13 -44.246 26.0162   1
  -6   6  13 199.316 16.7265  -2
   6  -6  13 199.316 16.7265   1
  -5  -5  13 55.5915 48.8290   1
  -2  -7  13 144.414 21.7792  -2
  -4  -5  13 144.414 21.7792   1
  -3  -4  13 5.44793 28.5873  -2
  -2  -5  13 5.44793 28.5873   1
  -3  -3  13 292.065 17.8482  -2
  -1  -5  13 292.065 17.8482   1
  -3  -2  13 -15.739 13.5615  -2
   0  -5  13 -15.739 13.5615   1
  -4   0  13 -0.4587 14.2671  -2
   1  -5  13 -0.4587 14.2671   1
  -4   1  13 117.026 9.86971  -2
   2  -5  13 117.026 9.86971   1
  -4   2  13 -5.8953 12.6225  -2
   3  -5  13 -5.8953 12.6225   1
  -5   4  13 -29.360 21.2914  -2
   4  -5  13 -29.360 21.2914   1
  -5   5  13 9.01138 13.8999  -2
   5  -5  13 9.01138 13.8999   1
  -5   6  13 -17.521 18.3391  -2
   6  -5  13 -17.521 18.3391   1
  -6  -4  13 1.05815 31.0171   1
  -1  -8  13 161.658 23.2428  -2
  -5  -4  13 161.658 23.2428   1
  -1  -7  13 -18.284 16.3694  -2
  -4  -4  13 -18.284 16.3694   1
  -3  -4  13 -40.484 33.8300   1
  -2  -4  13 465.780 26.6487  -2
  -2  -4  13 465.780 26.6487   1
  -2  -3  13 -14.263 9.92903  -2
  -1  -4  13 -14.263 9.92903   1
  -3  -1  13 8.62032 13.2256  -2
   0  -4  13 8.62032 13.2256   1
  -3   0  13 57.2526 16.5426  -2
   1  -4  13 57.2526 16.5426   1
  -3   1  13 -9.9839 10.8789  -2
   2  -4  13 -9.9839 10.8789   1
  -4   3  13 2.13082 17.3929  -2
   3  -4  13 2.13082 17.3929   1
  -4   4  13 92.2589 13.5141  -2
   4  -4  13 92.2589 13.5141   1
  -4   5  13 -26.787 15.2213  -2
   5  -4  13 -26.787 15.2213   1
  -5   7  13 -22.142 26.4633  -2
   6  -4  13 -22.142 26.4633   1
   0  -9  13 72.7971 17.3565  -2
  -6  -3  13 72.7971 17.3565   1
   0  -8  13 -1.7098 14.9577  -2
  -5  -3  13 -1.7098 14.9577   1
  -1  -6  13 12.6982 14.3295  -2
  -4  -3  13 12.6982 14.3295   1
  -1  -5  13 140.600 16.5600  -2
  -3  -3  13 140.600 16.5600   1
  -1  -4  13 -1.1822 9.55282  -2
  -2  -3  13 -1.1822 9.55282   1
  -2  -2  13 -1.6295 11.3717  -2
  -1  -3  13 -1.6295 11.3717   1
  -2  -1  13 402.799 34.9838  -2
   0  -3  13 402.799 34.9838   1
  -2   0  13 -2.6632 7.79845  -2
   1  -3  13 -2.6632 7.79845   1
  -3   2  13 -9.6838 15.1627  -2
   2  -3  13 -9.6838 15.1627   1
  -3   3  13 1388.05 48.7764  -2
   3  -3  13 1388.05 48.7764   1
  -3   4  13 15.0663 18.5809  -2
   4  -3  13 15.0663 18.5809   1
  -4   6  13 -15.200 21.9907  -2
   5  -3  13 -15.200 21.9907   1
  -4   7  13 331.455 17.8774  -2
   6  -3  13 331.455 17.8774   1
   1 -10  13 47.5400 18.3196  -2
  -7  -2  13 47.5400 18.3196   1
   1  -9  13 4.76734 15.7090  -2
  -6  -2  13 4.76734 15.7090   1
  -5  -2  13 10.4001 23.9797   1
   0  -6  13 255.849 16.1716  -2
  -4  -2  13 255.849 16.1716   1
   0  -5  13 -4.8160 9.62305  -2
  -3  -2  13 -4.8160 9.62305   1
  -1  -3  13 -23.120 12.1912  -2
  -2  -2  13 -23.120 12.1912   1
  -1  -1  13 -20.337 12.6023  -2
   0  -2  13 -20.337 12.6023   1
  -2   1  13 10.6967 9.88513  -2
   1  -2  13 10.6967 9.88513   1
  -2   2  13 1655.19 40.8200  -2
   2  -2  13 1655.19 40.8200   1
  -2   3  13 14.5862 22.3984  -2
   3  -2  13 14.5862 22.3984   1
  -3   5  13 41.5400 19.3702  -2
   4  -2  13 41.5400 19.3702   1
  -3   6  13 449.611 29.1954  -2
   5  -2  13 449.611 29.1954   1
  -3   7  13 26.5767 28.8825  -2
   6  -2  13 26.5767 28.8825   1
   2 -10  13 -15.272 17.4821  -2
  -7  -1  13 -15.272 17.4821   1
  -6  -1  13 8.68146 25.7715   1
   1  -7  13 141.445 14.8855  -2
  -5  -1  13 141.445 14.8855   1
   1  -6  13 -7.8913 8.89649  -2
  -4  -1  13 -7.8913 8.89649   1
   0  -4  13 -1.5407 13.9489  -2
  -3  -1  13 -1.5407 13.9489   1
   0  -3  13 787.950 39.6142  -2
  -2  -1  13 787.950 39.6142   1
   0  -2  13 9.31868 12.8253  -2
  -1  -1  13 9.31868 12.8253   1
  -1   0  13 13.2492 9.96598  -2
   0  -1  13 13.2492 9.96598   1
  -1   1  13 754.991 29.5979  -2
   1  -1  13 754.991 29.5979   1
  -1   2  13 18.9599 11.0898  -2
   2  -1  13 18.9599 11.0898   1
  -2   4  13 -3.9969 16.2849  -2
   3  -1  13 -3.9969 16.2849   1
  -2   5  13 98.2723 15.2211  -2
   4  -1  13 98.2723 15.2211   1
  -2   6  13 -17.314 26.9700  -2
   5  -1  13 -17.314 26.9700   1
  -3   8  13 -19.924 30.0207  -2
   6  -1  13 -19.924 30.0207   1
  -7   0  13 -0.2730 9.13889   1
   2  -8  13 202.897 17.0777  -2
  -6   0  13 202.897 17.0777   1
   2  -7  13 -15.816 10.2426  -2
  -5   0  13 -15.816 10.2426   1
  -4   0  13 -23.012 19.1008   1
   1  -4  13 424.166 29.4657  -2
  -3   0  13 424.166 29.4657   1
   1  -3  13 3.72863 12.5491  -2
  -2   0  13 3.72863 12.5491   1
   0  -1  13 -11.351 9.61112  -2
  -1   0  13 -11.351 9.61112   1
   0   0  13 8.74163 5.74592  -2
   0   0  13 8.74163 5.74592   1
   0   1  13 6.59010 10.4506  -2
   1   0  13 6.59010 10.4506   1
  -1   3  13 -5.5111 10.1059  -2
   2   0  13 -5.5111 10.1059   1
  -1   4  13 221.214 21.1853  -2
   3   0  13 221.214 21.1853   1
  -1   5  13 5.16091 25.2567  -2
   4   0  13 5.16091 25.2567   1
  -2   7  13 -14.527 26.1521  -2
   5   0  13 -14.527 26.1521   1
  -2   8  13 347.842 28.8831  -2
   6   0  13 347.842 28.8831   1
   3  -9  13 75.5287 28.4288  -2
  -7   1  13 75.5287 28.4288   1
   3  -8  13 -6.3521 11.0106  -2
  -6   1  13 -6.3521 11.0106   1
  -5   1  13 6.49428 8.06504   1
   2  -5  13 48.6589 20.7450  -2
  -4   1  13 48.6589 20.7450   1
   2  -4  13 -11.736 12.0492  -2
  -3   1  13 -11.736 12.0492   1
   1  -2  13 4.31180 10.3635  -2
  -2   1  13 4.31180 10.3635   1
   1  -1  13 613.219 16.9697  -2
  -1   1  13 613.219 16.9697   1
   1   0  13 6.67907 8.94369  -2
   0   1  13 6.67907 8.94369   1
   0   2  13 -20.421 11.5520  -2
   1   1  13 -20.421 11.5520   1
   0   3  13 1465.08 63.0482  -2
   2   1  13 1465.08 63.0482   1
   0   4  13 -13.598 22.2227  -2
   3   1  13 -13.598 22.2227   1
  -1   6  13 -1.7233 25.7483  -2
   4   1  13 -1.7233 25.7483   1
  -1   7  13 511.430 32.9370  -2
   5   1  13 511.430 32.9370   1
   4  -9  13 -23.910 17.0409  -2
  -7   2  13 -23.910 17.0409   1
  -6   2  13 -10.633 8.85252   1
   3  -6  13 302.429 28.0409  -2
  -5   2  13 302.429 28.0409   1
   3  -5  13 7.53987 12.1764  -2
  -4   2  13 7.53987 12.1764   1
   2  -3  13 -6.1530 13.7570  -2
  -3   2  13 -6.1530 13.7570   1
   2  -2  13 1527.24 35.5818  -2
  -2   2  13 1527.24 35.5818   1
   2  -1  13 5.27041 9.61187  -2
  -1   2  13 5.27041 9.61187   1
   1   1  13 8.39860 9.74830  -2
   0   2  13 8.39860 9.74830   1
   1   2  13 584.503 19.9819  -2
   1   2  13 584.503 19.9819   1
   1   3  13 2.27013 10.0922  -2
   2   2  13 2.27013 10.0922   1
   0   5  13 -13.075 23.4124  -2
   3   2  13 -13.075 23.4124   1
   0   6  13 401.726 28.5569  -2
   4   2  13 401.726 28.5569   1
   0   7  13 -28.827 28.0277  -2
   5   2  13 -28.827 28.0277   1
  -7   3  13 -12.358 10.9911   1
   4  -7  13 405.390 33.2070  -2
  -6   3  13 405.390 33.2070   1
   4  -6  13 -25.196 26.4239  -2
  -5   3  13 -25.196 26.4239   1
   3  -4  13 -25.694 33.2524  -2
  -4   3  13 -25.694 33.2524   1
   3  -3  13 1201.99 32.4356  -2
  -3   3  13 1201.99 32.4356   1
   3  -2  13 11.7681 9.55508  -2
  -2   3  13 11.7681 9.55508   1
   2   0  13 5.74462 10.2746  -2
  -1   3  13 5.74462 10.2746   1
   2   1  13 995.810 25.1605  -2
   0   3  13 995.810 25.1605   1
   2   2  13 -2.7065 10.1142  -2
   1   3  13 -2.7065 10.1142   1
   1   4  13 12.0269 14.1978  -2
   2   3  13 12.0269 14.1978   1
   1   5  13 221.970 22.4931  -2
   3   3  13 221.970 22.4931   1
   1   6  13 36.2889 27.5115  -2
   4   3  13 36.2889 27.5115   1
   5  -8  13 270.559 31.5172  -2
  -7   4  13 270.559 31.5172   1
   5  -7  13 -54.433 28.7653  -2
  -6   4  13 -54.433 28.7653   1
  -5   4  13 22.1456 29.3268   1
   4  -4  13 100.416 12.1893  -2
  -4   4  13 100.416 12.1893   1
   4  -3  13 -7.7852 14.7437  -2
  -3   4  13 -7.7852 14.7437   1
   3  -1  13 0.89468 10.9380  -2
  -2   4  13 0.89468 10.9380   1
   3   0  13 130.402 8.77539  -2
  -1   4  13 130.402 8.77539   1
   3   1  13 -9.5965 9.47573  -2
   0   4  13 -9.5965 9.47573   1
   2   3  13 -16.071 13.6683  -2
   1   4  13 -16.071 13.6683   1
   2   4  13 385.770 27.5867  -2
   2   4  13 385.770 27.5867   1
   2   5  13 -15.905 25.6954  -2
   3   4  13 -15.905 25.6954   1
   1   7  13 13.5080 27.7148  -2
   4   4  13 13.5080 27.7148   1
  -7   5  13 -5.8188 12.8003   1
  -6   5  13 18.3395 11.5547   1
   5  -5  13 5.53220 19.2703  -2
  -5   5  13 5.53220 19.2703   1
   5  -4  13 3.45505 26.8809  -2
  -4   5  13 3.45505 26.8809   1
   4  -2  13 10.5130 20.2597  -2
  -3   5  13 10.5130 20.2597   1
   4  -1  13 134.175 14.7707  -2
  -2   5  13 134.175 14.7707   1
   4   0  13 4.15614 9.77353  -2
  -1   5  13 4.15614 9.77353   1
   3   2  13 1.91152 11.3647  -2
   0   5  13 1.91152 11.3647   1
   3   3  13 388.184 19.4728  -2
   1   5  13 388.184 19.4728   1
   3   4  13 -1.6134 15.4755  -2
   2   5  13 -1.6134 15.4755   1
   2   6  13 -24.023 27.3379  -2
   3   5  13 -24.023 27.3379   1
   6  -6  13 193.582 25.7633  -2
  -6   6  13 193.582 25.7633   1
   6  -5  13 -26.007 28.8768  -2
  -5   6  13 -26.007 28.8768   1
   5  -3  13 40.8865 23.1364  -2
  -4   6  13 40.8865 23.1364   1
   5  -2  13 529.881 34.6118  -2
  -3   6  13 529.881 34.6118   1
   5  -1  13 47.8470 16.6300  -2
  -2   6  13 47.8470 16.6300   1
   4   1  13 -6.6175 11.2865  -2
  -1   6  13 -6.6175 11.2865   1
   4   2  13 488.930 21.3643  -2
   0   6  13 488.930 21.3643   1
   4   3  13 4.10189 17.9286  -2
   1   6  13 4.10189 17.9286   1
   3   5  13 31.2976 20.2713  -2
   2   6  13 31.2976 20.2713   1
  -5   7  13 -50.785 30.4502   1
   6  -3  13 325.767 28.9827  -2
  -4   7  13 325.767 28.9827   1
   6  -2  13 25.1205 17.6506  -2
  -3   7  13 25.1205 17.6506   1
   5   0  13 15.4825 13.8345  -2
  -2   7  13 15.4825 13.8345   1
   5   1  13 327.970 25.5242  -2
  -1   7  13 327.970 25.5242   1
   5   2  13 17.6343 24.3241  -2
   0   7  13 17.6343 24.3241   1
   4   4  13 -15.559 18.9127  -2
   1   7  13 -15.559 18.9127   1
  -4   8  13 -3.2879 32.7255   1
   6   0  13 247.147 24.8072  -2
  -2   8  13 247.147 24.8072   1
   6   1  13 20.4514 23.8978  -2
  -1   8  13 20.4514 23.8978   1
  -6  -4  14 0.07149 36.1490  -2
  -1  -9  14 0.07149 36.1490   1
  -6  -3  14 21.0110 15.7866  -2
   0  -9  14 21.0110 15.7866   1
  -6  -2  14 -10.487 18.9384  -2
   1  -9  14 -10.487 18.9384   1
  -7   0  14 -1.1363 42.9143  -2
   2  -9  14 -1.1363 42.9143   1
  -7   1  14 107.200 20.0433  -2
   3  -9  14 107.200 20.0433   1
  -5  -5  14 11.9582 36.0575  -2
  -2  -8  14 11.9582 36.0575   1
  -5  -4  14 95.9002 17.4153  -2
  -1  -8  14 95.9002 17.4153   1
  -5  -3  14 2.76262 17.3581  -2
   0  -8  14 2.76262 17.3581   1
  -6  -1  14 -25.414 34.2379  -2
   1  -8  14 -25.414 34.2379   1
  -6   0  14 127.785 18.7566  -2
   2  -8  14 127.785 18.7566   1
  -6   1  14 -4.6302 19.2756  -2
   3  -8  14 -4.6302 19.2756   1
   4  -8  14 -21.204 16.2294   1
  -3  -8  14 12.7572 20.2738  -2
  -4  -7  14 12.7572 20.2738   1
  -3  -7  14 3.63099 22.4377  -2
  -3  -7  14 3.63099 22.4377   1
  -4  -6  14 16.0180 36.3794  -2
  -3  -7  14 16.0180 36.3794   1
  -4  -5  14 356.556 23.1408  -2
  -2  -7  14 356.556 23.1408   1
  -4  -4  14 7.86968 16.3851  -2
  -1  -7  14 7.86968 16.3851   1
  -5  -2  14 23.4074 32.1211  -2
   0  -7  14 23.4074 32.1211   1
  -5  -1  14 273.263 20.4311  -2
   1  -7  14 273.263 20.4311   1
  -5   0  14 -17.811 12.9413  -2
   2  -7  14 -17.811 12.9413   1
  -6   2  14 -18.983 19.6085  -2
   3  -7  14 -18.983 19.6085   1
  -6   3  14 77.8843 12.1889  -2
   4  -7  14 77.8843 12.1889   1
  -6   4  14 -22.137 17.2809  -2
   5  -7  14 -22.137 17.2809   1
  -4  -6  14 35.1576 47.7719   1
  -3  -6  14 151.472 17.7651  -2
  -3  -6  14 151.472 17.7651   1
  -3  -5  14 -5.7060 16.7367  -2
  -2  -6  14 -5.7060 16.7367   1
  -4  -3  14 26.9611 30.5629  -2
  -1  -6  14 26.9611 30.5629   1
  -4  -2  14 171.579 16.9100  -2
   0  -6  14 171.579 16.9100   1
  -4  -1  14 -14.956 15.7045  -2
   1  -6  14 -14.956 15.7045   1
  -5   1  14 -12.967 16.9148  -2
   2  -6  14 -12.967 16.9148   1
  -5   2  14 70.0796 10.0283  -2
   3  -6  14 70.0796 10.0283   1
  -5   3  14 -0.7776 15.0447  -2
   4  -6  14 -0.7776 15.0447   1
  -6   5  14 -12.763 26.5985  -2
   5  -6  14 -12.763 26.5985   1
  -5  -5  14 61.0663 48.9077   1
  -2  -7  14 159.671 22.7340  -2
  -4  -5  14 159.671 22.7340   1
  -2  -6  14 15.3278 17.7198  -2
  -3  -5  14 15.3278 17.7198   1
  -3  -4  14 6.86301 29.6596  -2
  -2  -5  14 6.86301 29.6596   1
  -3  -3  14 160.065 18.7458  -2
  -1  -5  14 160.065 18.7458   1
  -3  -2  14 5.04130 10.5244  -2
   0  -5  14 5.04130 10.5244   1
  -4   0  14 -14.831 18.6296  -2
   1  -5  14 -14.831 18.6296   1
  -4   1  14 615.925 20.3817  -2
   2  -5  14 615.925 20.3817   1
  -4   2  14 7.05444 12.7258  -2
   3  -5  14 7.05444 12.7258   1
  -5   4  14 -25.341 22.2203  -2
   4  -5  14 -25.341 22.2203   1
  -5   5  14 407.636 20.4207  -2
   5  -5  14 407.636 20.4207   1
  -5   6  14 5.92484 20.6049  -2
   6  -5  14 5.92484 20.6049   1
  -6  -4  14 -5.2095 50.4612   1
  -1  -8  14 52.2487 20.0398  -2
  -5  -4  14 52.2487 20.0398   1
  -1  -7  14 4.21249 16.7073  -2
  -4  -4  14 4.21249 16.7073   1
  -2  -5  14 -5.6846 13.8283  -2
  -3  -4  14 -5.6846 13.8283   1
  -2  -4  14 173.916 18.6830  -2
  -2  -4  14 173.916 18.6830   1
  -2  -3  14 -20.206 10.4382  -2
  -1  -4  14 -20.206 10.4382   1
  -3  -1  14 8.05177 10.0926  -2
   0  -4  14 8.05177 10.0926   1
  -3   0  14 1114.31 70.7997  -2
   1  -4  14 1114.31 70.7997   1
  -3   1  14 -11.165 11.2087  -2
   2  -4  14 -11.165 11.2087   1
  -4   3  14 -23.199 18.3124  -2
   3  -4  14 -23.199 18.3124   1
  -4   4  14 238.093 19.1996  -2
   4  -4  14 238.093 19.1996   1
  -4   5  14 -15.911 22.6794  -2
   5  -4  14 -15.911 22.6794   1
   6  -4  14 -43.267 13.0871   1
   0  -9  14 62.2184 29.2527  -2
  -6  -3  14 62.2184 29.2527   1
   0  -8  14 -40.451 17.1442  -2
  -5  -3  14 -40.451 17.1442   1
  -1  -6  14 -12.458 14.4345  -2
  -4  -3  14 -12.458 14.4345   1
  -1  -5  14 248.308 19.9048  -2
  -3  -3  14 248.308 19.9048   1
  -1  -4  14 8.72797 10.2906  -2
  -2  -3  14 8.72797 10.2906   1
  -2  -2  14 16.5199 13.5226  -2
  -1  -3  14 16.5199 13.5226   1
  -2  -1  14 874.640 59.1954  -2
   0  -3  14 874.640 59.1954   1
  -2   0  14 -8.4403 8.38044  -2
   1  -3  14 -8.4403 8.38044   1
  -3   2  14 2.68104 16.5433  -2
   2  -3  14 2.68104 16.5433   1
  -3   3  14 225.764 17.2786  -2
   3  -3  14 225.764 17.2786   1
  -3   4  14 6.56098 19.5891  -2
   4  -3  14 6.56098 19.5891   1
  -4   6  14 -13.557 23.3011  -2
   5  -3  14 -13.557 23.3011   1
  -4   7  14 71.4641 17.5003  -2
   6  -3  14 71.4641 17.5003   1
   1  -9  14 -5.8426 15.1263  -2
  -6  -2  14 -5.8426 15.1263   1
  -5  -2  14 37.4046 24.9649   1
   0  -6  14 280.511 21.5120  -2
  -4  -2  14 280.511 21.5120   1
   0  -5  14 -7.7044 9.65306  -2
  -3  -2  14 -7.7044 9.65306   1
  -1  -3  14 12.6408 13.5995  -2
  -2  -2  14 12.6408 13.5995   1
  -1  -1  14 4.64270 10.9606  -2
   0  -2  14 4.64270 10.9606   1
  -2   1  14 6.11805 10.4495  -2
   1  -2  14 6.11805 10.4495   1
  -2   2  14 128.548 9.65310  -2
   2  -2  14 128.548 9.65310   1
  -2   3  14 -16.970 16.2735  -2
   3  -2  14 -16.970 16.2735   1
  -3   5  14 31.6364 20.6817  -2
   4  -2  14 31.6364 20.6817   1
  -3   6  14 288.715 25.1405  -2
   5  -2  14 288.715 25.1405   1
  -3   7  14 9.70004 30.0185  -2
   6  -2  14 9.70004 30.0185   1
  -7  -1  14 -0.7811 9.98159   1
  -6  -1  14 12.5750 26.9600   1
   1  -7  14 213.697 16.0894  -2
  -5  -1  14 213.697 16.0894   1
   1  -6  14 5.83793 9.28922  -2
  -4  -1  14 5.83793 9.28922   1
   0  -4  14 -6.5445 14.1513  -2
  -3  -1  14 -6.5445 14.1513   1
   0  -3  14 458.811 21.6235  -2
  -2  -1  14 458.811 21.6235   1
   0  -2  14 18.2652 13.6536  -2
  -1  -1  14 18.2652 13.6536   1
  -1   0  14 5.71621 11.3032  -2
   0  -1  14 5.71621 11.3032   1
  -1   1  14 504.645 16.8074  -2
   1  -1  14 504.645 16.8074   1
  -1   2  14 -3.0934 10.0312  -2
   2  -1  14 -3.0934 10.0312   1
  -2   4  14 16.8854 17.4135  -2
   3  -1  14 16.8854 17.4135   1
  -2   5  14 556.995 32.7185  -2
   4  -1  14 556.995 32.7185   1
  -2   6  14 -25.390 27.5110  -2
   5  -1  14 -25.390 27.5110   1
   6  -1  14 3.76150 13.6604   1
  -7   0  14 -1.4466 9.79110   1
   2  -8  14 57.6911 14.2638  -2
  -6   0  14 57.6911 14.2638   1
   2  -7  14 -20.610 9.60796  -2
  -5   0  14 -20.610 9.60796   1
   1  -5  14 1.92289 15.2795  -2
  -4   0  14 1.92289 15.2795   1
   1  -4  14 580.348 35.2701  -2
  -3   0  14 580.348 35.2701   1
   1  -3  14 -2.9952 11.3166  -2
  -2   0  14 -2.9952 11.3166   1
   0  -1  14 -10.233 10.9059  -2
  -1   0  14 -10.233 10.9059   1
   0   0  14 2451.79 63.8478  -2
   0   0  14 2451.79 63.8478   1
   0   1  14 -5.6136 10.0473  -2
   1   0  14 -5.6136 10.0473   1
  -1   3  14 1.26699 11.1819  -2
   2   0  14 1.26699 11.1819   1
  -1   4  14 761.786 39.9584  -2
   3   0  14 761.786 39.9584   1
  -1   5  14 -35.764 26.5887  -2
   4   0  14 -35.764 26.5887   1
  -2   7  14 18.6108 29.5542  -2
   5   0  14 18.6108 29.5542   1
   3  -9  14 201.687 18.2555  -2
  -7   1  14 201.687 18.2555   1
   3  -8  14 8.18754 10.8010  -2
  -6   1  14 8.18754 10.8010   1
  -5   1  14 -20.196 7.83961   1
   2  -5  14 647.849 23.1493  -2
  -4   1  14 647.849 23.1493   1
   2  -4  14 12.6932 12.6623  -2
  -3   1  14 12.6932 12.6623   1
   1  -2  14 7.56048 11.4834  -2
  -2   1  14 7.56048 11.4834   1
   1  -1  14 405.849 13.6174  -2
  -1   1  14 405.849 13.6174   1
   1   0  14 3.96062 10.7330  -2
   0   1  14 3.96062 10.7330   1
   0   2  14 -3.6554 11.2464  -2
   1   1  14 -3.6554 11.2464   1
   0   3  14 358.883 15.9165  -2
   2   1  14 358.883 15.9165   1
   0   4  14 22.3392 23.9609  -2
   3   1  14 22.3392 23.9609   1
  -1   6  14 -3.0517 26.7197  -2
   4   1  14 -3.0517 26.7197   1
  -1   7  14 250.575 24.0047  -2
   5   1  14 250.575 24.0047   1
  -7   2  14 4.78532 27.7369   1
  -6   2  14 -18.607 9.12446   1
   3  -6  14 220.949 14.1611  -2
  -5   2  14 220.949 14.1611   1
   3  -5  14 -7.0352 13.5181  -2
  -4   2  14 -7.0352 13.5181   1
   2  -3  14 -1.4302 12.0292  -2
  -3   2  14 -1.4302 12.0292   1
   2  -2  14 119.937 8.67074  -2
  -2   2  14 119.937 8.67074   1
   2  -1  14 -5.7754 10.6135  -2
  -1   2  14 -5.7754 10.6135   1
   1   1  14 2.47461 12.5208  -2
   0   2  14 2.47461 12.5208   1
   1   2  14 146.882 16.5154  -2
   1   2  14 146.882 16.5154   1
   1   3  14 -22.800 13.1592  -2
   2   2  14 -22.800 13.1592   1
   0   5  14 -11.975 25.6415  -2
   3   2  14 -11.975 25.6415   1
   0   6  14 290.094 26.1742  -2
   4   2  14 290.094 26.1742   1
   0   7  14 19.5654 30.5938  -2
   5   2  14 19.5654 30.5938   1
  -7   3  14 -9.5910 10.3330   1
   4  -7  14 58.8100 24.2779  -2
  -6   3  14 58.8100 24.2779   1
   4  -6  14 -32.054 27.4937  -2
  -5   3  14 -32.054 27.4937   1
  -4   3  14 -7.1504 9.04291   1
   3  -3  14 183.945 9.94399  -2
  -3   3  14 183.945 9.94399   1
   3  -2  14 11.7838 10.0949  -2
  -2   3  14 11.7838 10.0949   1
   2   0  14 7.15092 11.4725  -2
  -1   3  14 7.15092 11.4725   1
   2   1  14 515.600 29.2060  -2
   0   3  14 515.600 29.2060   1
   2   2  14 -3.2226 11.4303  -2
   1   3  14 -3.2226 11.4303   1
   1   4  14 15.4114 15.3290  -2
   2   3  14 15.4114 15.3290   1
   1   5  14 344.465 26.9846  -2
   3   3  14 344.465 26.9846   1
   1   6  14 20.8167 29.5013  -2
   4   3  14 20.8167 29.5013   1
   5  -7  14 -43.138 29.9789  -2
  -6   4  14 -43.138 29.9789   1
  -5   4  14 -0.3937 28.7016   1
   4  -4  14 188.812 24.7860  -2
  -4   4  14 188.812 24.7860   1
   4  -3  14 3.06680 15.4944  -2
  -3   4  14 3.06680 15.4944   1
  -2   4  14 10.4017 27.6434   1
   3   0  14 726.504 36.7525  -2
  -1   4  14 726.504 36.7525   1
   3   1  14 -0.1148 11.1133  -2
   0   4  14 -0.1148 11.1133   1
   2   3  14 1.24715 15.3862  -2
   1   4  14 1.24715 15.3862   1
   2   4  14 386.185 28.5774  -2
   2   4  14 386.185 28.5774   1
   2   5  14 -13.436 29.6243  -2
   3   4  14 -13.436 29.6243   1
  -6   5  14 -20.352 12.7972   1
   5  -5  14 407.894 32.2342  -2
  -5   5  14 407.894 32.2342   1
   5  -4  14 -0.4344 27.5474  -2
  -4   5  14 -0.4344 27.5474   1
   4  -2  14 -15.353 21.1593  -2
  -3   5  14 -15.353 21.1593   1
   4  -1  14 405.848 19.8436  -2
  -2   5  14 405.848 19.8436   1
   4   0  14 -8.6278 10.8049  -2
  -1   5  14 -8.6278 10.8049   1
   3   2  14 1.23946 12.3797  -2
   0   5  14 1.23946 12.3797   1
   3   3  14 190.617 15.3981  -2
   1   5  14 190.617 15.3981   1
   3   4  14 25.0982 20.5344  -2
   2   5  14 25.0982 20.5344   1
   6  -5  14 -39.173 29.4976  -2
  -5   6  14 -39.173 29.4976   1
   5  -3  14 -3.6257 24.4080  -2
  -4   6  14 -3.6257 24.4080   1
   5  -2  14 202.071 23.8228  -2
  -3   6  14 202.071 23.8228   1
   5  -1  14 6.10712 22.0713  -2
  -2   6  14 6.10712 22.0713   1
   4   1  14 10.9635 12.4428  -2
  -1   6  14 10.9635 12.4428   1
   4   2  14 281.799 17.6558  -2
   0   6  14 281.799 17.6558   1
   4   3  14 -17.961 18.9321  -2
   1   6  14 -17.961 18.9321   1
   6  -3  14 138.932 23.9587  -2
  -4   7  14 138.932 23.9587   1
   6  -2  14 11.3724 27.4251  -2
  -3   7  14 11.3724 27.4251   1
   5   0  14 29.3781 14.9204  -2
  -2   7  14 29.3781 14.9204   1
   5   1  14 425.917 29.5975  -2
  -1   7  14 425.917 29.5975   1
   5   2  14 13.8179 25.6342  -2
   0   7  14 13.8179 25.6342   1
   0  -9  15 156.716 59.7519   1
  -6  -2  15 12.3930 22.6518  -2
   1  -9  15 12.3930 22.6518   1
   2  -9  15 -27.917 55.0017   1
  -2  -8  15 0.78191 19.1853   1
  -5  -4  15 209.680 20.8667  -2
  -1  -8  15 209.680 20.8667   1
  -5  -3  15 14.8823 18.0679  -2
   0  -8  15 14.8823 18.0679   1
  -6  -1  15 -35.484 34.6040  -2
   1  -8  15 -35.484 34.6040   1
  -6   0  15 74.0648 17.6096  -2
   2  -8  15 74.0648 17.6096   1
  -6   1  15 -9.6972 19.5668  -2
   3  -8  15 -9.6972 19.5668   1
  -4  -6  15 34.7679 38.3452  -2
  -3  -7  15 34.7679 38.3452   1
  -4  -5  15 93.2464 26.8094  -2
  -2  -7  15 93.2464 26.8094   1
  -4  -4  15 0.93050 16.9505  -2
  -1  -7  15 0.93050 16.9505   1
  -5  -2  15 -0.4185 34.0818  -2
   0  -7  15 -0.4185 34.0818   1
  -5  -1  15 158.915 17.8896  -2
   1  -7  15 158.915 17.8896   1
  -5   0  15 -14.168 17.2581  -2
   2  -7  15 -14.168 17.2581   1
  -6   2  15 -10.881 20.7559  -2
   3  -7  15 -10.881 20.7559   1
  -6   3  15 165.077 14.4873  -2
   4  -7  15 165.077 14.4873   1
  -3  -7  15 6.26985 36.0107  -2
  -4  -6  15 6.26985 36.0107   1
  -3  -6  15 25.3801 15.5135  -2
  -3  -6  15 25.3801 15.5135   1
  -3  -5  15 -23.779 16.8729  -2
  -2  -6  15 -23.779 16.8729   1
  -4  -3  15 -0.3915 32.6096  -2
  -1  -6  15 -0.3915 32.6096   1
  -4  -2  15 516.768 25.3887  -2
   0  -6  15 516.768 25.3887   1
  -4  -1  15 -20.277 15.9198  -2
   1  -6  15 -20.277 15.9198   1
  -5   1  15 2.73383 17.2010  -2
   2  -6  15 2.73383 17.2010   1
  -5   2  15 429.612 18.1007  -2
   3  -6  15 429.612 18.1007   1
  -5   3  15 -15.059 15.3376  -2
   4  -6  15 -15.059 15.3376   1
   5  -6  15 -18.484 15.1296   1
  -2  -7  15 176.790 22.9880  -2
  -4  -5  15 176.790 22.9880   1
  -2  -6  15 9.00849 17.4957  -2
  -3  -5  15 9.00849 17.4957   1
  -3  -4  15 2.81620 33.3677  -2
  -2  -5  15 2.81620 33.3677   1
  -3  -3  15 334.081 19.9608  -2
  -1  -5  15 334.081 19.9608   1
  -3  -2  15 -7.2621 11.1744  -2
   0  -5  15 -7.2621 11.1744   1
  -4   0  15 -9.6635 16.2469  -2
   1  -5  15 -9.6635 16.2469   1
  -4   1  15 205.390 12.6487  -2
   2  -5  15 205.390 12.6487   1
  -4   2  15 7.37663 13.4717  -2
   3  -5  15 7.37663 13.4717   1
  -5   4  15 -7.8670 22.4673  -2
   4  -5  15 -7.8670 22.4673   1
  -5   5  15 24.3323 11.6101  -2
   5  -5  15 24.3323 11.6101   1
  -1  -8  15 247.801 23.9661  -2
  -5  -4  15 247.801 23.9661   1
  -1  -7  15 -6.4184 16.7182  -2
  -4  -4  15 -6.4184 16.7182   1
  -2  -5  15 -15.374 14.4414  -2
  -3  -4  15 -15.374 14.4414   1
  -2  -4  15 302.778 23.2669  -2
  -2  -4  15 302.778 23.2669   1
  -2  -3  15 0.66642 10.9015  -2
  -1  -4  15 0.66642 10.9015   1
  -3  -1  15 -14.700 10.5632  -2
   0  -4  15 -14.700 10.5632   1
  -3   0  15 82.1139 23.2418  -2
   1  -4  15 82.1139 23.2418   1
  -3   1  15 -8.5878 26.5655  -2
   2  -4  15 -8.5878 26.5655   1
  -4   3  15 -11.351 18.9540  -2
   3  -4  15 -11.351 18.9540   1
  -4   4  15 41.6793 13.8836  -2
   4  -4  15 41.6793 13.8836   1
  -4   5  15 -45.457 40.4818  -2
   5  -4  15 -45.457 40.4818   1
  -4  -3  15 -4.2759 35.2860   1
  -1  -5  15 161.609 18.3351  -2
  -3  -3  15 161.609 18.3351   1
  -1  -4  15 -8.7594 10.5195  -2
  -2  -3  15 -8.7594 10.5195   1
  -2  -2  15 -6.1790 13.8517  -2
  -1  -3  15 -6.1790 13.8517   1
  -2  -1  15 610.210 48.4080  -2
   0  -3  15 610.210 48.4080   1
  -2   0  15 5.19879 14.2664  -2
   1  -3  15 5.19879 14.2664   1
  -3   2  15 -3.1239 26.8118  -2
   2  -3  15 -3.1239 26.8118   1
  -3   3  15 751.627 31.7578  -2
   3  -3  15 751.627 31.7578   1
  -3   4  15 -3.9534 21.0237  -2
   4  -3  15 -3.9534 21.0237   1
  -4   6  15 -26.709 25.1028  -2
   5  -3  15 -26.709 25.1028   1
   1  -9  15 -2.6344 15.4445  -2
  -6  -2  15 -2.6344 15.4445   1
  -5  -2  15 4.53559 28.2787   1
   0  -6  15 278.260 20.7602  -2
  -4  -2  15 278.260 20.7602   1
   0  -5  15 0.83998 10.1026  -2
  -3  -2  15 0.83998 10.1026   1
  -1  -3  15 21.5741 14.5312  -2
  -2  -2  15 21.5741 14.5312   1
  -1  -1  15 -6.6997 12.0154  -2
   0  -2  15 -6.6997 12.0154   1
  -2   1  15 1.27015 13.4983  -2
   1  -2  15 1.27015 13.4983   1
  -2   2  15 683.008 29.5251  -2
   2  -2  15 683.008 29.5251   1
  -2   3  15 19.6340 17.9146  -2
   3  -2  15 19.6340 17.9146   1
  -3   5  15 4.78986 21.8887  -2
   4  -2  15 4.78986 21.8887   1
  -3   6  15 738.111 41.1654  -2
   5  -2  15 738.111 41.1654   1
  -6  -1  15 -6.7034 25.8556   1
   1  -7  15 166.006 15.4231  -2
  -5  -1  15 166.006 15.4231   1
   1  -6  15 -13.508 10.4079  -2
  -4  -1  15 -13.508 10.4079   1
   0  -4  15 -1.6327 14.9435  -2
  -3  -1  15 -1.6327 14.9435   1
   0  -2  15 -5.4786 11.4772  -2
  -1  -1  15 -5.4786 11.4772   1
  -1   0  15 -17.358 11.3959  -2
   0  -1  15 -17.358 11.3959   1
  -1   1  15 350.778 14.2965  -2
   1  -1  15 350.778 14.2965   1
  -1   2  15 -6.8825 10.7070  -2
   2  -1  15 -6.8825 10.7070   1
  -2   4  15 24.7122 18.6184  -2
   3  -1  15 24.7122 18.6184   1
  -2   5  15 214.896 22.2453  -2
   4  -1  15 214.896 22.2453   1
  -2   6  15 14.1069 30.9716  -2
   5  -1  15 14.1069 30.9716   1
   2  -8  15 194.975 31.9324  -2
  -6   0  15 194.975 31.9324   1
   2  -7  15 -1.4933 10.0817  -2
  -5   0  15 -1.4933 10.0817   1
   1  -5  15 -11.351 15.6638  -2
  -4   0  15 -11.351 15.6638   1
   1  -4  15 121.709 12.3510  -2
  -3   0  15 121.709 12.3510   1
   1  -3  15 -19.177 11.2625  -2
  -2   0  15 -19.177 11.2625   1
   0  -1  15 0.25471 11.7999  -2
  -1   0  15 0.25471 11.7999   1
   0   0  15 6.43038 6.71678  -2
   0   0  15 6.43038 6.71678   1
   0   1  15 -3.3447 12.5469  -2
   1   0  15 -3.3447 12.5469   1
  -1   3  15 3.18955 15.8945  -2
   2   0  15 3.18955 15.8945   1
  -1   4  15 170.464 19.7475  -2
   3   0  15 170.464 19.7475   1
  -1   5  15 18.5699 27.7800  -2
   4   0  15 18.5699 27.7800   1
   5   0  15 4.97124 14.3665   1
   3  -8  15 -25.983 13.8459  -2
  -6   1  15 -25.983 13.8459   1
  -5   1  15 -2.5226 8.92053   1
   2  -5  15 60.3473 22.7354  -2
  -4   1  15 60.3473 22.7354   1
   2  -4  15 13.5276 12.9682  -2
  -3   1  15 13.5276 12.9682   1
   1  -2  15 -17.836 12.2875  -2
  -2   1  15 -17.836 12.2875   1
   1  -1  15 240.350 15.0508  -2
  -1   1  15 240.350 15.0508   1
   1   0  15 -11.041 11.8602  -2
   0   1  15 -11.041 11.8602   1
   0   2  15 -3.0065 16.4215  -2
   1   1  15 -3.0065 16.4215   1
   0   3  15 660.486 36.8054  -2
   2   1  15 660.486 36.8054   1
   0   4  15 -5.5478 25.5654  -2
   3   1  15 -5.5478 25.5654   1
  -1   6  15 23.1803 27.8417  -2
   4   1  15 23.1803 27.8417   1
  -6   2  15 -3.3307 9.36517   1
   3  -6  15 267.403 29.1638  -2
  -5   2  15 267.403 29.1638   1
   3  -5  15 -10.265 14.5939  -2
  -4   2  15 -10.265 14.5939   1
   2  -3  15 -5.8829 12.7201  -2
  -3   2  15 -5.8829 12.7201   1
   2  -2  15 670.411 25.7191  -2
  -2   2  15 670.411 25.7191   1
   2  -1  15 -15.754 11.3156  -2
  -1   2  15 -15.754 11.3156   1
   1   1  15 -14.808 20.6037  -2
   0   2  15 -14.808 20.6037   1
   1   2  15 355.413 16.8274  -2
   1   2  15 355.413 16.8274   1
   1   3  15 0.10894 14.5654  -2
   2   2  15 0.10894 14.5654   1
   0   5  15 11.0852 27.4427  -2
   3   2  15 11.0852 27.4427   1
   0   6  15 269.095 27.2568  -2
   4   2  15 269.095 27.2568   1
   4  -7  15 165.378 28.1487  -2
  -6   3  15 165.378 28.1487   1
   4  -6  15 -51.719 28.7873  -2
  -5   3  15 -51.719 28.7873   1
  -4   3  15 -2.1523 9.62910   1
   3  -3  15 691.018 26.9164  -2
  -3   3  15 691.018 26.9164   1
   3  -2  15 -12.868 11.8285  -2
  -2   3  15 -12.868 11.8285   1
   2   0  15 0.78253 12.4229  -2
  -1   3  15 0.78253 12.4229   1
   2   1  15 441.910 18.1801  -2
   0   3  15 441.910 18.1801   1
   2   2  15 -6.1805 14.5501  -2
   1   3  15 -6.1805 14.5501   1
   1   4  15 23.0781 16.6580  -2
   2   3  15 23.0781 16.6580   1
   1   5  15 191.729 21.9731  -2
   3   3  15 191.729 21.9731   1
  -6   4  15 -21.629 34.7255   1
  -5   4  15 38.4318 32.9100   1
   4  -4  15 54.8033 13.1867  -2
  -4   4  15 54.8033 13.1867   1
   4  -3  15 -6.6463 16.1917  -2
  -3   4  15 -6.6463 16.1917   1
   3  -1  15 -8.4875 14.5208  -2
  -2   4  15 -8.4875 14.5208   1
   3   0  15 106.450 15.3365  -2
  -1   4  15 106.450 15.3365   1
   3   1  15 -0.0371 14.4979  -2
   0   4  15 -0.0371 14.4979   1
   2   3  15 -22.696 16.3470  -2
   1   4  15 -22.696 16.3470   1
   2   4  15 322.395 28.0700  -2
   2   4  15 322.395 28.0700   1
   5  -5  15 6.12759 21.8603  -2
  -5   5  15 6.12759 21.8603   1
   4  -2  15 -53.939 22.3648  -2
  -3   5  15 -53.939 22.3648   1
   4  -1  15 320.659 18.9107  -2
  -2   5  15 320.659 18.9107   1
   4   0  15 -9.6004 15.7952  -2
  -1   5  15 -9.6004 15.7952   1
   3   2  15 1.40714 13.4026  -2
   0   5  15 1.40714 13.4026   1
   3   3  15 255.600 17.9941  -2
   1   5  15 255.600 17.9941   1
   3   4  15 44.5237 22.1491  -2
   2   5  15 44.5237 22.1491   1
   5  -3  15 -5.9631 24.5631  -2
  -4   6  15 -5.9631 24.5631   1
   5  -2  15 815.647 46.7478  -2
  -3   6  15 815.647 46.7478   1
   5  -1  15 -2.4660 17.5964  -2
  -2   6  15 -2.4660 17.5964   1
   4   1  15 14.2756 12.9870  -2
  -1   6  15 14.2756 12.9870   1
   4   2  15 350.812 19.8611  -2
   0   6  15 350.812 19.8611   1
  -5  -3  16 -7.4860 18.2275  -2
   0  -8  16 -7.4860 18.2275   1
   1  -8  16 40.7853 21.7487   1
   2  -8  16 395.513 64.4833   1
  -4  -5  16 264.696 21.4726  -2
  -2  -7  16 264.696 21.4726   1
  -4  -4  16 15.5441 17.6374  -2
  -1  -7  16 15.5441 17.6374   1
  -5  -2  16 -24.005 35.1577  -2
   0  -7  16 -24.005 35.1577   1
  -5  -1  16 415.624 24.0208  -2
   1  -7  16 415.624 24.0208   1
  -5   0  16 6.28046 17.7173  -2
   2  -7  16 6.28046 17.7173   1
   3  -7  16 -6.8779 11.2997   1
  -3  -6  16 129.383 19.1922  -2
  -3  -6  16 129.383 19.1922   1
  -3  -5  16 0.70727 16.8393  -2
  -2  -6  16 0.70727 16.8393   1
  -4  -3  16 41.2035 34.3306  -2
  -1  -6  16 41.2035 34.3306   1
  -4  -2  16 155.898 18.0870  -2
   0  -6  16 155.898 18.0870   1
  -4  -1  16 -6.2752 16.1529  -2
   1  -6  16 -6.2752 16.1529   1
  -5   1  16 20.7076 18.9293  -2
   2  -6  16 20.7076 18.9293   1
  -5   2  16 31.6646 27.4218  -2
   3  -6  16 31.6646 27.4218   1
  -5   3  16 -25.513 15.5713  -2
   4  -6  16 -25.513 15.5713   1
  -2  -7  16 146.441 22.5293  -2
  -4  -5  16 146.441 22.5293   1
  -2  -6  16 -18.748 17.5710  -2
  -3  -5  16 -18.748 17.5710   1
  -3  -4  16 -12.726 35.2241  -2
  -2  -5  16 -12.726 35.2241   1
  -3  -3  16 72.3998 15.7066  -2
  -1  -5  16 72.3998 15.7066   1
  -3  -2  16 -4.8387 11.6698  -2
   0  -5  16 -4.8387 11.6698   1
  -4   0  16 -3.9386 17.3375  -2
   1  -5  16 -3.9386 17.3375   1
  -4   1  16 93.6506 26.3092  -2
   2  -5  16 93.6506 26.3092   1
  -4   2  16 4.79285 19.2073  -2
   3  -5  16 4.79285 19.2073   1
  -5   4  16 -17.242 42.3744  -2
   4  -5  16 -17.242 42.3744   1
  -1  -7  16 5.91089 16.9514  -2
  -4  -4  16 5.91089 16.9514   1
  -2  -5  16 9.24783 15.5766  -2
  -3  -4  16 9.24783 15.5766   1
  -2  -4  16 404.003 26.6935  -2
  -2  -4  16 404.003 26.6935   1
  -2  -3  16 1.79476 11.0100  -2
  -1  -4  16 1.79476 11.0100   1
  -3  -1  16 -13.830 13.0497  -2
   0  -4  16 -13.830 13.0497   1
  -3   0  16 609.388 48.6680  -2
   1  -4  16 609.388 48.6680   1
  -3   1  16 16.8494 29.4619  -2
   2  -4  16 16.8494 29.4619   1
  -4   3  16 -21.434 20.3234  -2
   3  -4  16 -21.434 20.3234   1
  -4   4  16 529.518 27.9074  -2
   4  -4  16 529.518 27.9074   1
   0  -8  16 0.27564 16.5957  -2
  -5  -3  16 0.27564 16.5957   1
  -4  -3  16 -14.535 36.9496   1
  -1  -5  16 242.922 20.9898  -2
  -3  -3  16 242.922 20.9898   1
  -1  -4  16 -5.1660 11.3901  -2
  -2  -3  16 -5.1660 11.3901   1
  -2  -2  16 -7.8398 13.1534  -2
  -1  -3  16 -7.8398 13.1534   1
  -2  -1  16 467.814 42.8545  -2
   0  -3  16 467.814 42.8545   1
  -2   0  16 -0.9473 14.9429  -2
   1  -3  16 -0.9473 14.9429   1
  -3   2  16 -1.8801 29.0927  -2
   2  -3  16 -1.8801 29.0927   1
  -3   3  16 257.406 19.8011  -2
   3  -3  16 257.406 19.8011   1
  -3   4  16 13.8712 21.9884  -2
   4  -3  16 13.8712 21.9884   1
  -5  -2  16 1.13664 39.1623   1
   0  -5  16 -2.8001 10.6554  -2
  -3  -2  16 -2.8001 10.6554   1
  -1  -3  16 2.05603 14.9122  -2
  -2  -2  16 2.05603 14.9122   1
  -1  -2  16 143.413 14.3777  -2
  -1  -2  16 143.413 14.3777   1
  -1  -1  16 -1.6198 17.3402  -2
   0  -2  16 -1.6198 17.3402   1
  -2   1  16 10.5349 14.7894  -2
   1  -2  16 10.5349 14.7894   1
  -2   2  16 47.1043 12.6836  -2
   2  -2  16 47.1043 12.6836   1
  -2   3  16 -14.437 26.9683  -2
   3  -2  16 -14.437 26.9683   1
  -3   5  16 11.5828 22.8786  -2
   4  -2  16 11.5828 22.8786   1
   1  -7  16 139.975 18.2944  -2
  -5  -1  16 139.975 18.2944   1
   1  -6  16 -32.295 10.4761  -2
  -4  -1  16 -32.295 10.4761   1
   0  -4  16 -25.242 16.0215  -2
  -3  -1  16 -25.242 16.0215   1
   0  -2  16 -14.389 12.1037  -2
  -1  -1  16 -14.389 12.1037   1
  -1   0  16 -7.9567 17.7026  -2
   0  -1  16 -7.9567 17.7026   1
  -1   1  16 232.082 12.8408  -2
   1  -1  16 232.082 12.8408   1
  -1   2  16 5.67399 13.6313  -2
   2  -1  16 5.67399 13.6313   1
  -2   4  16 18.8532 20.1747  -2
   3  -1  16 18.8532 20.1747   1
  -2   5  16 474.223 33.2973  -2
   4  -1  16 474.223 33.2973   1
   2  -7  16 5.56760 9.91905  -2
  -5   0  16 5.56760 9.91905   1
   1  -5  16 -31.221 16.3582  -2
  -4   0  16 -31.221 16.3582   1
   1  -4  16 318.561 20.2249  -2
  -3   0  16 318.561 20.2249   1
   1  -3  16 -4.9921 12.5297  -2
  -2   0  16 -4.9921 12.5297   1
   0  -1  16 -4.1604 21.0706  -2
  -1   0  16 -4.1604 21.0706   1
   0   0  16 1164.96 34.3378  -2
   0   0  16 1164.96 34.3378   1
   0   1  16 -16.233 13.9346  -2
   1   0  16 -16.233 13.9346   1
  -1   3  16 13.4728 17.8399  -2
   2   0  16 13.4728 17.8399   1
  -1   4  16 374.187 29.0604  -2
   3   0  16 374.187 29.0604   1
  -1   5  16 2.35999 29.3891  -2
   4   0  16 2.35999 29.3891   1
  -6   1  16 -3.5760 10.6321   1
  -5   1  16 13.1663 9.53722   1
   2  -5  16 228.296 28.3545  -2
  -4   1  16 228.296 28.3545   1
   2  -4  16 7.75453 13.7804  -2
  -3   1  16 7.75453 13.7804   1
   1  -2  16 -2.6672 13.3920  -2
  -2   1  16 -2.6672 13.3920   1
   1  -1  16 192.771 12.5176  -2
  -1   1  16 192.771 12.5176   1
   1   0  16 -23.671 13.1869  -2
   0   1  16 -23.671 13.1869   1
   0   2  16 -1.7722 17.9039  -2
   1   1  16 -1.7722 17.9039   1
   0   3  16 226.329 15.0803  -2
   2   1  16 226.329 15.0803   1
   0   4  16 33.7193 28.2029  -2
   3   1  16 33.7193 28.2029   1
   4   1  16 -5.7584 13.9982   1
   3  -6  16 131.059 27.6509  -2
  -5   2  16 131.059 27.6509   1
   3  -5  16 -33.127 17.8369  -2
  -4   2  16 -33.127 17.8369   1
   2  -3  16 -0.3354 13.7438  -2
  -3   2  16 -0.3354 13.7438   1
   2  -2  16 54.3237 8.86898  -2
  -2   2  16 54.3237 8.86898   1
   2  -1  16 -19.922 11.9792  -2
  -1   2  16 -19.922 11.9792   1
   1   1  16 32.4467 24.1313  -2
   0   2  16 32.4467 24.1313   1
   1   2  16 125.616 18.8065  -2
   1   2  16 125.616 18.8065   1
   1   3  16 -0.3348 15.7045  -2
   2   2  16 -0.3348 15.7045   1
   0   5  16 44.0482 29.9929  -2
   3   2  16 44.0482 29.9929   1
  -4   3  16 15.6994 10.8912   1
   3  -3  16 247.476 12.9132  -2
  -3   3  16 247.476 12.9132   1
   3  -2  16 2.35998 16.8661  -2
  -2   3  16 2.35998 16.8661   1
   2   0  16 12.6164 15.2308  -2
  -1   3  16 12.6164 15.2308   1
   2   1  16 340.169 26.8329  -2
   0   3  16 340.169 26.8329   1
   2   2  16 -6.0578 15.8617  -2
   1   3  16 -6.0578 15.8617   1
   1   4  16 -37.317 28.7790  -2
   2   3  16 -37.317 28.7790   1
  -5   4  16 -1.9570 12.3581   1
   4  -4  16 452.444 35.2096  -2
  -4   4  16 452.444 35.2096   1
   3  -1  16 16.3493 22.3232  -2
  -2   4  16 16.3493 22.3232   1
   3   0  16 372.259 18.0281  -2
  -1   4  16 372.259 18.0281   1
   3   1  16 -0.2962 13.0742  -2
   0   4  16 -0.2962 13.0742   1
   2   3  16 -13.389 18.0103  -2
   1   4  16 -13.389 18.0103   1
   2   4  16 574.861 37.3035  -2
   2   4  16 574.861 37.3035   1
  -4   5  16 -19.846 34.5779   1
   4  -2  16 5.83090 23.7081  -2
  -3   5  16 5.83090 23.7081   1
   4  -1  16 310.625 14.8000  -2
  -2   5  16 310.625 14.8000   1
   4   0  16 0.75825 17.2388  -2
  -1   5  16 0.75825 17.2388   1
   3   2  16 -4.0176 14.4226  -2
   0   5  16 -4.0176 14.4226   1
   0  -7  17 23.0053 21.3922   1
  -5  -1  17 38.8260 16.5942  -2
   1  -7  17 38.8260 16.5942   1
  -3  -5  17 18.8174 17.2092  -2
  -2  -6  17 18.8174 17.2092   1
  -4  -3  17 22.9863 36.9885  -2
  -1  -6  17 22.9863 36.9885   1
  -4  -2  17 201.693 19.9368  -2
   0  -6  17 201.693 19.9368   1
  -4  -1  17 8.03471 17.2925  -2
   1  -6  17 8.03471 17.2925   1
  -5   1  17 -6.6654 19.8143  -2
   2  -6  17 -6.6654 19.8143   1
  -5   2  17 510.340 31.4255  -2
   3  -6  17 510.340 31.4255   1
  -2  -6  17 -7.9078 19.0203  -2
  -3  -5  17 -7.9078 19.0203   1
  -3  -4  17 68.5989 40.0629  -2
  -2  -5  17 68.5989 40.0629   1
  -3  -3  17 272.502 19.8033  -2
  -1  -5  17 272.502 19.8033   1
  -3  -2  17 -5.7374 12.1448  -2
   0  -5  17 -5.7374 12.1448   1
  -4   0  17 28.1383 33.9659  -2
   1  -5  17 28.1383 33.9659   1
  -4   1  17 254.164 18.8236  -2
   2  -5  17 254.164 18.8236   1
  -4   2  17 -20.415 33.1586  -2
   3  -5  17 -20.415 33.1586   1
  -4  -4  17 20.1486 42.6083   1
  -3  -4  17 0.07845 41.7313   1
  -2  -4  17 180.904 17.0209  -2
  -2  -4  17 180.904 17.0209   1
  -2  -3  17 5.59473 16.3639  -2
  -1  -4  17 5.59473 16.3639   1
  -3  -1  17 20.8166 14.1075  -2
   0  -4  17 20.8166 14.1075   1
  -3   0  17 80.6947 27.2915  -2
   1  -4  17 80.6947 27.2915   1
  -3   1  17 13.2535 31.7097  -2
   2  -4  17 13.2535 31.7097   1
  -4   3  17 -10.952 21.3054  -2
   3  -4  17 -10.952 21.3054   1
  -1  -6  17 11.7261 16.9206  -2
  -4  -3  17 11.7261 16.9206   1
  -1  -4  17 3.43118 16.7211  -2
  -2  -3  17 3.43118 16.7211   1
  -2  -2  17 2.28913 14.3520  -2
  -1  -3  17 2.28913 14.3520   1
  -2  -1  17 301.843 37.2510  -2
   0  -3  17 301.843 37.2510   1
  -2   0  17 -1.0843 15.6504  -2
   1  -3  17 -1.0843 15.6504   1
  -3   2  17 13.0874 30.9916  -2
   2  -3  17 13.0874 30.9916   1
  -3   3  17 501.191 26.6619  -2
   3  -3  17 501.191 26.6619   1
   0  -5  17 10.9159 17.4186  -2
  -3  -2  17 10.9159 17.4186   1
  -1  -3  17 16.2337 16.0535  -2
  -2  -2  17 16.2337 16.0535   1
  -1  -1  17 -19.004 22.4115  -2
   0  -2  17 -19.004 22.4115   1
  -2   1  17 -10.914 15.5305  -2
   1  -2  17 -10.914 15.5305   1
  -2   2  17 537.704 26.9333  -2
   2  -2  17 537.704 26.9333   1
  -2   3  17 10.3664 28.5507  -2
   3  -2  17 10.3664 28.5507   1
   4  -2  17 -6.7817 15.8975   1
   0  -2  17 -18.000 21.2977  -2
  -1  -1  17 -18.000 21.2977   1
  -1   0  17 8.92130 19.2709  -2
   0  -1  17 8.92130 19.2709   1
  -1   1  17 195.946 17.1568  -2
   1  -1  17 195.946 17.1568   1
  -1   2  17 1.66545 29.1495  -2
   2  -1  17 1.66545 29.1495   1
  -2   4  17 2.45923 29.4822  -2
   3  -1  17 2.45923 29.4822   1
  -5   0  17 -4.9891 9.67088   1
   1  -3  17 -2.9175 13.4147  -2
  -2   0  17 -2.9175 13.4147   1
   0  -1  17 -16.608 22.0335  -2
  -1   0  17 -16.608 22.0335   1
   0   0  17 -1.0949 7.91502  -2
   0   0  17 -1.0949 7.91502   1
   0   1  17 7.43603 17.5877  -2
   1   0  17 7.43603 17.5877   1
  -1   4  17 225.153 24.8982  -2
   3   0  17 225.153 24.8982   1
  -5   1  17 0.65612 10.0327   1
   2  -5  17 55.8509 15.0927  -2
  -4   1  17 55.8509 15.0927   1
   2  -4  17 -29.500 16.8496  -2
  -3   1  17 -29.500 16.8496   1
   1  -2  17 10.4640 14.8242  -2
  -2   1  17 10.4640 14.8242   1
   1  -1  17 144.441 11.6013  -2
  -1   1  17 144.441 11.6013   1
   1   0  17 8.79845 14.5741  -2
   0   1  17 8.79845 14.5741   1
   0   3  17 574.912 22.9766  -2
   2   1  17 574.912 22.9766   1
   0   4  17 9.74330 30.7612  -2
   3   1  17 9.74330 30.7612   1
   3  -5  17 -30.415 18.8122  -2
  -4   2  17 -30.415 18.8122   1
   2  -3  17 -9.5606 21.7668  -2
  -3   2  17 -9.5606 21.7668   1
   2  -2  17 456.288 19.1535  -2
  -2   2  17 456.288 19.1535   1
   2  -1  17 -10.828 15.1050  -2
  -1   2  17 -10.828 15.1050   1
   1   1  17 16.7867 25.3783  -2
   0   2  17 16.7867 25.3783   1
   1   2  17 850.846 46.5623  -2
   1   2  17 850.846 46.5623   1
   1   3  17 24.9680 20.2867  -2
   2   2  17 24.9680 20.2867   1
  -4   3  17 6.88679 10.9562   1
   3  -3  17 459.061 21.4637  -2
  -3   3  17 459.061 21.4637   1
   3  -2  17 -17.173 17.9733  -2
  -2   3  17 -17.173 17.9733   1
   2   0  17 5.07958 16.2065  -2
  -1   3  17 5.07958 16.2065   1
   2   1  17 379.855 18.7689  -2
   0   3  17 379.855 18.7689   1
   2   2  17 -39.379 21.5202  -2
   1   3  17 -39.379 21.5202   1
   4  -3  17 -55.151 29.7873  -2
  -3   4  17 -55.151 29.7873   1
   3  -1  17 -20.352 17.1651  -2
  -2   4  17 -20.352 17.1651   1
   3   0  17 84.9998 13.9941  -2
  -1   4  17 84.9998 13.9941   1
   3   1  17 -6.9475 27.5791  -2
   0   4  17 -6.9475 27.5791   1
  -3  -3  18 -29.602 24.0270  -2
  -1  -5  18 -29.602 24.0270   1
  -4   1  18 160.698 18.6289  -2
   2  -5  18 160.698 18.6289   1
  -2  -4  18 155.380 32.4730  -2
  -2  -4  18 155.380 32.4730   1
  -2  -3  18 29.8030 37.5536  -2
  -1  -4  18 29.8030 37.5536   1
  -3  -1  18 17.2084 16.2180  -2
   0  -4  18 17.2084 16.2180   1
  -3   0  18 446.788 44.8287  -2
   1  -4  18 446.788 44.8287   1
  -3   1  18 -12.895 33.7266  -2
   2  -4  18 -12.895 33.7266   1
  -2  -2  18 7.71960 15.6519  -2
  -1  -3  18 7.71960 15.6519   1
  -2  -1  18 429.909 51.3563  -2
   0  -3  18 429.909 51.3563   1
  -2   0  18 12.5630 32.8720  -2
   1  -3  18 12.5630 32.8720   1
  -3   2  18 -6.9530 33.8108  -2
   2  -3  18 -6.9530 33.8108   1
   0  -5  18 -36.971 18.0887  -2
  -3  -2  18 -36.971 18.0887   1
  -1  -3  18 12.4079 17.5711  -2
  -2  -2  18 12.4079 17.5711   1
  -1  -2  18 71.7461 28.2118  -2
  -1  -2  18 71.7461 28.2118   1
  -1  -1  18 21.2139 36.2161  -2
   0  -2  18 21.2139 36.2161   1
  -2   1  18 5.13497 32.7171  -2
   1  -2  18 5.13497 32.7171   1
  -2   2  18 24.1997 12.9755  -2
   2  -2  18 24.1997 12.9755   1
   0  -2  18 14.6518 23.4069  -2
  -1  -1  18 14.6518 23.4069   1
  -1   1  18 353.502 16.2627  -2
   1  -1  18 353.502 16.2627   1
  -1   2  18 41.7344 31.7087  -2
   2  -1  18 41.7344 31.7087   1
   1  -3  18 -1.8387 14.3936  -2
  -2   0  18 -1.8387 14.3936   1
   0   0  18 1024.99 29.8207  -2
   0   0  18 1024.99 29.8207   1
   0   1  18 -3.1850 16.1726  -2
   1   0  18 -3.1850 16.1726   1
   2  -4  18 15.6704 18.8225  -2
  -3   1  18 15.6704 18.8225   1
   1  -2  18 -0.1612 15.5524  -2
  -2   1  18 -0.1612 15.5524   1
   1  -1  18 328.299 16.9217  -2
  -1   1  18 328.299 16.9217   1
   1   0  18 -36.860 18.8628  -2
   0   1  18 -36.860 18.8628   1
   2  -2  18 30.2305 10.2260  -2
  -2   2  18 30.2305 10.2260   1
   2  -1  18 27.8090 20.8954  -2
  -1   2  18 27.8090 20.8954   1
   1   2  18 178.897 23.7404  -2
   1   2  18 178.897 23.7404   1
  -2   3  18 2.97191 9.33940   1
  -1  -3  19 -5.6921 26.9859   1
  -2  -1  19 275.413 40.2880  -2
   0  -3  19 275.413 40.2880   1
  -1  -2  19 211.767 39.9182  -2
  -1  -2  19 211.767 39.9182   1
  -1  -1  19 -9.3964 15.7464  -2
   0  -2  19 -9.3964 15.7464   1
   1  -2  19 7.47022 14.7791   1
   0  -3  19 433.241 24.3094  -2
  -2  -1  19 433.241 24.3094   1
   0  -2  19 -13.705 15.0461  -2
  -1  -1  19 -13.705 15.0461   1
  -1   0  19 -2.1642 38.6711  -2
   0  -1  19 -2.1642 38.6711   1
   0   0  19 -12.503 8.84270  -2
   0   0  19 -12.503 8.84270   1
   0   0   0    0.00    0.00   0
;
_shelx_hkl_checksum              91220
loop_
_space_group_symop_operation_xyz
'x, y, z'
'-x, -y, -z'
loop_
_atom_site_label
_atom_site_type_symbol
_atom_site_fract_x
_atom_site_fract_y
_atom_site_fract_z
_atom_site_U_iso_or_equiv
_atom_site_adp_type
_atom_site_occupancy
_atom_site_site_symmetry_order
_atom_site_calc_flag
_atom_site_refinement_flags_posn
_atom_site_refinement_flags_adp
Ag1 Ag -1.0617(2) 0.10663(11) -0.75029(5) 0.01743(18) Uani 1 1 d . .
O1C O -1.593(2) 0.4458(9) -0.6788(5) 0.0190(14) Uani 1 1 d . U
O2C O -1.362(2) 0.4462(10) -0.8160(4) 0.0193(14) Uani 1 1 d . U
O3C O -1.548(2) 0.7340(8) -0.7556(5) 0.0182(13) Uani 1 1 d . U
N1C N -1.5011(19) 0.5437(9) -0.7504(6) 0.0111(13) Uani 1 1 d . U
N1 N -1.023(2) 0.0428(11) -0.5964(5) 0.0110(14) Uani 1 1 d . .
N2 N -1.018(2) 0.0429(11) -0.9035(5) 0.0121(14) Uani 1 1 d . .
C1 C -1.088(2) 0.1888(13) -0.5322(6) 0.0133(16) Uani 1 1 d . .
H1 H -1.152307 0.325639 -0.553682 0.016 Uiso 1 1 calc R U
C2 C -1.067(2) 0.1481(12) -0.4359(6) 0.0114(17) Uani 1 1 d . .
H2 H -1.115693 0.255950 -0.392759 0.014 Uiso 1 1 calc R U
C3 C -1.088(2) -0.1506(13) -0.9403(6) 0.0122(17) Uani 1 1 d . .
H3 H -1.153144 -0.259935 -0.899743 0.015 Uiso 1 1 calc R U
C4 C -0.932(2) 0.1925(13) -0.9642(6) 0.0120(15) Uani 1 1 d . .
H4 H -0.884132 0.330150 -0.941231 0.014 Uiso 1 1 calc R U
loop_
_atom_site_aniso_label
_atom_site_aniso_U_11
_atom_site_aniso_U_22
_atom_site_aniso_U_33
_atom_site_aniso_U_23
_atom_site_aniso_U_13
_atom_site_aniso_U_12
Ag1 0.0319(3) 0.0150(3) 0.0069(2) 0.0020(3) 0.00884(18) 0.0015(3)
O1C 0.031(4) 0.008(3) 0.020(3) 0.010(2) 0.012(3) 0.002(2)
O2C 0.027(3) 0.020(3) 0.012(3) -0.002(2) 0.008(2) 0.006(2)
O3C 0.028(3) 0.009(2) 0.020(3) 0.003(3) 0.014(3) 0.003(2)
N1C 0.013(4) 0.009(2) 0.011(2) 0.004(2) 0.000(3) 0.003(2)
N1 0.009(3) 0.012(3) 0.013(3) 0.001(3) 0.006(2) 0.002(2)
N2 0.013(3) 0.013(3) 0.012(3) 0.003(3) 0.008(3) 0.006(2)
C1 0.015(4) 0.009(3) 0.016(4) 0.000(3) 0.005(3) 0.001(3)
C2 0.012(4) 0.012(4) 0.011(4) 0.003(3) 0.006(3) 0.001(3)
C3 0.010(4) 0.014(5) 0.014(4) 0.004(3) 0.008(3) 0.000(3)
C4 0.015(4) 0.011(3) 0.011(4) 0.003(3) 0.004(3) 0.003(3)
loop_
_atom_type_symbol
_atom_type_description
_atom_type_scat_dispersion_real
_atom_type_scat_dispersion_imag
_atom_type_scat_source
C C 0.0033 0.0016 'International Tables Vol C Tables 4.2.6.8 and 6.1.1.4'
Ag Ag -0.8971 1.1015 'International Tables Vol C Tables 4.2.6.8 and 6.1.1.4'
N N 0.0061 0.0033 'International Tables Vol C Tables 4.2.6.8 and 6.1.1.4'
O O 0.0106 0.0060 'International Tables Vol C Tables 4.2.6.8 and 6.1.1.4'
H H 0.0000 0.0000 'International Tables Vol C Tables 4.2.6.8 and 6.1.1.4'
loop_
_geom_angle_atom_site_label_1
_geom_angle_atom_site_label_2
_geom_angle_atom_site_label_3
_geom_angle
_geom_angle_site_symmetry_1
_geom_angle_site_symmetry_3
N1 Ag1 N2 157.4(2) . .
N1 Ag1 O2C 120.1(2) . .
N2 Ag1 O2C 82.3(2) . .
N1C O2C Ag1 109.3(5) . .
O3C N1C O2C 120.4(8) . .
O3C N1C O1C 120.0(8) . .
O2C N1C O1C 119.6(6) . .
C2 N1 C1 117.3(7) 2_354 .
C2 N1 Ag1 120.0(6) 2_354 .
C1 N1 Ag1 122.7(6) . .
C4 N2 C3 116.7(7) . .
C4 N2 Ag1 122.4(6) . .
C3 N2 Ag1 120.9(6) . .
N1 C1 C2 122.6(8) . .
N1 C1 H1 118.7 . .
C2 C1 H1 118.7 . .
N1 C2 C1 120.1(8) 2_354 .
N1 C2 H2 120.0 2_354 .
C1 C2 H2 120.0 . .
N2 C3 C4 121.6(8) . 2_353
N2 C3 H3 119.2 . .
C4 C3 H3 119.2 2_353 .
N2 C4 C3 121.6(8) . 2_353
N2 C4 H4 119.2 . .
C3 C4 H4 119.2 2_353 .
loop_
_geom_bond_atom_site_label_1
_geom_bond_atom_site_label_2
_geom_bond_distance
_geom_bond_site_symmetry_2
Ag1 N1 2.211(7) .
Ag1 N2 2.229(7) .
Ag1 O2C 2.558(6) .
O1C N1C 1.264(9) .
O2C N1C 1.257(9) .
O3C N1C 1.235(8) .
N1 C2 1.336(11) 2_354
N1 C1 1.342(10) .
N2 C4 1.346(10) .
N2 C3 1.358(11) .
C1 C2 1.386(11) .
C1 H1 0.9500 .
C2 H2 0.9500 .
C3 C4 1.388(11) 2_353
C3 H3 0.9500 .
C4 H4 0.9500 .
loop_
_geom_torsion_atom_site_label_1
_geom_torsion_atom_site_label_2
_geom_torsion_atom_site_label_3
_geom_torsion_atom_site_label_4
_geom_torsion
_geom_torsion_site_symmetry_1
_geom_torsion_site_symmetry_4
Ag1 O2C N1C O3C 156.7(7) . .
Ag1 O2C N1C O1C -23.4(9) . .
C2 N1 C1 C2 0.0(14) 2_354 .
Ag1 N1 C1 C2 179.5(6) . .
N1 C1 C2 N1 0.0(14) . 2_354
C4 N2 C3 C4 0.7(13) . 2_353
Ag1 N2 C3 C4 179.1(6) . 2_353
C3 N2 C4 C3 -0.7(13) . 2_353
Ag1 N2 C4 C3 -179.1(6) . 2_353
