#------------------------------------------------------------------------------
#$Date: 2019-11-24 02:06:23 +0200 (Sun, 24 Nov 2019) $
#$Revision: 236174 $
#$URL: file:///home/coder/svn-repositories/cod/cif/1/55/39/1553933.cif $
#------------------------------------------------------------------------------
#
# This file is available in the Crystallography Open Database (COD),
# http://www.crystallography.net/
#
# All data on this site have been placed in the public domain by the
# contributors.
#
data_1553933
loop_
_publ_author_name
'Peter, Clovis'
'Geoffroy, Philippe'
'Miesch, Michel'
_publ_section_title
;
 Highly diastereoselective access to polyfunctionalized 1,3-oxazines
 promoted by Br\/onsted/Lewis acids
;
_journal_issue                   4
_journal_name_full               'Organic Chemistry Frontiers'
_journal_page_first              566
_journal_paper_doi               10.1039/C7QO00891K
_journal_volume                  5
_journal_year                    2018
_chemical_formula_moiety         'C10 H15 N O3'
_chemical_formula_sum            'C10 H15 N O3'
_chemical_formula_weight         197.23
_space_group_crystal_system      monoclinic
_space_group_IT_number           7
_space_group_name_Hall           'P -2yc'
_space_group_name_H-M_alt        'P 1 c 1'
_atom_sites_solution_hydrogens   geom
_atom_sites_solution_primary     direct
_atom_sites_solution_secondary   difmap
_audit_block_doi                 10.5517/ccdc.csd.cc1lbg5k
_audit_creation_method           SHELXL-2013
_audit_update_record
;
2016-03-21 deposited with the CCDC.
2017-10-26 downloaded from the CCDC.
;
_cell_angle_alpha                90
_cell_angle_beta                 119.444(7)
_cell_angle_gamma                90
_cell_formula_units_Z            2
_cell_length_a                   9.9528(10)
_cell_length_b                   5.6608(6)
_cell_length_c                   10.1737(8)
_cell_measurement_reflns_used    4453
_cell_measurement_temperature    173(2)
_cell_measurement_theta_max      30.02
_cell_measurement_theta_min      3.60
_cell_volume                     499.16(9)
_computing_cell_refinement       'Bruker SAINT'
_computing_data_collection       'Bruker APEX2'
_computing_data_reduction        'Bruker SAINT'
_computing_molecular_graphics    'Bruker SHELXTL'
_computing_publication_material  'Bruker SHELXTL'
_computing_structure_refinement  'SHELXL-2013 (Sheldrick, 2013)'
_computing_structure_solution    'SHELXS-2013 (Sheldrick, 2013)'
_diffrn_ambient_temperature      173(2)
_diffrn_measured_fraction_theta_full 0.990
_diffrn_measured_fraction_theta_max 0.993
_diffrn_measurement_device_type  'Bruker APEX-II CCD'
_diffrn_measurement_method       '\f and \w scans'
_diffrn_radiation_type           MoK\a
_diffrn_radiation_wavelength     0.71073
_diffrn_reflns_av_R_equivalents  0.0170
_diffrn_reflns_av_unetI/netI     0.0240
_diffrn_reflns_Laue_measured_fraction_full 0.990
_diffrn_reflns_Laue_measured_fraction_max 0.993
_diffrn_reflns_limit_h_max       13
_diffrn_reflns_limit_h_min       -13
_diffrn_reflns_limit_k_max       7
_diffrn_reflns_limit_k_min       -7
_diffrn_reflns_limit_l_max       14
_diffrn_reflns_limit_l_min       -14
_diffrn_reflns_number            5642
_diffrn_reflns_point_group_measured_fraction_full 0.958
_diffrn_reflns_point_group_measured_fraction_max 0.912
_diffrn_reflns_theta_full        25.242
_diffrn_reflns_theta_max         30.019
_diffrn_reflns_theta_min         2.350
_diffrn_source                   'fine focus sealed tube'
_exptl_absorpt_coefficient_mu    0.097
_exptl_absorpt_correction_T_max  0.7460
_exptl_absorpt_correction_T_min  0.5950
_exptl_absorpt_correction_type   multi-scan
_exptl_absorpt_process_details   sadabs
_exptl_crystal_colour            colourless
_exptl_crystal_density_diffrn    1.312
_exptl_crystal_description       plate
_exptl_crystal_F_000             212
_exptl_crystal_size_max          0.400
_exptl_crystal_size_mid          0.300
_exptl_crystal_size_min          0.200
_refine_diff_density_max         0.276
_refine_diff_density_min         -0.152
_refine_diff_density_rms         0.033
_refine_ls_abs_structure_details
;
 Flack x determined using 1101 quotients [(I+)-(I-)]/[(I+)+(I-)]
 (Parsons and Flack (2004), Acta Cryst. A60, s61).
;
_refine_ls_abs_structure_Flack   0.4(4)
_refine_ls_extinction_method     none
_refine_ls_goodness_of_fit_ref   1.044
_refine_ls_hydrogen_treatment    constr
_refine_ls_matrix_type           full
_refine_ls_number_parameters     128
_refine_ls_number_reflns         2655
_refine_ls_number_restraints     2
_refine_ls_restrained_S_all      1.044
_refine_ls_R_factor_all          0.0356
_refine_ls_R_factor_gt           0.0326
_refine_ls_shift/su_max          0.000
_refine_ls_shift/su_mean         0.000
_refine_ls_structure_factor_coef Fsqd
_refine_ls_weighting_details
'w=1/[\s^2^(Fo^2^)+(0.0447P)^2^+0.0722P] where P=(Fo^2^+2Fc^2^)/3'
_refine_ls_weighting_scheme      calc
_refine_ls_wR_factor_gt          0.0793
_refine_ls_wR_factor_ref         0.0816
_reflns_Friedel_coverage         0.832
_reflns_Friedel_fraction_full    0.926
_reflns_Friedel_fraction_max     0.831
_reflns_number_gt                2520
_reflns_number_total             2655
_reflns_threshold_expression     'I > 2\s(I)'
_cod_data_source_file            c7qo00891k2.cif
_cod_data_source_block           mmcp151027
_cod_original_sg_symbol_H-M      'P c'
_cod_database_code               1553933
_shelx_space_group_comment
;
The symmetry employed for this shelxl refinement is uniquely defined
by the following loop, which should always be used as a source of
symmetry information in preference to the above space-group names.
They are only intended as comments.
;
_shelx_estimated_absorpt_t_min   0.962
_shelx_estimated_absorpt_t_max   0.981
_shelxl_version_number           2013-4
_shelx_res_file
;
TITL mo_mmcp151027_0m in Pn transformed to space group Pc
CELL  0.71073   9.9528   5.6608  10.1737   90.000  119.444   90.000
ZERR     2.00   0.0010   0.0006   0.0008    0.000    0.007    0.000
LATT  -1
SYMM    X, - Y, 1/2 + Z
SFAC  C    H    N    O
UNIT  20   30   2    6
MERG   2
FMAP   2
PLAN   10
SIZE     0.200   0.300   0.400
ACTA
BOND   $H
CONF
L.S.   12
TEMP  -100.00
WGHT    0.044700    0.072200
FVAR       0.81469
C1    1    0.713706    0.381031    0.685382    11.00000    0.02035    0.01898 =
         0.02147   -0.00002    0.00880   -0.00055
AFIX  13
H1    2    0.697679    0.534899    0.631360    11.00000   -1.20000
AFIX   0
C2    1    0.854043    0.394530    0.843245    11.00000    0.02184    0.02580 =
         0.02273   -0.00433    0.00650   -0.00173
AFIX  23
H2A   2    0.821881    0.415758    0.920401    11.00000   -1.20000
H2B   2    0.921983    0.527522    0.850554    11.00000   -1.20000
AFIX   0
C3    1    0.936684    0.157996    0.864506    11.00000    0.02207    0.03134 =
         0.02346    0.00359    0.01087    0.00396
AFIX  23
H3A   2    1.049129    0.182127    0.907988    11.00000   -1.20000
H3B   2    0.918792    0.053400    0.932386    11.00000   -1.20000
AFIX   0
C4    1    0.867690    0.052409    0.708051    11.00000    0.02403    0.02510 =
         0.02755    0.00200    0.01713   -0.00071
C5    1    0.631307    0.126083    0.460172    11.00000    0.02932    0.03685 =
         0.02149   -0.00651    0.01356   -0.00251
AFIX  23
H5A   2    0.662597   -0.019694    0.428536    11.00000   -1.20000
H5B   2    0.614781    0.252109    0.386242    11.00000   -1.20000
AFIX   0
C6    1    0.482348    0.082321    0.465580    11.00000    0.02630    0.02691 =
         0.02159   -0.00665    0.01035   -0.00462
AFIX  23
H6A   2    0.395040    0.065304    0.361568    11.00000   -1.20000
H6B   2    0.491717   -0.066531    0.520541    11.00000   -1.20000
AFIX   0
C7    1    0.450338    0.285781    0.543984    11.00000    0.01975    0.01985 =
         0.01859    0.00127    0.00715   -0.00063
AFIX  13
H7    2    0.434754    0.433777    0.484489    11.00000   -1.20000
AFIX   0
C8    1    0.308864    0.241937    0.560270    11.00000    0.02256    0.01875 =
         0.02427    0.00016    0.01040   -0.00257
AFIX  23
H8A   2    0.221387    0.200115    0.460118    11.00000   -1.20000
H8B   2    0.329148    0.104679    0.627798    11.00000   -1.20000
AFIX   0
C9    1    0.262139    0.450138    0.622439    11.00000    0.01754    0.02451 =
         0.02313   -0.00006    0.00598    0.00084
C10   1    0.160203    0.395522    0.688913    11.00000    0.02699    0.03879 =
         0.02896   -0.00081    0.01524    0.00049
AFIX 137
H10A  2    0.222780    0.330568    0.790634    11.00000   -1.50000
H10B  2    0.081914    0.279720    0.625212    11.00000   -1.50000
H10C  2    0.109417    0.540651    0.694256    11.00000   -1.50000
AFIX   0
N1    3    0.751972    0.197078    0.610773    11.00000    0.02241    0.02622 =
         0.02080   -0.00271    0.01059   -0.00052
O1    4    0.907825   -0.130740    0.673542    11.00000    0.04184    0.03029 =
         0.04290    0.00057    0.02815    0.00764
O2    4    0.579443    0.317889    0.694056    11.00000    0.01942    0.02290 =
         0.01723   -0.00186    0.00748   -0.00044
O3    4    0.303418    0.649432    0.616968    11.00000    0.03528    0.02130 =
         0.05387   -0.00054    0.02311    0.00014
HKLF    4  1.0  1.00  0.00  0.00  0.00  1.00  0.00  0.00  0.00  1.00

REM  mo_mmcp151027_0m in Pn transformed to space group Pc
REM R1 =  0.0326 for    2520 Fo > 4sig(Fo)  and  0.0356 for all    2655 data
REM    128 parameters refined using      2 restraints

END

WGHT      0.0447      0.0722

REM Highest difference peak  0.276,  deepest hole -0.152,  1-sigma level  0.033
Q1    1   0.7797  0.3856  0.7663  11.00000  0.05    0.28
Q2    1   0.3840  0.2634  0.5513  11.00000  0.05    0.23
Q3    1   0.9099  0.1125  0.7827  11.00000  0.05    0.23
Q4    1   0.6983  0.1699  0.5392  11.00000  0.05    0.22
Q5    1   0.2964  0.3528  0.5808  11.00000  0.05    0.19
Q6    1   0.5586  0.1150  0.4622  11.00000  0.05    0.18
Q7    1   0.8954  0.2828  0.8391  11.00000  0.05    0.18
Q8    1   0.7436  0.3199  0.6214  11.00000  0.05    0.18
Q9    1   0.2115  0.4084  0.6658  11.00000  0.05    0.17
Q10   1   0.8198  0.1347  0.6546  11.00000  0.05    0.16
;
_shelx_res_checksum              18748
_shelx_hkl_file
;
   1   0  -1    0.62    0.10
  -1   0   1    0.74    0.04
   1   0  -1    0.65    0.05
  -1   0   1    0.64    0.06
   3   0  -3   -0.17    0.20
   3   0  -3   -0.10    0.07
  -3   0   3   -0.08    0.11
  -3   0   3   -0.12    0.08
   4   0  -4  550.40   11.26
  -4   0   4  553.63   11.47
  -4   0   4  546.59   11.50
   4   0  -4  549.28   12.37
  -5   0   5    0.05    0.16
  -5   0   5    0.18    0.14
   5   0  -5   -0.17    0.26
  -6   0   6  108.78    2.27
  -6   0   6  105.69    2.26
   6   0  -6   99.46    2.45
  -7   0   7    0.39    0.24
  -7   0   7    0.17    0.20
   7   0  -7   -0.25    0.35
   8   0  -8  125.40    3.06
  -8   0   8  132.55    2.82
   9   0  -9    0.21    0.40
  -9   0   9    0.07    0.29
 -10   0  10    7.34    0.61
  10   0 -10    7.79    0.77
 -11   0  11   -0.30    0.34
  11   0 -11    0.89    0.48
 -12   0  12   20.11    0.97
  12   0 -12   23.52    1.27
   0   1   0   14.61    0.36
   0  -1   0   15.31    0.36
   0  -1   0   15.17    0.36
   2   1  -2  571.96   11.88
  -2  -1   2  581.59   11.98
  -2  -1   2  569.02   11.95
   2  -1  -2  573.94   12.33
   3   1  -3  318.61    6.75
  -3   1   3  331.86    6.79
   3   1  -3  316.56    6.86
  -3   1   3  322.43    6.73
  -3  -1   3  324.32    6.95
   3  -1  -3  314.53    7.35
  -3  -1   3  328.01    7.03
   4   1  -4   14.32    0.41
  -4   1   4   14.16    0.41
   4   1  -4   14.14    0.39
  -4  -1   4   14.81    0.46
   4  -1  -4   13.77    0.54
  -4  -1   4   14.83    0.49
  -5   1   5   49.79    1.13
   5   1  -5   49.97    1.38
   5   1  -5   50.33    1.11
  -5  -1   5   51.77    1.19
   5  -1  -5   48.88    1.29
  -5  -1   5   49.60    1.17
   6   1  -6    1.48    0.21
  -6   1   6    1.54    0.26
  -6   1   6    1.06    0.21
   6   1  -6    1.40    0.44
  -6  -1   6    0.95    0.21
   6  -1  -6    1.06    0.31
  -6  -1   6    1.12    0.24
   7   1  -7  307.00    6.90
  -7   1   7  308.08    6.41
  -7  -1   7  316.24    6.49
  -7  -1   7  314.14    6.68
   7  -1  -7  298.59    6.74
   8   1  -8    1.11    0.46
  -8   1   8    1.19    0.27
  -8  -1   8    1.07    0.29
   8  -1  -8    1.24    0.39
  -9   1   9    0.58    0.29
   9   1  -9    0.96    0.48
  -9  -1   9    0.59    0.31
   9  -1  -9    1.18    0.40
  10   1 -10    8.12    0.85
 -10   1  10    7.47    0.60
 -10  -1  10    7.34    0.64
  10  -1 -10    8.05    0.74
  11   1 -11   12.33    1.00
 -11   1  11   10.07    0.70
  11  -1 -11   11.10    0.84
 -11  -1  11   11.80    0.77
 -12   1  12   11.18    0.81
  12  -1 -12   13.63    0.99
 -12  -1  12   11.17    0.83
   0   2   0  113.52    2.34
   0  -2   0  112.80    2.40
   0  -2   0  110.33    2.33
  -1   2   1   16.08    0.44
   1   2  -1   15.31    0.45
   1  -2  -1   16.09    0.41
  -1  -2   1   15.56    0.44
  -1  -2   1   16.23    0.46
  -2   2   2  209.32    4.43
   2   2  -2  210.66    4.62
   2  -2  -2  213.02    4.48
  -2  -2   2  212.75    4.65
  -2  -2   2  214.40    4.73
  -3   2   3  463.03    9.87
   3   2  -3  475.90   10.08
  -3  -2   3  476.50   10.19
  -3  -2   3  475.33   10.29
   4   2  -4   37.32    0.90
  -4   2   4   36.87    0.86
  -4  -2   4   36.53    0.95
  -4  -2   4   37.79    0.93
   5   2  -5  197.16    4.19
   5   2  -5  204.18    4.22
  -5   2   5  200.68    4.35
  -5  -2   5  210.22    4.36
  -5  -2   5  210.58    4.28
   5  -2  -5  200.86    4.38
   6   2  -6   91.90    2.00
  -6   2   6   89.81    1.99
   6   2  -6   89.95    1.94
  -6  -2   6   94.99    2.10
  -6  -2   6   94.47    2.07
   6  -2  -6   88.80    2.19
   7   2  -7   36.42    1.39
  -7   2   7   33.57    0.92
  -7  -2   7   36.10    1.01
  -7  -2   7   35.93    1.06
   7  -2  -7   34.35    1.12
   8   2  -8    1.78    0.57
  -8   2   8    1.98    0.29
  -8  -2   8    1.94    0.34
  -8  -2   8    1.63    0.32
   8  -2  -8    2.05    0.41
   9   2  -9   44.91    1.66
  -9   2   9   46.12    1.23
   9  -2  -9   45.52    1.45
  -9  -2   9   50.24    1.33
  10   2 -10    2.48    0.64
 -10   2  10    1.66    0.34
  10  -2 -10    2.33    0.49
 -10  -2  10    1.56    0.39
  11   2 -11    9.46    1.01
 -11   2  11    7.39    0.67
  11  -2 -11    9.96    0.85
 -11  -2  11    8.51    0.76
   0   3   0    9.94    0.42
   0  -3   0   11.67    0.39
   0  -3   0   10.65    0.38
  -1   3   1   59.03    1.30
   1   3  -1   55.12    1.31
  -1  -3   1   59.22    1.32
  -1  -3   1   56.16    1.30
   1  -3  -1   57.61    1.24
   1  -3  -1   57.06    1.26
  -2   3   2  258.26    5.46
   2   3  -2  258.76    5.68
  -2  -3   2  261.82    5.61
  -2  -3   2  270.09    5.95
   2  -3  -2  261.66    5.52
  -3   3   3   73.89    1.64
   3   3  -3   73.74    1.67
  -3  -3   3   74.66    1.68
  -3  -3   3   76.09    1.71
   4   3  -4   25.81    0.74
  -4   3   4   26.24    0.71
  -4  -3   4   26.49    0.81
   5   3  -5   90.70    2.02
  -5   3   5   88.64    1.97
  -5  -3   5   90.20    2.05
  -5  -3   5   91.99    2.09
   6   3  -6   46.23    1.17
  -6   3   6   45.13    1.14
  -6  -3   6   47.72    1.29
  -6  -3   6   48.19    1.25
  -7   3   7   33.74    0.93
  -7  -3   7   35.57    1.04
  -7  -3   7   34.85    1.09
  -8   3   8    8.71    0.51
  -8  -3   8    7.91    0.68
  -8  -3   8    8.44    0.61
   9   3  -9    7.01    1.03
  -9   3   9    8.31    0.55
  -9  -3   9    6.28    0.73
  -9  -3   9    7.77    0.66
 -10   3  10   19.68    0.80
  10   3 -10   17.86    1.25
 -10  -3  10   19.65    0.92
 -11   3  11    8.62    0.68
  11   3 -11    8.72    1.13
 -11  -3  11    9.18    0.80
   0   4   0  196.03    4.10
   0  -4   0  198.84    4.35
   0  -4   0  190.58    4.06
   1   4  -1   45.33    1.17
  -1   4   1   45.55    1.15
  -1  -4   1   46.43    1.13
  -1  -4   1   48.50    1.15
   1  -4  -1   46.01    1.09
   2   4  -2   55.11    1.36
  -2   4   2   55.82    1.34
  -2  -4   2   57.06    1.35
  -2  -4   2   56.86    1.37
   2  -4  -2   55.57    1.26
  -3   4   3   74.01    1.69
   3   4  -3   73.43    1.73
  -3  -4   3   73.36    1.75
  -3  -4   3   74.45    1.73
  -4   4   4   43.87    1.13
   4   4  -4   43.51    1.16
  -4  -4   4   45.77    1.22
  -4  -4   4   44.86    1.19
   5   4  -5    0.91    0.26
  -5   4   5    0.63    0.24
  -5  -4   5    0.89    0.29
  -5  -4   5    0.80    0.27
   6   4  -6   51.25    1.31
  -6   4   6   50.27    1.27
  -6  -4   6   51.89    1.38
  -6  -4   6   51.50    1.42
  -7   4   7   21.30    0.74
  -7  -4   7   22.67    0.87
  -7  -4   7   22.59    0.92
  -8   4   8    2.64    0.33
  -8  -4   8    2.26    0.41
  -9   4   9    4.73    0.55
   9   4  -9    3.51    1.02
  -9  -4   9    3.17    0.46
  -9  -4   9    3.63    0.48
 -10   4  10    1.16    0.36
  10   4 -10    0.01    0.84
 -10  -4  10    1.51    0.45
 -10  -4  10   -0.33    0.39
   0   5   0    0.06    0.26
   0  -5   0    0.25    0.16
   0  -5   0    0.04    0.19
  -1   5   1   34.22    1.01
   1   5  -1   34.70    1.03
   1  -5  -1   35.51    0.92
  -1  -5   1   36.81    0.98
  -1  -5   1   35.49    0.97
  -2   5   2   36.08    1.02
   2   5  -2   36.24    1.06
  -2  -5   2   35.09    1.02
  -2  -5   2   37.37    1.04
   3   5  -3    9.96    0.61
  -3   5   3   10.68    0.55
  -3  -5   3   10.39    0.60
  -3  -5   3   10.16    0.58
   4   5  -4   20.58    0.78
  -4   5   4   20.12    0.74
  -4  -5   4   20.09    0.81
  -4  -5   4   20.82    0.79
   5   5  -5    1.50    0.32
  -5   5   5    1.51    0.29
  -5  -5   5    0.67    0.27
  -5  -5   5    1.01    0.32
   6   5  -6   28.91    0.93
  -6   5   6   27.41    0.89
  -6  -5   6   27.27    1.03
  -6  -5   6   28.67    1.00
  -7   5   7    1.29    0.30
  -7  -5   7    1.10    0.39
  -7  -5   7    0.80    0.33
  -8   5   8    1.38    0.33
  -8  -5   8    1.42    0.43
  -8  -5   8    0.55    0.35
  -9   5   9    0.98    0.34
  -9  -5   9    0.07    0.36
  -9  -5   9    0.75    0.45
   0   6   0    0.73    0.32
   0  -6   0    0.80    0.17
  -1   6   1   52.53    1.45
   1   6  -1   54.87    1.47
  -1  -6   1   54.67    1.36
  -2   6   2    6.73    0.59
   2   6  -2    6.48    0.60
  -2  -6   2    6.24    0.52
  -2  -6   2    6.03    0.52
  -3   6   3   14.13    0.71
   3   6  -3   14.17    0.73
  -3  -6   3   13.94    0.71
  -3  -6   3   14.30    0.70
  -4   6   4   29.01    0.99
   4   6  -4   28.85    1.03
  -4  -6   4   29.28    1.05
  -4  -6   4   29.83    1.04
  -5   6   5   20.48    0.83
   5   6  -5   21.22    0.87
  -5  -6   5   20.97    0.92
  -5  -6   5   20.57    0.92
  -6   6   6    5.69    0.59
  -6  -6   6    5.33    0.66
  -6  -6   6    5.03    0.68
  -7   6   7   10.27    0.67
  -7  -6   7    8.71    0.82
  -7  -6   7    9.50    0.77
  -8   6   8    7.92    0.66
  -8  -6   8    6.67    0.82
  -8  -6   8    6.89    0.77
   0   7   0    0.22    0.35
   1   7  -1    1.89    0.42
  -1   7   1    1.66    0.39
  -1  -7   1    1.49    0.22
   2   7  -2    7.05    0.70
  -2   7   2    5.95    0.68
  -2  -7   2    6.30    0.54
  -3   7   3   26.86    1.02
   3   7  -3   28.17    1.08
  -3  -7   3   27.50    1.00
  -4   7   4    2.73    0.44
  -4  -7   4    1.91    0.35
   5   7  -5    8.10    0.72
  -5   7   5    6.76    0.70
  -5  -7   5    4.57    0.72
 -12   0  11    0.03    0.39
  11   0 -10    6.99    0.75
 -11   0  10    4.86    0.62
 -10   0   9   -0.11    0.32
  10   0  -9    0.43    0.37
   9   0  -8   74.17    2.02
  -9   0   8   79.52    1.85
   8   0  -7    0.11    0.34
  -8   0   7    0.04    0.28
  -8   0   7    0.11    0.24
   7   0  -6   98.30    2.07
   7   0  -6   95.18    2.34
  -7   0   6  100.15    2.19
  -7   0   6  100.88    2.21
   6   0  -5    0.12    0.11
  -6   0   5   -0.01    0.19
   6   0  -5   -0.08    0.26
  -6   0   5   -0.08    0.17
   5   0  -4  359.04    7.55
   5   0  -4  351.56    8.24
  -5   0   4  370.42    7.90
  -5   0   4  368.03    7.67
  -4   0   3   -0.09    0.13
  -4   0   3   -0.06    0.15
   4   0  -3   -0.02    0.19
   4   0  -3   -0.04    0.11
  -3   0   2  128.78    2.78
   3   0  -2  127.61    2.92
   3   0  -2  120.59    2.62
  -3   0   2  122.43    2.61
   3   0  -2  125.46    2.65
   2   0  -1    0.41    0.09
  -2   0   1    0.52    0.12
  -2   0   1    0.36    0.10
  -1   0   0  288.21    6.02
   1   0   0  294.06    6.02
   0   0  -1    1.25    0.10
  -2   0   3   -0.41    0.06
   2   0  -3   -0.47    0.21
  -2   0   3   -0.23    0.08
   3   0  -4    1.47    0.28
  -3   0   4    1.67    0.14
  -3   0   4    1.80    0.17
   4   0  -5   -0.15    0.26
  -4   0   5    0.02    0.13
  -4   0   5    0.01    0.16
  -5   0   6   91.87    1.90
   5   0  -6   86.03    2.14
  -6   0   7    0.10    0.19
   6   0  -7   -0.18    0.35
  -7   0   8   93.02    2.03
   7   0  -8   88.69    2.31
   8   0  -9   -0.17    0.40
  -8   0   9   -0.17    0.25
  -9   0  10   34.48    1.02
   9   0 -10   32.48    1.30
  10   0 -11    0.66    0.49
 -10   0  11   -0.10    0.30
 -11   0  12    2.08    0.41
  12   1 -11   16.33    1.07
 -12   1  11   13.24    0.84
 -12  -1  11   13.64    0.87
  12  -1 -11   18.04    1.49
 -11   1  10   18.40    0.84
  11   1 -10   19.57    1.04
  11  -1 -10   17.90    0.92
 -11  -1  10   19.05    0.88
  10   1  -9    0.30    0.44
 -10   1   9   -0.06    0.30
 -10  -1   9    0.07    0.32
  10  -1  -9    0.71    0.35
   9   1  -8    2.62    0.53
  -9   1   8    1.58    0.32
   9  -1  -8    2.32    0.50
  -9  -1   8    1.90    0.34
  -8   1   7  112.35    2.49
   8   1  -7  110.76    2.76
   8  -1  -7  108.79    2.64
  -8  -1   7  115.47    2.56
  -8  -1   7  115.53    2.52
   7   1  -6  125.31    2.63
   7   1  -6  124.36    2.94
  -7   1   6  122.43    2.68
  -7   1   6  127.20    2.69
  -7  -1   6  127.42    2.75
  -7  -1   6  123.92    2.71
   7  -1  -6  120.42    2.81
   6   1  -5    4.07    0.24
   6   1  -5    3.87    0.27
  -6   1   5    3.80    0.35
   6   1  -5    4.97    0.58
  -6   1   5    4.54    0.34
  -6  -1   5    4.20    0.42
   6  -1  -5    4.00    0.38
  -6  -1   5    4.83    0.39
   5   1  -4  470.36    9.88
  -5   1   4  479.65    9.86
   5   1  -4  451.63    9.82
  -5   1   4  476.58   10.06
   5  -1  -4  439.72   10.30
   5  -1  -4  476.23    9.73
  -5  -1   4  470.86   10.12
  -5  -1   4  481.51   10.25
  -4   1   3  335.24    7.22
   4   1  -3  343.67    7.20
   4  -1  -3  338.57    7.66
  -4  -1   3  357.76    7.61
  -4  -1   3  324.34    7.21
   4  -1  -3  354.15    7.16
  -3   1   2  317.81    6.74
   3   1  -2  318.25    6.81
   3  -1  -2  314.89    6.62
  -3  -1   2  315.49    6.84
   3  -1  -2  323.53    7.01
  -3  -1   2  306.55    6.82
  -2   1   1  371.09    7.84
   2   1  -1  368.79    7.84
   2  -1  -1  389.14    7.83
  -2  -1   1  353.22    7.78
  -2  -1   1  379.49    7.94
   1   1   0  535.91   10.98
  -1  -1   0  533.21   10.95
   1  -1   0  531.06   10.99
   2   1  -3  600.99   12.24
  -2  -1   3  618.82   12.37
   2  -1  -3  564.71   12.89
  -2  -1   3  590.21   12.30
  -3   1   4  255.92    5.08
   3   1  -4  243.27    5.16
  -3   1   4  245.52    5.06
   3  -1  -4  231.25    5.39
  -3  -1   4  241.71    5.24
  -3  -1   4  243.79    5.35
   4   1  -5   14.27    0.39
  -4   1   5   13.34    0.38
  -4   1   5   14.49    0.37
   4   1  -5   15.90    0.74
  -4  -1   5   14.22    0.47
   4  -1  -5   13.66    0.60
  -4  -1   5   14.42    0.46
  -5   1   6   41.93    0.91
   5   1  -6   41.32    1.28
  -5   1   6   39.75    0.92
   5  -1  -6   38.86    1.17
  -5  -1   6   40.86    1.00
  -5  -1   6   39.79    0.98
   6   1  -7    5.36    0.69
  -6   1   7    5.71    0.35
   6  -1  -7    4.74    0.56
  -6  -1   7    5.71    0.43
  -6  -1   7    6.33    0.41
  -7   1   8    4.06    0.38
   7   1  -8    3.57    0.69
   7  -1  -8    3.41    0.58
  -7  -1   8    3.74    0.43
  -8   1   9   69.27    1.61
   8   1  -9   66.56    1.99
   8  -1  -9   66.19    1.92
  -8  -1   9   70.18    1.65
   9   1 -10   22.89    1.15
  -9   1  10   22.97    0.80
   9  -1 -10   22.52    1.06
  -9  -1  10   24.03    0.85
 -10   1  11    8.57    0.62
  10   1 -11    9.44    0.92
 -10  -1  11    8.59    0.66
  10  -1 -11    9.65    0.87
 -11   1  12   13.99    0.78
  11   1 -12   15.91    1.17
 -11  -1  12   13.97    0.82
  11  -1 -12   15.16    1.06
  12   2 -11   24.74    1.32
 -12   2  11   22.33    0.98
 -12  -2  11   23.81    1.08
 -11   2  10    0.99    0.37
  11   2 -10    1.31    0.59
 -11  -2  10    0.87    0.42
  11  -2 -10    1.84    0.45
  10   2  -9   12.78    1.01
 -10   2   9   13.33    0.69
  10  -2  -9   13.71    0.77
 -10  -2   9   13.50    0.76
   9   2  -8   16.35    1.03
  -9   2   8   17.04    0.71
   9  -2  -8   17.39    0.80
  -9  -2   8   16.98    0.84
  -9  -2   8   18.34    0.76
  -8   2   7   11.40    0.56
   8   2  -7   10.08    0.94
  -8  -2   7   11.44    0.68
   8  -2  -7   10.61    0.61
  -8  -2   7   11.18    0.62
   7   2  -6   16.16    0.55
  -7   2   6   16.20    0.62
  -7  -2   6   16.99    0.67
   7  -2  -6   15.72    0.69
  -7  -2   6   16.99    0.73
  -6   2   5  247.06    5.43
   6   2  -5  251.25    5.15
  -6  -2   5  248.00    5.30
  -6  -2   5  255.73    5.34
   6  -2  -5  245.00    5.76
   5   2  -4  239.16    4.99
  -5   2   4  237.15    5.24
  -5  -2   4  237.35    5.04
  -5  -2   4  240.46    5.26
  -4   2   3  314.32    6.77
   4   2  -3  311.16    6.79
  -4  -2   3  311.06    6.81
  -4  -2   3  311.08    6.76
   4  -2  -3  307.99    6.56
  -3   2   2   57.15    1.26
   3   2  -2   56.48    1.27
  -3  -2   2   54.66    1.27
   3  -2  -2   56.52    1.22
  -3  -2   2   58.22    1.30
   2   2  -1  410.18    8.84
  -2   2   1  410.64    8.77
  -2  -2   1  422.38    8.90
   2  -2  -1  419.81    8.76
  -2  -2   1  401.78    8.84
  -1   2   0  116.82    2.47
   1   2   0  120.78    2.56
  -1  -2   0  114.12    2.45
   1  -2   0  120.69    2.63
   1  -2   0  118.76    2.51
  -1  -2   0  120.04    2.58
   0   2   1  365.27    7.64
   0   2  -1  364.65    7.77
   0  -2  -1  365.43    7.62
   0  -2   1  350.49    7.80
   0  -2   1  372.59    7.90
  -1   2   2  224.94    4.71
   1   2  -2  220.58    4.73
  -1  -2   2  208.02    4.76
  -1  -2   2  221.15    4.92
   2   2  -3  517.63   10.88
  -2   2   3  503.95   10.57
  -2   2   3  526.17   10.63
  -2  -2   3  504.97   10.90
  -2  -2   3  512.38   10.92
  -3   2   4   60.39    1.28
  -3   2   4   60.54    1.28
   3   2  -4   60.59    1.34
  -3  -2   4   60.82    1.38
  -3  -2   4   58.99    1.36
   4   2  -5   29.47    0.71
   4   2  -5   30.05    0.74
  -4   2   5   29.34    0.69
  -4   2   5   30.12    0.68
   4  -2  -5   29.20    0.93
  -4  -2   5   29.23    0.78
  -4  -2   5   28.57    0.80
  -5   2   6   30.18    0.76
  -5   2   6   32.18    0.75
   5   2  -6   31.37    0.70
   5   2  -6   31.75    0.79
  -5  -2   6   32.14    0.89
  -5  -2   6   31.25    0.86
   5  -2  -6   31.54    1.02
   6   2  -7   25.19    1.18
  -6   2   7   23.42    0.65
  -6  -2   7   23.52    0.80
   6  -2  -7   21.76    0.90
  -6  -2   7   23.64    0.75
  -7   2   8    6.53    0.40
   7   2  -8    6.37    0.84
  -7  -2   8    6.97    0.51
  -7  -2   8    6.03    0.55
   7  -2  -8    6.26    0.64
  -8   2   9   82.69    1.87
   8   2  -9   80.65    2.36
   8  -2  -9   79.53    2.20
  -8  -2   9   85.46    1.98
  -9   2  10    2.90    0.45
   9   2 -10    2.75    0.65
  -9  -2  10    2.97    0.39
   9  -2 -10    3.29    0.65
 -10   2  11    3.63    0.54
  10   2 -11    4.51    0.93
 -10  -2  11    3.65    0.46
  10  -2 -11    4.71    0.79
 -11   2  12    1.84    0.39
  11   2 -12    3.40    0.76
 -11  -2  12    2.15    0.46
  11   3 -10   -0.11    0.64
 -11   3  10   -0.07    0.36
 -11  -3  10   -0.04    0.41
 -10   3   9    0.91    0.33
  10   3  -9    0.33    0.65
 -10  -3   9   -0.03    0.37
 -10  -3   9    0.68    0.38
   9   3  -8    5.80    1.08
  -9   3   8    8.02    0.56
  -9  -3   8    8.15    0.67
  -9  -3   8    7.07    0.73
  -8   3   7   12.05    0.60
  -8  -3   7   12.77    0.68
  -8  -3   7   12.37    0.75
   7   3  -6   73.96    1.73
  -7   3   6   73.27    1.72
  -7  -3   6   73.12    1.80
  -7  -3   6   75.35    1.84
   6   3  -5  134.14    2.91
  -6   3   5  132.35    2.89
  -6  -3   5  135.82    2.96
  -6  -3   5  136.01    2.99
  -5   3   4   66.18    1.56
   5   3  -4   67.99    1.58
  -5  -3   4   69.22    1.64
  -5  -3   4   68.64    1.61
  -4   3   3   18.64    0.60
   4   3  -3   18.48    0.62
  -4  -3   3   19.87    0.66
  -4  -3   3   19.47    0.63
   4  -3  -3   19.45    0.50
  -3   3   2   54.63    1.24
   3   3  -2   50.90    1.25
   3  -3  -2   53.82    1.19
  -3  -3   2   52.27    1.25
  -3  -3   2   55.22    1.28
   2   3  -1  270.01    5.85
  -2   3   1  275.82    5.89
   2  -3  -1  280.67    6.03
  -2  -3   1  287.86    6.14
  -2  -3   1  264.34    5.64
  -1   3   0  237.87    5.17
   1   3   0  233.67    5.10
   1  -3   0  241.66    5.29
  -1  -3   0  234.51    5.05
   1  -3   0  226.75    4.87
  -1  -3   0  236.11    5.22
   0   3   1   29.70    0.75
   0   3  -1   29.08    0.77
   0  -3  -1   29.20    0.71
   0  -3   1   27.94    0.74
   0  -3   1   30.47    0.77
   0  -3  -1   29.97    0.67
  -1   3   2  221.54    4.69
   1   3  -2  227.87    4.83
  -1  -3   2  219.94    4.89
   1  -3  -2  226.55    4.72
  -1  -3   2  238.40    5.18
  -2   3   3  133.29    2.75
   2   3  -3  129.04    2.79
  -2  -3   3  130.92    2.80
  -2  -3   3  132.44    2.82
  -3   3   4    9.31    0.36
   3   3  -4    8.80    0.43
  -3  -3   4    9.84    0.47
  -3  -3   4    9.85    0.45
   4   3  -5    0.32    0.19
  -4   3   5    0.14    0.15
  -4  -3   5    0.35    0.23
  -4  -3   5    0.36    0.21
   5   3  -6   90.64    2.03
  -5   3   6   89.99    1.98
  -5  -3   6   92.45    2.10
  -5  -3   6   93.92    2.13
  -6   3   7   62.08    1.46
  -6  -3   7   66.27    1.63
  -6  -3   7   64.85    1.59
   7   3  -8   28.97    1.40
  -7   3   8   29.03    0.82
  -7  -3   8   30.86    0.98
  -7  -3   8   29.24    1.00
   8   3  -9    1.79    0.70
  -8   3   9    2.02    0.28
  -8  -3   9    1.74    0.47
  -8  -3   9    2.02    0.36
  -9   3  10    8.82    0.56
   9   3 -10    8.16    1.08
  -9  -3  10    8.29    0.66
  10   3 -11    0.19    0.65
 -10   3  11    0.12    0.31
 -10  -3  11   -0.28    0.36
  11   4 -10    4.85    0.99
 -11   4  10    5.50    0.66
 -11  -4  10    5.09    0.80
 -10   4   9   19.24    0.83
  10   4  -9   14.60    1.50
 -10  -4   9   17.94    1.01
 -10  -4   9   19.37    0.97
  -9   4   8   40.73    1.21
  -9  -4   8   41.94    1.38
  -9  -4   8   42.84    1.32
  -8   4   7    3.47    0.49
  -8  -4   7    3.54    0.44
  -8  -4   7    2.25    0.37
   7   4  -6   10.36    0.56
  -7   4   6    9.10    0.54
  -7  -4   6    9.73    0.63
  -7  -4   6    9.41    0.69
  -6   4   5   42.13    1.14
   6   4  -5   43.27    1.16
  -6  -4   5   42.70    1.24
  -6  -4   5   44.25    1.22
  -5   4   4   51.54    1.33
   5   4  -4   52.92    1.36
  -5  -4   4   54.68    1.41
  -5  -4   4   54.30    1.37
   4   4  -3   10.54    0.55
  -4   4   3    9.99    0.53
  -4  -4   3   11.51    0.55
  -4  -4   3   11.33    0.58
  -3   4   2    5.96    0.44
   3   4  -2    5.60    0.45
   3  -4  -2    5.97    0.31
  -3  -4   2    6.37    0.41
  -3  -4   2    6.67    0.45
  -2   4   1  249.85    5.31
   2   4  -1  252.23    5.22
   2  -4  -1  245.13    5.15
  -2  -4   1  255.14    5.27
  -2  -4   1  249.88    5.19
   1   4   0   57.46    1.39
  -1   4   0   57.12    1.39
   1  -4   0   58.75    1.36
  -1  -4   0   58.21    1.34
   1  -4   0   58.95    1.35
  -1  -4   0   58.76    1.33
   0   4   1    3.94    0.36
   0   4  -1    3.73    0.39
   0  -4   1    4.02    0.36
   0  -4   1    3.93    0.32
   0  -4  -1    3.81    0.28
   0  -4  -1    3.88    0.22
  -1   4   2    3.41    0.34
   1   4  -2    3.32    0.38
  -1  -4   2    3.71    0.39
   1  -4  -2    3.46    0.23
  -1  -4   2    3.68    0.35
  -2   4   3   15.67    0.56
   2   4  -3   15.18    0.60
  -2  -4   3   16.30    0.60
  -2  -4   3   16.55    0.64
   3   4  -4   25.00    0.79
  -3   4   4   25.17    0.73
  -3  -4   4   26.26    0.85
  -3  -4   4   25.66    0.81
  -4   4   5   32.85    0.90
   4   4  -5   34.00    0.96
  -4  -4   5   34.65    1.05
  -4  -4   5   36.46    1.02
  -5   4   6   71.09    1.68
   5   4  -6   74.31    1.74
  -5  -4   6   74.72    1.81
  -5  -4   6   75.32    1.84
  -6   4   7   36.80    1.00
  -6  -4   7   38.82    1.14
  -6  -4   7   38.63    1.19
  -7   4   8    1.05    0.25
  -7  -4   8    0.93    0.33
  -7  -4   8    1.17    0.37
  -8   4   9    1.18    0.28
   8   4  -9    0.27    0.83
  -8  -4   9    0.90    0.39
  -8  -4   9    0.64    0.35
   9   4 -10    6.36    1.22
  -9   4  10    8.28    0.59
  -9  -4  10    7.48    0.72
  10   4 -11    2.36    0.89
 -10   4  11    1.93    0.37
 -10  -4  11    1.55    0.47
  -9   5   8   13.40    0.75
  -9  -5   8   12.85    0.89
  -9  -5   8   13.61    0.84
  -8   5   7    0.34    0.31
  -8  -5   7    0.04    0.38
  -8  -5   7   -0.41    0.32
   7   5  -6    3.34    0.49
  -7   5   6    1.92    0.34
  -7  -5   6    1.94    0.40
  -7  -5   6    2.24    0.37
   6   5  -5    7.47    0.56
  -6   5   5    6.94    0.53
  -6  -5   5    6.71    0.59
  -6  -5   5    6.62    0.62
  -5   5   4    1.39    0.31
   5   5  -4    1.54    0.32
  -5  -5   4    0.88    0.28
  -5  -5   4    1.45    0.33
   4   5  -3   59.15    1.52
  -4   5   3   58.46    1.51
  -4  -5   3   60.30    1.53
  -4  -5   3   58.90    1.52
  -3   5   2   96.48    2.26
   3   5  -2   96.91    2.28
  -3  -5   2   98.49    2.26
  -3  -5   2  102.66    2.27
  -2   5   1   74.35    1.83
   2   5  -1   74.69    1.83
  -2  -5   1   77.81    1.80
   2  -5  -1   75.99    1.74
  -2  -5   1   80.17    1.78
  -1   5   0   47.21    1.27
   1   5   0   47.09    1.26
   1  -5   0   47.18    1.19
   1  -5   0   46.73    1.16
  -1  -5   0   48.29    1.14
  -1  -5   0   47.93    1.18
   0   5  -1   72.51    1.78
   0   5   1   72.92    1.76
   0  -5   1   75.59    1.73
   0  -5   1   73.88    1.74
  -1   5   2    4.18    0.47
   1   5  -2    4.35    0.49
  -1  -5   2    4.84    0.46
  -1  -5   2    4.30    0.42
  -2   5   3  111.16    2.49
   2   5  -3  110.46    2.54
  -2  -5   3  114.92    2.57
  -2  -5   3  111.41    2.54
   3   5  -4   17.87    0.74
  -3   5   4   17.18    0.66
  -3  -5   4   17.65    0.73
  -3  -5   4   17.60    0.76
   4   5  -5   14.34    0.66
  -4   5   5   13.64    0.59
  -4  -5   5   13.97    0.69
  -4  -5   5   13.45    0.73
   5   5  -6   22.24    0.80
  -5   5   6   21.26    0.74
  -5  -5   6   20.25    0.88
  -5  -5   6   21.17    0.85
  -6   5   7    8.36    0.52
  -6  -5   7    8.93    0.67
  -6  -5   7    8.14    0.71
  -7   5   8   12.67    0.63
  -7  -5   8   12.38    0.84
  -7  -5   8   12.82    0.81
  -8   5   9    2.14    0.33
  -8  -5   9    2.08    0.46
  -8  -5   9    1.61    0.39
  -9  -5  10   -0.38    0.36
  -8   6   7    0.59    0.36
  -8  -6   7   -0.20    0.40
  -8  -6   7   -0.23    0.34
  -7   6   6   14.43    0.76
  -7  -6   6   12.34    0.83
  -7  -6   6   12.76    0.84
   6   6  -5    1.50    0.37
  -6   6   5    1.30    0.36
  -6  -6   5    1.16    0.33
  -6  -6   5    1.09    0.38
  -5   6   4   12.38    0.72
   5   6  -4   12.49    0.72
  -5  -6   4   11.59    0.73
  -5  -6   4   11.51    0.73
  -4   6   3   57.90    1.57
   4   6  -3   58.11    1.59
  -4  -6   3   60.43    1.57
  -4  -6   3   58.36    1.57
   3   6  -2    6.50    0.61
  -3   6   2    6.27    0.62
  -3  -6   2    5.34    0.53
  -3  -6   2    5.46    0.51
  -2   6   1   12.07    0.68
   2   6  -1   11.50    0.70
  -2  -6   1   11.75    0.54
  -1   6   0    3.98    0.56
   1   6   0    4.85    0.55
  -1  -6   0    4.24    0.32
   0   6   1   17.27    0.75
   0   6  -1   17.52    0.79
   0  -6   1   16.28    0.77
   0  -6   1   16.79    0.66
   1   6  -2    6.04    0.59
  -1   6   2    5.91    0.54
  -1  -6   2    5.76    0.52
  -1  -6   2    5.65    0.52
   2   6  -3    5.36    0.61
  -2   6   3    4.98    0.54
  -2  -6   3    4.10    0.54
  -2  -6   3    4.28    0.51
   3   6  -4    8.00    0.62
  -3   6   4    6.83    0.56
  -3  -6   4    7.43    0.64
  -3  -6   4    6.92    0.60
   4   6  -5   10.21    0.68
  -4   6   5    8.04    0.59
  -4  -6   5    8.01    0.69
  -4  -6   5    7.26    0.69
  -5   6   6    6.86    0.58
  -5  -6   6    6.39    0.71
  -5  -6   6    6.70    0.70
  -6   6   7    9.34    0.62
  -6  -6   7    8.24    0.77
  -6  -6   7    8.12    0.78
  -7   6   8    4.19    0.57
  -7  -6   8    2.16    0.45
  -7  -6   8    2.96    0.51
  -6   7   5    6.83    0.74
  -6  -7   5    5.86    0.74
   5   7  -4    8.27    0.75
  -5   7   4    7.43    0.71
  -5  -7   4    6.23    0.69
   4   7  -3   32.83    1.19
  -4   7   3   30.63    1.12
  -4  -7   3   30.82    1.06
  -3   7   2   16.89    0.87
   3   7  -2   18.04    0.92
  -3  -7   2   16.67    0.71
  -2   7   1    7.90    0.71
   2   7  -1    7.76    0.70
  -2  -7   1    7.56    0.44
   1   7   0    1.36    0.38
  -1   7   0    1.43    0.40
   0   7  -1    1.95    0.42
   0   7   1    1.58    0.37
   0  -7   1    2.26    0.39
  -1   7   2    0.57    0.36
   1   7  -2    0.56    0.37
  -1  -7   2    0.10    0.23
  -2   7   3    6.82    0.67
   2   7  -3    7.38    0.75
  -2  -7   3    6.22    0.63
   3   7  -4   33.25    1.17
  -3   7   4   31.39    1.11
  -3  -7   4   32.35    1.16
  -4   7   5   30.79    1.10
   4   7  -5   32.80    1.17
  -4  -7   5   30.91    1.24
  -4  -7   5   31.72    1.19
  -5   7   6    4.93    0.64
  -5  -7   6    3.77    0.48
  -5  -7   6    3.23    0.51
 -13   0  11   -0.75    0.42
  12   0 -10   48.06    1.58
 -12   0  10   47.85    1.45
 -11   0   9   -0.03    0.36
  11   0  -9    0.94    0.37
  10   0  -8    7.10    0.63
 -10   0   8    6.93    0.63
  -9   0   7   -0.08    0.27
   9   0  -7    0.13    0.30
  -9   0   7   -0.03    0.30
  -8   0   6   93.88    2.15
   8   0  -6   88.29    2.05
  -8   0   6   94.14    2.11
   8   0  -6   90.76    2.20
  -7   0   5    0.10    0.22
   7   0  -5   -0.05    0.26
  -7   0   5    0.02    0.25
   7   0  -5   -0.04    0.13
   6   0  -4    4.88    0.28
   6   0  -4    4.62    0.39
  -6   0   4    5.16    0.38
  -6   0   4    4.93    0.42
   5   0  -3   -0.03    0.20
   5   0  -3    0.07    0.12
  -5   0   3    0.10    0.18
   5   0  -3    0.02    0.13
  -5   0   3    0.08    0.17
   3   0  -1   -0.17    0.10
  -3   0   1    0.00    0.13
  -3   0   1    0.03    0.16
  -1   0  -1   -0.45    0.09
  -1   0  -1   -0.83    0.11
   1   0   1   -0.67    0.07
  -1   0  -1   -0.66    0.09
   1   0  -3   -0.51    0.20
   2   0  -4  524.42   11.90
   3   0  -5   -0.21    0.28
  -3   0   5    0.04    0.08
  -3   0   5   -0.01    0.10
  -4   0   6  281.30    5.68
  -4   0   6  266.13    5.80
   4   0  -6  270.48    6.35
  -5   0   7    0.18    0.12
   5   0  -7   -0.19    0.36
  -5   0   7    0.03    0.15
  -6   0   8    6.11    0.38
   6   0  -8    4.99    0.65
  -7   0   9    0.13    0.22
   7   0  -9   -0.16    0.41
   8   0 -10   11.15    0.87
  -8   0  10   10.55    0.55
  -9   0  11   -0.24    0.27
   9   0 -11    0.31    0.47
 -10   0  12   23.76    0.90
  10   0 -12   24.19    1.29
 -11   0  13   -0.74    0.34
  11   0 -13    1.28    0.62
 -12   1  10   13.28    0.83
  12   1 -10   16.00    0.95
 -12  -1  10   13.81    0.87
 -11   1   9    1.50    0.39
  11   1  -9    3.21    0.67
 -11  -1   9    1.83    0.42
  10   1  -8    0.38    0.41
 -10   1   8    0.20    0.32
  10  -1  -8    0.78    0.31
 -10  -1   8    0.43    0.33
 -10  -1   8   -0.12    0.31
  -9   1   7    2.87    0.36
   9   1  -7    3.30    0.62
   9  -1  -7    3.64    0.46
  -9  -1   7    2.41    0.34
  -9  -1   7    3.27    0.52
  -8   1   6   31.19    0.96
   8   1  -6   29.88    1.11
   8   1  -6   29.78    0.81
  -8   1   6   30.54    0.93
  -8  -1   6   32.14    1.00
   8  -1  -6   29.75    0.94
  -8  -1   6   30.76    0.95
  -7   1   5  176.78    3.72
   7   1  -5  178.68    3.91
   7   1  -5  168.12    3.63
   7   1  -5  174.92    3.67
  -7   1   5  182.55    3.74
   7  -1  -5  177.17    3.62
  -7  -1   5  183.90    3.77
  -7  -1   5  172.75    3.73
   7  -1  -5  166.77    3.75
  -6   1   4   47.06    1.15
  -6   1   4   48.11    1.14
   6   1  -4   46.65    1.11
  -6  -1   4   46.80    1.15
   6  -1  -4   47.10    1.07
  -6  -1   4   47.03    1.18
   6  -1  -4   45.91    1.15
  -5   1   3  435.50    9.19
  -5   1   3  426.55    9.10
   5   1  -3  428.25    9.09
  -5  -1   3  427.56    9.36
   5  -1  -3  449.48    9.23
  -5  -1   3  421.71    9.09
   5  -1  -3  426.51    9.36
   4   1  -2  107.40    2.31
  -4   1   2  108.53    2.31
  -4   1   2  111.95    2.32
   4  -1  -2  112.60    2.36
  -4  -1   2  106.60    2.33
   4  -1  -2  111.62    2.29
  -4  -1   2  108.54    2.32
   3   1  -1  380.01    8.06
  -3   1   1  364.22    8.08
   3   1  -1  377.76    8.03
  -3   1   1  385.94    8.06
  -3  -1   1  370.08    8.14
   3  -1  -1  384.72    8.08
  -3  -1   1  378.24    8.04
  -2  -1   0  758.18   15.43
   2  -1   0  769.24   15.54
   2  -1   0  725.29   15.47
  -1   1  -1  188.91    4.12
  -1   1  -1  189.56    4.21
   1   1   1  201.32    4.21
   1  -1   1  194.51    4.24
   1  -1   1  207.75    4.32
  -1  -1  -1  193.04    4.09
   0   1  -2  470.13    9.59
   0   1  -2  468.11    9.61
   0   1  -2  461.80    9.62
   0  -1   2  438.82    9.63
   0  -1   2  478.85    9.67
   1   1  -3   30.89    0.64
   1   1  -3   29.49    0.64
   1   1  -3   30.50    0.68
   1  -1  -3   29.95    0.82
  -1  -1   3   31.47    0.70
  -1  -1   3   30.40    0.69
   2   1  -4  118.38    2.50
   2   1  -4  123.36    2.68
  -2  -1   4  115.99    2.50
  -2  -1   4  121.28    2.46
   2  -1  -4  116.98    2.63
   3   1  -5  115.13    2.61
  -3  -1   5  108.58    2.33
  -3  -1   5  113.87    2.33
   3  -1  -5  108.85    2.53
  -4   1   6   24.62    0.58
   4   1  -6   27.30    1.00
  -4   1   6   26.98    0.58
   4  -1  -6   26.47    0.92
  -4  -1   6   25.99    0.68
  -4  -1   6   26.14    0.68
  -5   1   7   17.56    0.47
  -5   1   7   18.61    0.45
   5   1  -7   16.57    0.84
   5  -1  -7   17.30    0.81
  -5  -1   7   17.22    0.57
  -5  -1   7   17.77    0.56
   6   1  -8   16.73    0.95
  -6   1   8   17.46    0.53
  -6  -1   8   17.49    0.60
   6  -1  -8   16.95    0.86
  -7   1   9   32.78    0.86
   7   1  -9   31.74    1.28
  -7  -1   9   33.65    0.94
   7  -1  -9   33.08    1.23
   8   1 -10    0.73    0.52
  -8   1  10    0.68    0.25
  -8  -1  10    0.41    0.27
   8  -1 -10    0.85    0.48
  -9   1  11    0.48    0.29
   9   1 -11    1.06    0.55
   9  -1 -11    0.97    0.49
  -9  -1  11    0.48    0.31
  10   1 -12    9.59    1.03
 -10   1  12    8.00    0.63
  10  -1 -12    9.07    0.98
 -10  -1  12    7.60    0.66
 -11   1  13    3.48    0.45
 -11  -1  13    3.86    0.50
 -12   2  10    5.41    0.70
 -12  -2  10    5.30    0.76
  11   2  -9    0.67    0.53
 -11   2   9    0.12    0.35
 -11  -2   9    0.12    0.38
  10   2  -8   10.77    0.93
 -10   2   8   12.08    0.68
 -10  -2   8   11.63    0.71
  10  -2  -8   12.20    0.67
 -10  -2   8   11.12    0.80
  -9   2   7    8.85    0.60
   9   2  -7    7.95    0.88
  -9  -2   7    8.87    0.70
   9  -2  -7    9.27    0.57
  -9  -2   7    9.87    0.63
  -8   2   6   32.39    0.96
   8   2  -6   31.70    0.89
  -8  -2   6   32.91    1.00
  -8  -2   6   33.00    1.05
  -7   2   5  285.60    6.06
  -7   2   5  284.42    5.86
   7   2  -5  281.65    5.84
  -7  -2   5  274.89    5.88
  -7  -2   5  287.65    6.07
  -6   2   4   45.57    1.13
   6   2  -4   44.76    1.11
  -6   2   4   46.42    1.13
   6  -2  -4   44.75    1.03
  -6  -2   4   46.51    1.20
  -6  -2   4   45.84    1.16
  -5   2   3  324.52    6.99
   5   2  -3  328.96    6.99
  -5  -2   3  306.50    6.63
  -5  -2   3  317.44    7.10
   5  -2  -3  325.57    6.66
   4   2  -2   28.03    0.75
  -4   2   2   28.61    0.75
  -4  -2   2   28.97    0.76
  -4  -2   2   28.77    0.78
   4  -2  -2   28.47    0.70
   3   2  -1  130.67    2.85
  -3   2   1  135.37    2.86
   3  -2  -1  142.35    2.91
  -3  -2   1  137.90    2.87
  -3  -2   1  136.66    2.85
   2   2   0    5.66    0.28
  -2   2   0    5.43    0.31
   2  -2   0    5.68    0.28
  -2  -2   0    5.57    0.27
  -2  -2   0    5.86    0.27
   2  -2   0    5.06    0.26
  -1   2  -1  340.95    7.34
   1   2   1  338.73    7.30
   1  -2   1  348.94    7.48
  -1  -2  -1  330.86    7.11
   1  -2   1  336.91    7.35
  -1  -2  -1  354.71    7.03
   0   2   2  153.48    3.33
   0   2  -2  153.92    3.23
   0  -2   2  150.70    3.28
   0  -2   2  155.66    3.42
   1   2  -3  116.41    2.48
  -1   2   3  118.10    2.48
  -1   2   3  117.07    2.50
  -1  -2   3  119.17    2.49
  -1  -2   3  122.58    2.51
   2   2  -4  134.35    2.90
  -2   2   4  139.17    2.86
   2   2  -4  138.52    2.85
  -2   2   4  139.95    2.87
  -2  -2   4  129.64    2.86
  -2  -2   4  140.39    2.89
   3   2  -5   62.36    1.38
   3   2  -5   61.90    1.34
  -3   2   5   64.63    1.31
  -3   2   5   62.17    1.31
  -3  -2   5   63.15    1.44
  -3  -2   5   63.95    1.43
   3  -2  -5   63.73    1.62
  -4   2   6   16.71    0.43
  -4   2   6   17.97    0.43
   4   2  -6   17.92    0.50
  -4  -2   6   17.88    0.60
   4  -2  -6   16.34    0.72
  -4  -2   6   17.49    0.58
   5   2  -7   76.38    2.12
  -5   2   7   70.91    1.57
  -5   2   7   77.37    1.64
   5  -2  -7   72.18    1.94
  -5  -2   7   74.69    1.71
  -5  -2   7   72.72    1.71
  -6   2   8    2.17    0.27
   6   2  -8    2.12    0.61
   6  -2  -8    2.22    0.45
  -6  -2   8    1.84    0.29
  -6  -2   8    1.85    0.31
  -7   2   9    7.80    0.41
   7   2  -9    8.16    0.84
  -7  -2   9    8.36    0.55
   7  -2  -9    7.88    0.73
  -8   2  10    1.61    0.26
   8   2 -10    1.96    0.61
  -8  -2  10    1.59    0.33
   8  -2 -10    2.04    0.49
   9   2 -11   15.73    1.18
  -9   2  11   16.13    0.66
  -9  -2  11   15.81    0.78
   9  -2 -11   16.93    1.04
  10   2 -12    1.31    0.63
 -10   2  12    0.55    0.32
  10  -2 -12    1.23    0.56
 -10  -2  12    0.30    0.38
 -12   3  10   -0.17    0.39
  12   3 -10    0.63    0.63
 -12  -3  10    0.22    0.44
 -11   3   9    1.61    0.41
  11   3  -9    1.28    0.71
 -11  -3   9    1.44    0.45
 -11  -3   9    0.46    0.41
  10   3  -8   63.33    2.19
 -10   3   8   69.26    1.75
 -10  -3   8   70.24    1.83
 -10  -3   8   70.47    1.90
  -9   3   7   20.45    0.80
  -9  -3   7   20.28    0.86
  -9  -3   7   20.46    0.93
   8   3  -6   85.65    2.00
  -8   3   6   86.27    2.03
  -8  -3   6   88.03    2.09
  -8  -3   6   88.08    2.14
  -7   3   5   53.13    1.35
   7   3  -5   53.06    1.34
  -7  -3   5   54.36    1.40
  -7  -3   5   54.01    1.44
   6   3  -4  130.41    2.86
  -6   3   4  129.29    2.84
  -6  -3   4  133.21    2.88
  -6  -3   4  131.21    2.91
   5   3  -3   17.71    0.61
  -5   3   3   16.07    0.59
  -5  -3   3   17.25    0.66
  -5  -3   3   17.31    0.62
   5  -3  -3   16.69    0.50
   4   3  -2   33.69    0.90
  -4   3   2   33.65    0.90
   4  -3  -2   34.26    0.84
  -4  -3   2   33.95    0.90
  -4  -3   2   35.41    0.93
   3   3  -1   41.66    1.04
  -3   3   1   42.39    1.05
  -3  -3   1   41.87    1.02
   3  -3  -1   42.55    1.01
  -3  -3   1   43.48    1.04
   2   3   0   12.73    0.46
  -2   3   0   12.95    0.49
  -2  -3   0   13.45    0.43
  -2  -3   0   12.63    0.43
   2  -3   0   12.80    0.44
   2  -3   0   13.11    0.44
   1   3   1   49.36    1.12
  -1   3  -1   46.21    1.14
  -1  -3  -1   48.99    1.03
   1  -3   1   49.03    1.15
   1  -3   1   48.00    1.13
  -1  -3  -1   48.58    1.08
   0   3   2   93.88    2.01
   0   3  -2   95.21    2.06
   0  -3   2   97.06    2.07
   0  -3   2   90.24    2.04
   0  -3  -2   95.40    1.96
   1   3  -3  185.85    3.91
  -1   3   3  190.92    3.96
  -1  -3   3  180.53    3.91
  -1  -3   3  193.15    4.15
   2   3  -4   35.31    0.90
  -2   3   4   34.87    0.83
  -2  -3   4   35.21    0.92
  -2  -3   4   35.96    0.95
   3   3  -5   17.08    0.57
  -3   3   5   16.82    0.48
  -3   3   5   17.06    0.46
  -3  -3   5   17.94    0.63
  -3  -3   5   17.53    0.61
  -4   3   6   19.23    0.54
   4   3  -6   19.46    0.59
   4   3  -6   20.16    0.63
  -4  -3   6   20.62    0.73
  -4  -3   6   20.35    0.69
   5   3  -7   26.58    0.64
  -5   3   7   26.58    0.70
  -5  -3   7   27.38    0.89
  -5  -3   7   28.49    0.86
   6   3  -8    2.26    0.77
  -6   3   8    2.02    0.29
  -6  -3   8    1.46    0.29
  -6  -3   8    1.79    0.33
  -7   3   9    0.44    0.20
   7   3  -9   -0.23    0.68
  -7  -3   9    0.22    0.30
  -8   3  10    2.86    0.40
   8   3 -10    3.02    0.79
  -8  -3  10    2.11    0.38
   9   3 -11    0.46    0.63
  -9   3  11    0.48    0.28
  -9  -3  11    0.08    0.36
  10   3 -12    9.66    1.14
 -10   3  12    9.02    0.63
 -10  -3  12    8.25    0.78
  11   4  -9   22.22    1.60
 -11   4   9   28.48    1.07
 -11  -4   9   28.85    1.15
 -11  -4   9   27.38    1.23
 -10   4   8    1.55    0.39
 -10  -4   8    1.99    0.46
 -10  -4   8    1.45    0.42
  -9   4   7   11.15    0.68
  -9  -4   7   12.17    0.82
  -9  -4   7   11.59    0.75
  -8   4   6    0.08    0.30
   8   4  -6    0.79    0.27
  -8  -4   6    0.40    0.30
  -8  -4   6    0.33    0.34
   7   4  -5   17.90    0.71
  -7   4   5   17.00    0.70
  -7  -4   5   17.74    0.80
  -7  -4   5   17.18    0.77
  -6   4   4    3.64    0.47
   6   4  -4    4.09    0.45
  -6  -4   4    3.63    0.48
  -6  -4   4    3.54    0.52
  -5   4   3    3.52    0.48
   5   4  -3    3.72    0.46
  -5  -4   3    3.77    0.44
  -5  -4   3    3.78    0.48
  -4   4   2   11.70    0.57
   4   4  -2   11.13    0.56
  -4  -4   2   12.52    0.57
   4  -4  -2   11.52    0.43
  -4  -4   2   11.61    0.53
   3   4  -1   87.74    2.01
  -3   4   1   89.62    2.02
  -3  -4   1   89.07    1.98
   3  -4  -1   88.76    1.96
  -3  -4   1   86.67    1.98
   2   4   0    0.90    0.23
  -2   4   0    0.82    0.26
  -2  -4   0    1.43    0.21
  -2  -4   0    1.13    0.16
   2  -4   0    1.17    0.18
   2  -4   0    0.88    0.19
  -1   4  -1   42.72    1.12
   1   4   1   43.81    1.09
  -1  -4  -1   41.78    1.02
  -1  -4  -1   43.99    0.94
   1  -4   1   44.24    1.10
   1  -4   1   43.19    1.09
   0   4   2   44.94    1.12
   0   4  -2   43.76    1.17
   0  -4   2   47.85    1.18
   0  -4  -2   45.61    1.03
   0  -4   2   46.63    1.15
  -1   4   3   41.75    1.03
   1   4  -3   40.41    1.08
  -1  -4   3   41.41    1.11
  -1  -4   3   40.24    1.07
   2   4  -4   39.84    1.06
  -2   4   4   39.44    0.99
  -2  -4   4   40.23    1.11
  -2  -4   4   39.62    1.07
  -3   4   5   22.95    0.68
   3   4  -5   23.78    0.76
  -3  -4   5   24.85    0.80
  -3  -4   5   23.40    0.83
   4   4  -6   56.30    1.39
  -4   4   6   54.44    1.32
  -4  -4   6   59.00    1.51
  -4  -4   6   58.19    1.46
  -5   4   7   14.90    0.53
  -5  -4   7   15.26    0.73
  -5  -4   7   15.85    0.70
  -6   4   8   25.06    0.74
  -6  -4   8   26.22    0.93
  -6  -4   8   24.93    0.96
   7   4  -9    1.01    0.90
  -7   4   9    1.47    0.25
  -7  -4   9    0.74    0.33
  -7  -4   9    1.40    0.36
   8   4 -10   18.31    1.46
  -8   4  10   21.51    0.74
  -8  -4  10   22.29    0.93
   9   4 -11    1.34    0.85
  -9   4  11    1.68    0.33
  -9  -4  11    1.02    0.43
 -10   5   8   14.89    0.84
 -10  -5   8   14.46    0.93
 -10  -5   8   13.77    0.95
  -9   5   7   13.64    0.78
  -9  -5   7   14.04    0.84
  -9  -5   7   13.20    0.88
  -8   5   6    6.01    0.62
   8   5  -6    7.70    0.60
  -8  -5   6    4.93    0.68
  -8  -5   6    5.57    0.69
   7   5  -5    1.84    0.34
  -7   5   5    1.83    0.35
  -7  -5   5    1.93    0.40
  -7  -5   5    1.42    0.32
   6   5  -4    9.14    0.61
  -6   5   4    8.94    0.61
  -6  -5   4    8.02    0.63
  -6  -5   4    8.03    0.62
   5   5  -3   11.89    0.68
  -5   5   3   11.82    0.65
  -5  -5   3   12.17    0.62
  -5  -5   3   12.09    0.64
   4   5  -2    9.32    0.59
  -4   5   2    9.25    0.60
  -4  -5   2    8.66    0.55
  -4  -5   2    9.40    0.55
  -3   5   1   24.12    0.87
   3   5  -1   24.53    0.85
   3  -5  -1   24.42    0.74
  -3  -5   1   24.96    0.77
  -3  -5   1   25.17    0.78
   2   5   0   98.61    2.31
  -2   5   0  102.09    2.32
  -2  -5   0  100.35    2.23
   2  -5   0  100.23    2.23
   2  -5   0   99.75    2.26
  -2  -5   0  103.16    2.18
   1   5   1   70.47    1.71
  -1   5  -1   71.57    1.75
   1  -5   1   71.71    1.70
   1  -5   1   72.67    1.70
   0   5  -2    8.86    0.58
   0   5   2    8.52    0.52
   0  -5   2    8.54    0.54
   0  -5   2    8.80    0.50
  -1   5   3   19.82    0.71
   1   5  -3   19.72    0.76
  -1  -5   3   20.83    0.77
  -1  -5   3   19.59    0.72
  -2   5   4    3.11    0.41
   2   5  -4    2.89    0.35
  -2  -5   4    2.92    0.52
  -2  -5   4    2.84    0.37
  -3   5   5   20.60    0.70
   3   5  -5   22.32    0.81
  -3  -5   5   20.70    0.86
  -3  -5   5   21.33    0.84
   4   5  -6    8.04    0.57
  -4   5   6    6.01    0.44
  -4  -5   6    6.43    0.62
  -4  -5   6    6.20    0.58
  -5   5   7    4.25    0.42
  -5  -5   7    4.06    0.57
  -5  -5   7    3.77    0.60
  -6   5   8   33.01    0.97
  -6  -5   8   35.95    1.18
  -6  -5   8   34.18    1.21
  -7   5   9   14.01    0.64
  -7  -5   9   13.31    0.89
  -7  -5   9   16.17    0.84
   8   5 -10    0.51    1.05
  -8  -5  10    1.09    0.40
  -8   6   6    7.71    0.72
  -8  -6   6    6.48    0.77
  -8  -6   6    6.96    0.73
   7   6  -5    1.83    0.39
  -7   6   5    1.92    0.41
  -7  -6   5    0.76    0.32
  -7  -6   5    0.65    0.40
   6   6  -4    0.95    0.36
  -6   6   4    0.65    0.35
  -6  -6   4    0.20    0.28
  -6  -6   4    0.26    0.34
   5   6  -3    3.24    0.43
  -5   6   3    2.34    0.39
  -5  -6   3    2.35    0.39
  -5  -6   3    1.83    0.31
  -4   6   2    4.52    0.58
   4   6  -2    4.43    0.62
  -4  -6   2    4.32    0.49
   3   6  -1   16.28    0.76
  -3   6   1   16.53    0.81
  -3  -6   1   16.58    0.62
   2   6   0    3.64    0.56
  -2   6   0    2.52    0.39
  -2  -6   0    3.49    0.29
  -1   6  -1   87.60    2.14
   1   6   1   86.95    2.11
   1  -6   1   87.87    2.04
   1  -6   1   89.64    2.10
   0   6  -2    8.26    0.64
   0   6   2    7.56    0.59
   0  -6   2    7.57    0.56
   0  -6   2    7.79    0.54
   1   6  -3   44.60    1.29
  -1   6   3   42.51    1.23
  -1  -6   3   44.36    1.26
  -1  -6   3   44.42    1.29
  -2   6   4    3.70    0.49
   2   6  -4    4.51    0.59
  -2  -6   4    2.40    0.34
  -2  -6   4    3.50    0.42
   3   6  -5   38.08    1.17
  -3   6   5   36.98    1.10
  -3  -6   5   38.38    1.20
  -3  -6   5   35.70    1.22
  -4   6   6    4.40    0.50
  -4  -6   6    3.96    0.48
  -4  -6   6    2.89    0.40
  -5   6   7   10.08    0.59
  -5  -6   7    9.27    0.77
  -5  -6   7    8.52    0.78
  -6   6   8   25.37    0.89
  -6  -6   8   25.16    1.13
  -6  -6   8   26.18    1.10
  -6   7   4    4.81    0.73
  -6  -7   4    3.24    0.40
   5   7  -3   10.46    0.80
  -5   7   3    9.01    0.79
  -5  -7   3    7.63    0.64
   4   7  -2   10.15    0.79
  -4   7   2    8.69    0.76
  -4  -7   2    8.41    0.56
   3   7  -1   28.88    1.09
  -3   7   1   27.83    1.09
  -3  -7   1   28.39    0.78
  -2   7   0   11.92    0.81
   2   7   0   12.61    0.78
   1   7   1   11.36    0.76
  -1   7  -1   12.24    0.81
   0   7   2    3.66    0.58
   0   7  -2    4.30    0.67
   0  -7   2    2.87    0.50
  -1   7   3    1.07    0.35
   1   7  -3    1.52    0.41
  -1  -7   3    0.84    0.29
   2   7  -4   10.02    0.78
  -2   7   4    7.49    0.68
  -2  -7   4    7.24    0.72
  -3   7   5    5.25    0.63
  -3  -7   5    2.38    0.40
  -3  -7   5    3.86    0.50
  -4   7   6    7.28    0.65
  -4  -7   6    5.58    0.78
  -4  -7   6    5.82    0.76
 -13   0  10   25.35    1.07
 -12   0   9   -0.04    0.40
 -11   0   8   23.03    0.95
  11   0  -8   21.41    0.88
  10   0  -7    0.34    0.29
 -10   0   7    0.18    0.33
 -10   0   7   -0.18    0.29
   9   0  -6   29.00    0.96
  -9   0   6   29.86    0.96
  -9   0   6   31.16    1.04
   8   0  -5   -0.13    0.25
  -8   0   5   -0.18    0.29
  -8   0   5    0.01    0.25
   8   0  -5   -0.13    0.17
   7   0  -4   40.39    1.01
  -7   0   4   42.64    1.10
   7   0  -4   40.51    1.01
   7   0  -4   41.17    1.09
  -7   0   4   43.20    1.14
  -6   0   3    0.01    0.19
   6   0  -3   -0.02    0.19
   6   0  -3   -0.03    0.14
  -6   0   3    0.13    0.22
  -5   0   2  971.23   20.74
  -5   0   2 1000.00   20.62
   5   0  -2  992.57   20.61
   4   0  -1    0.07    0.12
  -4   0   1   -0.04    0.14
  -4   0   1    0.11    0.16
  -3   0   0  706.48   14.65
  -3   0   0  725.52   14.78
   3   0   0  685.75   14.64
   2   0   1    0.02    0.09
  -2   0  -1    0.19    0.13
  -2   0  -1   -0.03    0.08
   0   0   3   -0.02    0.05
   0   0   3   -0.06    0.07
   0   0  -3   -0.43    0.18
   1   0  -4   11.24    0.52
  -2   0   5   -0.08    0.05
   2   0  -5   -0.22    0.28
  -2   0   5    0.03    0.06
  -3   0   6  184.13    3.81
  -3   0   6  180.47    3.85
   3   0  -6  185.41    4.04
  -4   0   7    0.02    0.12
   4   0  -7   -0.35    0.34
  -4   0   7    0.19    0.09
   5   0  -8    3.13    0.63
  -5   0   8    4.17    0.30
  -6   0   9   -0.01    0.19
   6   0  -9   -0.26    0.43
   7   0 -10   21.68    1.10
  -7   0  10   21.47    0.68
   8   0 -11    0.16    0.48
  -8   0  11   -0.30    0.25
   9   0 -12   22.25    1.26
  -9   0  12   21.54    0.81
  10   0 -13    0.93    0.59
 -10   0  13   -0.51    0.32
 -13   1  10    0.05    0.43
 -13  -1  10   -0.08    0.43
  12   1  -9   67.20    1.99
 -12   1   9   70.90    1.88
 -12  -1   9   71.76    1.91
 -11   1   8    0.70    0.37
  11   1  -8    1.64    0.45
 -11  -1   8    0.64    0.37
 -11  -1   8   -0.10    0.35
  10   1  -7    7.10    0.67
 -10   1   7    7.14    0.63
  10  -1  -7    7.32    0.49
 -10  -1   7    6.84    0.65
 -10  -1   7    6.40    0.69
  -9   1   6    0.89    0.32
   9   1  -6    0.51    0.38
  -9   1   6    0.48    0.28
   9   1  -6    0.96    0.22
  -9  -1   6    0.31    0.29
   9  -1  -6    0.71    0.25
  -9  -1   6    0.43    0.32
   8   1  -5   16.47    0.82
   8   1  -5   16.05    0.58
  -8   1   5   17.36    0.75
  -8   1   5   16.45    0.68
  -8  -1   5   18.12    0.77
   8  -1  -5   16.13    0.59
  -8  -1   5   16.84    0.71
   8  -1  -5   16.43    0.52
   7   1  -4   37.66    0.97
  -7   1   4   38.92    1.04
  -7   1   4   39.37    1.07
   7  -1  -4   38.74    0.94
   7  -1  -4   36.67    0.96
  -7  -1   4   38.84    1.04
  -7  -1   4   38.86    1.08
   6   1  -3   15.54    0.53
  -6   1   3   16.41    0.61
  -6   1   3   17.66    0.60
   6  -1  -3   16.37    0.48
  -6  -1   3   16.79    0.62
  -6  -1   3   16.43    0.59
   6  -1  -3   16.27    0.50
   5   1  -2   40.99    0.97
  -5   1   2   40.40    0.99
   5   1  -2   39.83    0.97
  -5   1   2   38.93    1.01
  -5  -1   2   40.74    1.01
  -5  -1   2   39.70    0.99
   5  -1  -2   38.84    0.94
  -4   1   1   88.51    1.93
   4   1  -1   93.08    1.93
  -4   1   1   86.66    1.94
  -4  -1   1   88.39    1.92
  -4  -1   1   88.19    1.93
   4  -1  -1   92.08    1.92
  -3   1   0   10.86    0.41
  -3   1   0   10.46    0.39
   3  -1   0   11.22    0.36
  -3  -1   0   10.61    0.37
  -3  -1   0   12.52    0.38
  -2   1  -1  200.00    4.42
   2   1   1  210.86    4.52
  -2   1  -1  202.88    4.57
  -2  -1  -1  210.48    4.36
   2  -1   1  208.13    4.55
  -2  -1  -1  206.09    4.38
  -2  -1  -1  208.56    4.41
   2  -1   1  209.63    4.61
  -1   1  -2  193.83    4.17
   1   1   2  186.97    4.02
  -1   1  -2  193.56    4.14
  -1   1  -2  191.97    4.23
  -1   1  -2  193.81    4.20
   1   1   2  194.10    4.07
   1  -1   2  200.60    4.13
   1  -1   2  184.32    4.06
   0   1  -3   86.13    1.92
   0   1  -3   82.60    1.77
   0   1  -3   83.28    1.75
   0   1  -3   85.10    1.77
   0  -1   3   82.21    1.76
   0  -1  -3   85.36    1.92
   0  -1   3   85.59    1.76
   1   1  -4   87.31    1.83
   1   1  -4   92.58    2.08
  -1  -1   4   90.33    1.85
  -1  -1   4   86.13    1.85
   1  -1  -4   86.64    2.04
   2   1  -5   82.12    1.94
   2  -1  -5   75.16    1.87
  -2  -1   5   76.55    1.65
   3   1  -6  106.73    2.55
  -3  -1   6  105.19    2.24
   3  -1  -6  108.89    2.53
  -4   1   7   84.18    1.76
  -4   1   7   91.10    1.75
   4   1  -7   83.50    2.19
  -4  -1   7   85.40    1.86
   4  -1  -7   86.23    2.17
  -5   1   8   58.36    1.23
   5   1  -8   54.54    1.68
  -5   1   8   57.31    1.23
  -5  -1   8   57.21    1.32
   5  -1  -8   56.66    1.67
  -6   1   9   96.75    2.03
   6   1  -9   92.00    2.51
   6  -1  -9   96.41    2.50
  -6  -1   9   94.37    2.10
   7   1 -10   19.23    1.09
  -7   1  10   20.30    0.63
  -7  -1  10   19.19    0.70
   7  -1 -10   20.96    1.07
  -8   1  11   12.46    0.56
   8   1 -11   12.07    0.99
  -8  -1  11   12.12    0.62
   8  -1 -11   13.04    0.97
  -9   1  12    1.87    0.33
   9   1 -12    2.40    0.64
  -9  -1  12    1.50    0.36
   9  -1 -12    3.24    0.68
  10   1 -13   12.44    1.18
 -10   1  13   11.12    0.67
  10  -1 -13   12.99    1.11
 -10  -1  13   11.25    0.74
 -12   2   9   15.87    0.88
  12   2  -9   16.75    1.02
 -12  -2   9   11.81    0.99
 -12  -2   9   15.64    0.89
 -11   2   8    4.21    0.63
  11   2  -8    4.40    0.78
 -11  -2   8    2.66    0.42
 -11  -2   8    3.54    0.47
 -10   2   7    0.92    0.34
  10   2  -7    0.34    0.52
 -10  -2   7    0.36    0.34
 -10  -2   7    0.58    0.35
   9   2  -6   56.15    1.41
  -9   2   6   59.73    1.62
  -9   2   6   56.35    1.49
  -9  -2   6   57.41    1.52
  -9  -2   6   58.55    1.58
  -8   2   5   50.63    1.32
   8   2  -5   50.39    1.27
  -8   2   5   50.51    1.35
  -8  -2   5   51.17    1.40
  -8  -2   5   51.39    1.35
  -7   2   4   84.38    1.96
  -7   2   4   86.52    1.99
   7   2  -4   85.91    1.94
  -7  -2   4   86.09    1.98
  -7  -2   4   86.21    2.02
   7  -2  -4   84.57    1.87
  -6   2   3   77.03    1.77
  -6   2   3   77.16    1.79
   6   2  -3   78.21    1.76
  -6  -2   3   77.73    1.78
  -6  -2   3   77.05    1.81
   6  -2  -3   77.75    1.71
  -5   2   2   96.30    2.15
  -5   2   2   95.91    2.16
   5   2  -2   99.10    2.15
  -5  -2   2   99.83    2.18
  -5  -2   2  100.21    2.16
   5  -2  -2  100.18    2.12
  -4   2   1   60.79    1.37
  -4   2   1   57.18    1.37
   4   2  -1   59.53    1.36
   4  -2  -1   57.82    1.34
  -4  -2   1   60.01    1.35
  -4  -2   1   61.07    1.37
  -3   2   0   81.99    1.80
   3   2   0   83.02    1.79
   3   2   0   83.35    1.79
   3  -2   0   81.65    1.79
  -3  -2   0   83.78    1.77
   3  -2   0   82.53    1.80
  -3  -2   0   81.37    1.77
  -2   2  -1    7.82    0.37
   2   2   1    8.77    0.32
   2   2   1    7.97    0.32
   2  -2   1    8.34    0.36
   2  -2   1    8.24    0.34
  -2  -2  -1    8.49    0.25
  -2  -2  -1    8.15    0.29
   1   2   2   98.72    2.03
  -1   2  -2   96.52    2.07
   1  -2   2   98.81    2.09
   1  -2   2   94.14    2.07
   0   2  -3  303.91    6.42
   0   2   3  290.79    6.16
   0   2   3  299.08    6.22
   0  -2   3  286.20    6.33
   0  -2   3  303.89    6.57
   1   2  -4   49.86    1.11
  -1   2   4   51.21    1.03
   1   2  -4   50.71    1.13
  -1   2   4   50.69    1.03
   1   2  -4   50.06    1.11
  -1  -2   4   48.60    1.15
  -1  -2   4   51.04    1.17
   2   2  -5    7.22    0.31
   2   2  -5    6.81    0.23
   2   2  -5    7.23    0.23
  -2  -2   5    7.38    0.36
  -2  -2   5    7.22    0.38
   3   2  -6   64.86    1.40
   3   2  -6   66.89    1.83
  -3  -2   6   65.17    1.48
  -3  -2   6   64.87    1.48
   3  -2  -6   62.98    1.71
  -4   2   7   13.84    0.33
   4   2  -7   14.92    0.98
  -4   2   7   13.05    0.33
   4  -2  -7   12.93    0.76
  -4  -2   7   14.20    0.54
  -4  -2   7   12.85    0.55
   5   2  -8   31.07    1.30
  -5   2   8   28.81    0.69
  -5  -2   8   30.72    0.86
   5  -2  -8   29.10    1.13
  -6   2   9   29.16    0.72
   6   2  -9   28.70    1.27
   6  -2  -9   30.07    1.20
  -6  -2   9   29.32    0.89
  -7   2  10    1.50    0.22
   7   2 -10    1.32    0.63
  -7  -2  10    1.31    0.30
   7  -2 -10    1.99    0.55
  -8   2  11    1.47    0.26
   8   2 -11    2.02    0.68
  -8  -2  11    1.12    0.33
   8  -2 -11    2.37    0.59
   9   2 -12    0.82    0.62
  -9  -2  12   -0.15    0.32
   9  -2 -12    0.52    0.55
 -10   2  13    2.61    0.39
 -10  -2  13    2.18    0.44
  10  -2 -13    4.64    0.96
 -12   3   9    1.14    0.43
  12   3  -9    1.33    0.69
 -12  -3   9    0.78    0.46
 -12  -3   9    0.16    0.44
 -11   3   8    6.62    0.69
  11   3  -8    6.04    0.89
 -11  -3   8    5.26    0.81
 -11  -3   8    5.96    0.71
 -10   3   7    8.28    0.64
 -10  -3   7    7.36    0.68
 -10  -3   7    7.39    0.78
   9   3  -6    4.21    0.45
  -9   3   6    2.84    0.39
  -9  -3   6    2.94    0.43
  -9  -3   6    2.85    0.39
  -8   3   5   21.44    0.81
   8   3  -5   21.06    0.75
  -8   3   5   22.99    0.83
  -8  -3   5   20.63    0.88
  -8  -3   5   21.43    0.83
  -7   3   4   30.32    0.94
   7   3  -4   30.72    0.91
  -7   3   4   31.33    0.96
  -7  -3   4   31.38    0.97
  -7  -3   4   32.41    1.02
  -6   3   3    7.46    0.52
   6   3  -3    7.97    0.47
   6  -3  -3    7.39    0.36
  -6  -3   3    8.19    0.56
  -6  -3   3    8.43    0.50
  -5   3   2   47.29    1.22
   5   3  -2   47.98    1.22
  -5  -3   2   50.53    1.24
  -5  -3   2   49.76    1.22
   5  -3  -2   49.32    1.16
   4   3  -1    3.39    0.35
  -4   3   1    3.50    0.39
  -4  -3   1    3.50    0.33
  -4  -3   1    4.01    0.35
   4  -3  -1    4.14    0.29
  -3   3   0    8.33    0.44
   3   3   0    8.25    0.39
  -3  -3   0    8.61    0.36
   3  -3   0    8.55    0.37
   3  -3   0    8.38    0.39
  -3  -3   0    8.65    0.38
   2   3   1    4.53    0.31
  -2   3  -1    4.53    0.37
  -2  -3  -1    4.79    0.25
   2  -3   1    4.46    0.31
   2  -3   1    4.68    0.34
  -2  -3  -1    4.74    0.20
   1   3   2    0.62    0.15
  -1   3  -2    0.41    0.19
   1  -3   2    0.58    0.15
   1  -3   2    0.80    0.18
   0   3   3  125.59    2.63
   0   3  -3  127.27    2.70
   0  -3   3  128.05    2.72
   0  -3   3  124.01    2.70
   1   3  -4  145.91    3.11
  -1   3   4  139.55    3.03
  -1   3   4  148.60    3.04
  -1  -3   4  151.34    3.16
  -1  -3   4  151.92    3.14
   2   3  -5   17.24    0.55
  -2   3   5   16.79    0.44
   2   3  -5   16.03    0.53
  -2   3   5   16.91    0.45
  -2  -3   5   17.09    0.62
  -2  -3   5   17.33    0.59
   3   3  -6   59.63    1.37
  -3   3   6   59.20    1.28
   3   3  -6   57.31    1.32
  -3   3   6   61.90    1.29
  -3  -3   6   58.04    1.44
  -3  -3   6   60.48    1.46
  -4   3   7   25.83    0.65
  -4  -3   7   27.24    0.87
  -4  -3   7   27.16    0.84
   5   3  -8   13.92    1.09
  -5   3   8   12.93    0.41
  -5  -3   8   13.79    0.64
  -5  -3   8   11.99    0.64
   6   3  -9   15.19    1.14
  -6   3   9   15.57    0.49
  -6  -3   9   16.47    0.71
   7   3 -10   12.99    1.17
  -7   3  10   13.64    0.51
  -7  -3  10   14.88    0.73
  -8   3  11    2.58    0.40
   8   3 -11    2.64    0.77
  -8  -3  11    1.99    0.40
  -9   3  12    3.31    0.47
   9   3 -12    3.51    0.80
  -9  -3  12    3.45    0.48
 -11   4   8   27.27    1.07
 -11  -4   8   25.88    1.10
 -11  -4   8   26.31    1.20
 -10   4   7   25.75    1.00
 -10  -4   7   26.28    1.05
 -10  -4   7   24.90    1.10
  -9   4   6   19.21    0.84
   9   4  -6   20.65    0.80
  -9  -4   6   19.42    0.87
  -9  -4   6   19.10    0.93
   8   4  -5   12.48    0.63
  -8   4   5   13.07    0.68
  -8  -4   5   12.20    0.70
  -8  -4   5   12.47    0.75
  -7   4   4   63.46    1.61
   7   4  -4   64.20    1.62
  -7  -4   4   64.53    1.66
  -7  -4   4   63.42    1.62
   6   4  -3   59.34    1.50
  -6   4   3   59.53    1.50
  -6  -4   3   58.72    1.52
  -6  -4   3   58.55    1.49
  -5   4   2   40.52    1.14
   5   4  -2   41.05    1.15
  -5  -4   2   42.41    1.12
   5  -4  -2   41.73    1.05
  -5  -4   2   42.63    1.13
   4   4  -1   13.38    0.58
  -4   4   1   12.25    0.61
  -4  -4   1   13.13    0.54
  -4  -4   1   13.58    0.54
   4  -4  -1   13.25    0.51
   3   4   0   35.91    0.98
  -3   4   0   36.29    1.02
   3  -4   0   36.25    0.95
   3  -4   0   35.03    0.95
  -3  -4   0   36.38    0.93
  -3  -4   0   37.91    0.91
  -2   4  -1   93.05    2.12
   2   4   1   92.47    2.08
  -2  -4  -1   95.47    1.92
   2  -4   1   94.19    2.11
   2  -4   1   92.93    2.09
  -2  -4  -1   92.69    2.02
   1   4   2   14.82    0.55
  -1   4  -2   14.49    0.60
   1  -4   2   15.39    0.61
  -1  -4  -2   14.82    0.43
   1  -4   2   15.28    0.57
   0   4   3   99.61    2.16
   0   4  -3   97.38    2.21
   0  -4   3   99.24    2.25
   0  -4   3   98.21    2.21
  -1   4   4   25.95    0.73
   1   4  -4   26.14    0.81
  -1  -4   4   26.46    0.85
  -1  -4   4   26.88    0.82
  -2   4   5   33.28    0.86
   2   4  -5   33.23    0.95
  -2  -4   5   34.82    1.03
  -2  -4   5   34.31    0.99
  -3   4   6    0.10    0.16
   3   4  -6    0.33    0.23
  -3  -4   6    0.05    0.25
  -3  -4   6   -0.12    0.23
  -4   4   7   23.02    0.66
  -4  -4   7   23.93    0.89
  -4  -4   7   25.38    0.86
  -5   4   8   17.76    0.56
  -5  -4   8   17.66    0.81
  -5  -4   8   18.65    0.79
   6   4  -9    5.11    0.99
  -6   4   9    5.50    0.37
  -6  -4   9    5.50    0.58
  -6  -4   9    3.77    0.60
   7   4 -10    6.25    1.07
  -7   4  10    6.47    0.43
  -7  -4  10    5.55    0.62
  -8   4  11    7.82    0.50
   8   4 -11    7.53    1.28
  -8  -4  11    7.53    0.70
 -10   5   7    3.75    0.50
 -10  -5   7    3.04    0.53
 -10  -5   7    2.24    0.43
  -9   5   6   11.36    0.78
  -9  -5   6   11.74    0.81
  -9  -5   6   10.86    0.80
  -8   5   5    6.60    0.63
   8   5  -5    8.44    0.65
  -8  -5   5    5.86    0.66
  -8  -5   5    5.90    0.66
  -7   5   4    0.12    0.32
   7   5  -4    0.12    0.29
  -7  -5   4   -0.31    0.31
  -7  -5   4   -0.08    0.25
   6   5  -3    7.06    0.58
  -6   5   3    7.67    0.59
  -6  -5   3    6.77    0.55
  -6  -5   3    7.02    0.58
   5   5  -2    9.01    0.62
  -5   5   2    8.77    0.62
  -5  -5   2    9.00    0.56
  -5  -5   2    9.46    0.57
   4   5  -1   34.75    1.05
  -4   5   1   34.19    1.06
  -4  -5   1   33.89    0.98
  -4  -5   1   34.86    0.96
   4  -5  -1   34.21    0.99
  -3   5   0   22.28    0.85
   3   5   0   22.10    0.80
  -3  -5   0   24.40    0.99
  -3  -5   0   23.99    0.66
   3  -5   0   22.38    0.74
   2   5   1  130.15    2.89
  -2   5  -1  132.16    2.93
   2  -5   1  131.80    2.88
   2  -5   1  128.48    2.88
  -1   5  -2    4.58    0.53
   1   5   2    4.13    0.45
   1  -5   2    4.86    0.46
   1  -5   2    4.70    0.44
   0   5   3   33.55    0.97
   0   5  -3   33.42    1.02
   0  -5   3   33.67    1.00
   0  -5   3   34.08    1.04
  -1   5   4   21.19    0.71
   1   5  -4   21.42    0.79
  -1  -5   4   21.55    0.79
  -1  -5   4   21.28    0.84
   2   5  -5   24.20    0.82
  -2   5   5   22.95    0.73
  -2  -5   5   23.39    0.90
  -2  -5   5   23.64    0.85
   3   5  -6    6.84    0.53
  -3   5   6    5.73    0.41
  -3  -5   6    4.60    0.60
  -3  -5   6    5.44    0.56
  -4   5   7    6.83    0.43
  -4  -5   7    6.15    0.64
  -4  -5   7    7.29    0.61
  -5   5   8    3.01    0.38
  -5  -5   8    2.65    0.43
  -6  -5   9    1.20    0.39
  -6  -5   9    1.00    0.38
  -7   5  10   16.92    0.65
   7   5 -10   13.57    1.67
  -7  -5  10   16.63    0.91
  -7  -5  10   13.67    0.94
  -9   6   6   31.12    1.17
  -9  -6   6   30.25    1.19
  -9  -6   6   30.28    1.21
  -8   6   5    3.19    0.48
  -8  -6   5    1.94    0.38
  -8  -6   5    2.25    0.52
  -7   6   4    0.13    0.37
   7   6  -4    0.61    0.36
  -7  -6   4   -0.15    0.27
   6   6  -3    2.09    0.40
  -6   6   3    2.03    0.40
  -6  -6   3    1.59    0.30
   5   6  -2    2.79    0.42
  -5   6   2    2.78    0.43
  -5  -6   2    2.79    0.47
  -4   6   1    9.78    0.70
   4   6  -1    9.28    0.68
  -4  -6   1    9.27    0.50
   3   6   0   18.85    0.81
  -3   6   0   19.37    0.86
  -3  -6   0   18.82    0.51
   2   6   1    4.52    0.53
  -2   6  -1    5.10    0.62
   2  -6   1    4.34    0.46
   2  -6   1    4.43    0.45
   1   6   2   36.98    1.13
  -1   6  -2   38.64    1.21
   1  -6   2   39.35    1.14
   1  -6   2   38.73    1.16
   0   6  -3   18.66    0.83
   0   6   3   17.40    0.75
   0  -6   3   17.74    0.78
   0  -6   3   18.09    0.79
   1   6  -4    4.06    0.57
  -1   6   4    3.06    0.47
  -1  -6   4    2.13    0.34
  -1  -6   4    2.38    0.37
  -2   6   5    0.54    0.27
  -2  -6   5   -0.18    0.27
  -2  -6   5    0.44    0.34
  -3   6   6    0.26    0.25
  -3  -6   6   -0.28    0.29
  -3  -6   6    0.22    0.34
  -4   6   7    0.85    0.27
  -4  -6   7   -0.01    0.31
  -4  -6   7    0.06    0.38
  -5  -6   8    0.01    0.34
  -5  -6   8    0.17    0.40
  -6  -6   9    0.00    0.42
  -6  -6   9   -0.39    0.35
  -6   7   3    3.16    0.50
  -6  -7   3    2.00    0.31
   5   7  -2   14.64    0.91
  -5   7   2   13.02    0.89
  -5  -7   2   12.08    0.61
   4   7  -1    1.17    0.41
  -4   7   1    0.90    0.42
  -4  -7   1    0.82    0.15
   3   7   0    6.49    0.69
  -3   7   0    5.68    0.77
  -2   7  -1    4.99    0.72
   2   7   1    4.12    0.62
   1   7   2    4.70    0.62
  -1   7  -2    5.34    0.75
   1  -7   2    4.50    0.53
   0   7   3   11.36    0.75
   0   7  -3   12.20    0.81
   0  -7   3   10.74    0.71
   1   7  -4    8.07    0.77
  -1   7   4    6.32    0.64
  -1  -7   4    5.43    0.69
  -1  -7   4    5.50    0.70
   2   7  -5   18.57    0.92
  -2   7   5   17.77    0.82
  -2  -7   5   17.55    0.91
  -2  -7   5   17.63    0.95
  -3   7   6    2.53    0.38
  -3  -7   6    2.04    0.45
  -3  -7   6    1.57    0.39
 -13   0   9   -0.32    0.41
 -12   0   8   19.90    0.96
 -11   0   7   -0.28    0.32
 -11   0   7    0.10    0.37
 -10   0   6    0.74    0.32
 -10   0   6    1.08    0.36
   9   0  -5   -0.04    0.18
  -9   0   5   -0.05    0.27
  -9   0   5   -0.13    0.33
   9   0  -5    0.42    0.25
   8   0  -4    4.82    0.39
  -8   0   4    4.80    0.53
  -8   0   4    4.84    0.58
   8   0  -4    3.96    0.35
   8   0  -4    4.20    0.35
   7   0  -3    0.13    0.19
  -7   0   3   -0.03    0.23
  -7   0   3    0.13    0.27
   7   0  -3   -0.03    0.17
  -6   0   2   79.48    1.79
   6   0  -2   74.11    1.72
   6   0  -2   78.89    1.69
  -6   0   2   77.20    1.75
  -5   0   1    0.08    0.20
  -5   0   1    0.05    0.19
   5   0  -1    0.12    0.15
  -4   0   0   26.85    0.70
   4   0   0   25.61    0.67
  -4   0   0   26.16    0.71
  -3   0  -1   -0.38    0.14
  -3   0  -1   -0.39    0.11
   3   0   1   -0.35    0.12
  -2   0  -2  775.77   16.08
  -2   0  -2  771.09   16.56
   2   0   2  811.68   16.24
   1   0   3   -0.01    0.08
  -1   0  -3   -0.06    0.19
   1   0   3   -0.17    0.10
   0   0  -4  771.95   16.82
  -1   0   5   -0.03    0.06
   1   0  -5   -0.24    0.27
  -1   0   5   -0.16    0.07
  -2   0   6  171.29    3.64
   2   0  -6  171.94    3.86
  -2   0   6  181.94    3.63
  -3   0   7    0.16    0.08
   3   0  -7   -0.11    0.32
  -3   0   7    0.04    0.09
  -4   0   8   30.08    0.69
  -4   0   8   29.37    0.70
   4   0  -8   29.98    1.14
  -5   0   9    0.02    0.16
   5   0  -9   -0.26    0.42
   6   0 -10   44.91    1.58
  -6   0  10   46.19    1.10
  -7   0  11   -0.37    0.21
   7   0 -11    0.16    0.52
  -8   0  12    5.66    0.50
   8   0 -12    7.69    0.96
   9   0 -13    0.28    0.58
  -9   0  13   -0.53    0.29
 -13   1   9   18.34    0.99
 -13  -1   9   19.70    0.99
 -12   1   8    8.26    0.74
 -12  -1   8    9.01    0.78
 -12  -1   8    6.16    0.84
 -11   1   7    1.05    0.38
 -11   1   7    2.15    0.43
 -11  -1   7    1.39    0.41
 -11  -1   7    0.83    0.36
  10   1  -6    4.11    0.59
 -10   1   6    4.55    0.58
 -10   1   6    4.33    0.65
 -10  -1   6    3.34    0.41
 -10  -1   6    3.91    0.58
   9   1  -5   16.59    0.61
  -9   1   5   16.70    0.76
  -9   1   5   18.52    0.82
   9   1  -5   16.05    0.80
   9  -1  -5   16.46    0.56
  -9  -1   5   17.08    0.74
  -9  -1   5   17.84    0.81
   9  -1  -5   16.87    0.81
   9  -1  -5   17.22    0.79
   8   1  -4   28.63    0.83
  -8   1   4   30.22    0.99
  -8  -1   4   29.47    0.94
  -8  -1   4   29.94    0.98
   8  -1  -4   28.58    0.80
   8  -1  -4   28.07    0.75
  -7   1   3   62.48    1.55
   7   1  -3   62.53    1.47
  -7   1   3   64.10    1.52
   7   1  -3   63.32    1.48
  -7  -1   3   63.25    1.55
   7  -1  -3   60.42    1.44
  -7  -1   3   62.51    1.50
  -6   1   2  180.80    3.71
   6   1  -2  171.85    3.69
  -6   1   2  176.08    3.73
  -6  -1   2  180.24    3.70
   6  -1  -2  171.44    3.67
  -6  -1   2  173.54    3.72
  -5   1   1   19.15    0.65
  -5   1   1   18.43    0.61
   5   1  -1   19.13    0.57
  -5  -1   1   19.14    0.61
   5  -1  -1   18.70    0.56
  -5  -1   1   19.58    0.62
  -4   1   0  134.61    2.89
   4   1   0  134.99    2.86
  -4   1   0  135.50    2.87
  -4  -1   0  136.59    2.86
   4  -1   0  137.81    2.87
  -4  -1   0  138.88    2.86
  -3   1  -1   26.89    0.63
  -3   1  -1   26.88    0.72
  -3   1  -1   26.91    0.70
   3   1   1   28.05    0.68
  -3  -1  -1   27.61    0.64
   3  -1   1   26.87    0.69
  -3  -1  -1   27.52    0.67
  -3  -1  -1   27.98    0.65
   3  -1   1   27.74    0.70
  -2   1  -2  576.63   12.41
   2   1   2  600.87   12.34
   2   1   2  586.71   12.26
  -2   1  -2  614.57   12.72
  -2   1  -2  586.85   12.35
  -2  -1  -2  587.04   12.12
   2  -1   2  594.11   12.53
   2  -1   2  594.92   12.49
  -1   1  -3  183.32    4.20
  -1   1  -3  181.92    3.86
  -1   1  -3  181.79    3.80
  -1   1  -3  180.41    3.81
   1   1   3  184.71    3.89
   1   1   3  176.48    3.83
   1  -1   3  183.98    3.99
   1  -1   3  181.59    3.90
   0   1  -4  155.61    3.30
   0   1  -4  158.10    3.42
   0  -1   4  155.50    3.43
   0  -1   4  160.61    3.33
   0  -1  -4  155.75    3.42
   1   1  -5   37.06    1.12
   1  -1  -5   37.49    1.09
  -1  -1   5   37.60    0.86
   2   1  -6   54.36    1.51
   2  -1  -6   53.55    1.47
  -2  -1   6   53.38    1.19
   3   1  -7   47.13    1.46
  -3  -1   7   47.65    1.10
   3  -1  -7   49.30    1.45
   4   1  -8    8.63    0.74
   4  -1  -8    8.18    0.73
  -4  -1   8    8.66    0.40
   5   1  -9    9.62    0.85
  -5   1   9   11.20    0.34
  -5  -1   9   10.51    0.46
   5  -1  -9    9.67    0.82
  -6   1  10   26.13    0.68
   6   1 -10   25.96    1.23
  -6  -1  10   25.82    0.78
   6  -1 -10   26.02    1.15
  -7   1  11   19.39    0.62
   7   1 -11   18.68    1.13
   7  -1 -11   19.42    1.06
  -7  -1  11   19.09    0.70
   8   1 -12    9.86    1.03
  -8   1  12    8.54    0.51
  -8  -1  12    8.66    0.58
   8  -1 -12   10.11    1.01
   9   1 -13    0.32    0.60
  -9   1  13   -0.38    0.27
   9  -1 -13    1.10    0.61
  -9  -1  13   -0.26    0.31
 -13   2   9    7.12    0.83
 -13  -2   9    7.00    0.83
 -12   2   8    9.44    0.76
  12   2  -8   10.27    0.87
 -12  -2   8    8.69    0.88
 -12  -2   8    9.57    0.79
  11   2  -7    7.87    0.84
 -11   2   7   10.50    0.74
 -11  -2   7    9.85    0.82
 -11  -2   7    9.88    0.75
 -10   2   6    1.51    0.37
 -10   2   6    2.20    0.40
 -10  -2   6    1.88    0.38
 -10  -2   6    1.69    0.38
  -9   2   5   10.53    0.64
  -9   2   5   11.48    0.72
   9   2  -5   10.00    0.53
  -9  -2   5   10.27    0.72
  -9  -2   5   10.29    0.65
  -8   2   4    1.85    0.34
  -8   2   4    1.72    0.31
   8   2  -4    1.53    0.27
  -8  -2   4    2.20    0.36
   8  -2  -4    2.25    0.30
  -8  -2   4    1.70    0.33
  -7   2   3    1.10    0.27
  -7   2   3    1.28    0.31
   7   2  -3    1.43    0.25
  -7  -2   3    1.26    0.28
  -7  -2   3    1.49    0.30
   7  -2  -3    1.35    0.20
   6   2  -2    0.30    0.21
  -6   2   2    0.30    0.21
  -6   2   2    0.30    0.25
   6  -2  -2    0.34    0.16
  -6  -2   2    0.46    0.21
  -6  -2   2    0.41    0.24
  -5   2   1   58.94    1.44
  -5   2   1   61.00    1.43
   5   2  -1   59.92    1.41
   5   2  -1   59.21    1.41
  -5  -2   1   62.70    1.42
   5  -2  -1   60.38    1.39
  -5  -2   1   61.30    1.40
   4   2   0   49.98    1.18
  -4   2   0   49.61    1.22
  -4   2   0   50.91    1.20
  -4  -2   0   50.52    1.16
  -4  -2   0   51.24    1.16
   4  -2   0   48.55    1.17
   3   2   1  140.60    2.95
  -3   2  -1  142.11    2.99
  -3   2  -1  139.29    2.97
  -3  -2  -1  143.04    2.92
   3  -2   1  136.05    2.98
  -3  -2  -1  142.90    3.10
  -3  -2  -1  145.42    2.98
   3  -2   1  139.05    2.97
  -2   2  -2   77.71    1.69
   2   2   2   78.11    1.66
  -2   2  -2   76.87    1.71
  -2  -2  -2   76.01    1.60
   2  -2   2   78.13    1.71
   2  -2   2   75.12    1.69
  -1   2  -3    7.56    0.37
   1   2   3    7.86    0.27
   1   2   3    7.40    0.26
  -1   2  -3    7.49    0.35
   1  -2   3    7.90    0.36
   1  -2   3    7.61    0.34
   0   2  -4   94.80    1.98
   0   2  -4   93.91    2.00
   0   2   4   93.60    1.92
   0   2   4   93.77    1.98
   0   2  -4   91.40    1.96
   0  -2   4   93.73    2.02
   0  -2   4   95.69    2.04
   1   2  -5   48.25    1.40
   1   2  -5   47.52    1.08
  -1  -2   5   48.48    1.13
  -1  -2   5   48.29    1.14
   2   2  -6   24.46    0.61
   2   2  -6   26.83    1.08
  -2  -2   6   24.80    0.71
   2  -2  -6   23.79    0.91
  -2  -2   6   25.35    0.70
   3   2  -7   10.05    0.81
  -3  -2   7    9.30    0.46
   3  -2  -7    9.41    0.66
  -3  -2   7   10.17    0.46
   4   2  -8    9.09    0.89
  -4  -2   8    8.66    0.47
   4  -2  -8    8.25    0.73
  -5   2   9  193.43    4.06
   5   2  -9  204.62    4.69
  -5  -2   9  202.27    4.21
   5  -2  -9  194.82    4.58
   6   2 -10    9.93    1.00
  -6   2  10   10.16    0.37
   6  -2 -10   10.59    0.89
  -6  -2  10   10.68    0.57
   7   2 -11   19.99    1.18
  -7   2  11   21.46    0.63
  -7  -2  11   21.19    0.80
   7  -2 -11   21.83    1.18
   8   2 -12    6.49    1.03
  -8   2  12    5.37    0.44
  -8  -2  12    5.04    0.57
   8  -2 -12    6.47    0.95
   9   2 -13    8.28    1.11
  -9   2  13    5.82    0.52
  -9  -2  13    5.61    0.65
   9  -2 -13    8.22    1.06
 -12   3   8    4.66    0.74
  12   3  -8    3.33    0.79
 -12  -3   8    3.40    0.51
 -12  -3   8    3.86    0.55
 -11   3   7    8.56    0.75
 -11  -3   7    8.16    0.75
 -11  -3   7    7.59    0.84
 -10   3   6   34.16    1.14
 -10  -3   6   35.19    1.16
 -10  -3   6   34.39    1.22
  -9   3   5   40.10    1.23
  -9   3   5   38.04    1.18
   9   3  -5   38.81    1.11
  -9  -3   5   39.91    1.20
  -9  -3   5   38.46    1.24
   8   3  -4   28.32    0.90
  -8   3   4   28.28    0.96
  -8   3   4   29.09    0.99
  -8  -3   4   28.94    0.96
  -8  -3   4   29.01    1.00
  -7   3   3  175.76    3.86
   7   3  -3  180.18    3.85
  -7   3   3  183.00    3.90
  -7  -3   3  178.56    3.86
  -7  -3   3  180.12    3.88
   7  -3  -3  176.56    3.77
  -6   3   2   38.85    1.10
   6   3  -2   39.34    1.08
  -6   3   2   39.25    1.12
  -6  -3   2   40.64    1.10
   6  -3  -2   39.80    1.02
  -6  -3   2   40.35    1.07
  -5   3   1   39.11    1.06
   5   3  -1   37.88    1.03
  -5   3   1   38.71    1.07
   5  -3  -1   39.54    1.00
  -5  -3   1   40.61    1.03
  -5  -3   1   38.84    1.02
  -4   3   0   88.40    1.97
  -4   3   0   82.59    1.97
   4   3   0   85.87    1.94
  -4  -3   0   89.00    1.92
  -4  -3   0   89.35    1.90
   4  -3   0   86.26    1.94
   3   3   1   31.16    0.84
  -3   3  -1   32.00    0.88
  -3  -3  -1   33.14    0.73
   3  -3   1   32.04    0.85
   3  -3   1   31.75    0.86
  -3  -3  -1   32.01    0.79
  -2   3  -2    7.29    0.42
   2   3   2    7.29    0.34
  -2  -3  -2    6.86    0.26
   2  -3   2    7.17    0.37
   2  -3   2    7.61    0.41
  -1   3  -3    9.27    0.45
   1   3   3    9.33    0.36
   1  -3   3    9.46    0.42
   1  -3   3    9.10    0.44
   0   3  -4   31.21    0.84
   0   3   4   30.81    0.75
   0   3   4   30.83    0.78
   0   3  -4   32.13    0.84
   0  -3   4   32.40    0.86
   0  -3   4   31.93    0.88
   1   3  -5   98.97    2.11
   1   3  -5   91.55    2.07
  -1   3   5   95.74    2.02
  -1   3   5   93.46    2.02
   1   3  -5   99.79    2.10
  -1  -3   5   98.27    2.16
  -1  -3   5  100.23    2.18
   2   3  -6   53.64    1.21
  -2   3   6   55.40    1.18
  -2   3   6   53.82    1.18
   2   3  -6   54.57    1.28
   2   3  -6   55.30    1.22
  -2  -3   6   55.80    1.35
  -2  -3   6   55.81    1.37
  -3   3   7   76.29    1.64
   3   3  -7   82.55    2.29
  -3  -3   7   76.27    1.84
  -3  -3   7   78.30    1.82
  -4   3   8   32.22    0.75
   4   3  -8   35.37    1.53
  -4  -3   8   32.15    1.00
  -4  -3   8   33.71    0.98
   5   3  -9   23.41    1.36
  -5   3   9   20.62    0.55
  -5  -3   9   21.88    0.79
   6   3 -10    5.06    1.02
  -6   3  10    5.89    0.30
  -6  -3  10    4.44    0.52
  -7   3  11   11.83    0.46
  -7  -3  11   11.39    0.72
  -8   3  12    4.15    0.42
   8   3 -12    5.17    1.12
  -8  -3  12    4.06    0.48
 -11   4   7    1.48    0.45
 -11  -4   7    0.66    0.39
 -11  -4   7    1.54    0.46
 -10   4   6    7.18    0.71
 -10  -4   6    6.99    0.76
 -10  -4   6    6.67    0.69
  -9   4   5    0.42    0.36
   9   4  -5    0.77    0.31
  -9  -4   5    0.11    0.36
  -9  -4   5   -0.03    0.29
   8   4  -4    8.98    0.60
  -8   4   4    9.91    0.70
  -8   4   4    8.63    0.65
  -8  -4   4    8.93    0.63
  -8  -4   4    8.48    0.66
   7   4  -3   19.36    0.76
  -7   4   3   20.39    0.84
  -7   4   3   19.17    0.80
  -7  -4   3   19.25    0.79
  -7  -4   3   18.79    0.76
   6   4  -2   11.07    0.58
  -6   4   2   10.26    0.64
  -6  -4   2   11.10    0.57
  -6  -4   2   11.95    0.59
   6  -4  -2   11.01    0.49
   5   4  -1    5.61    0.47
  -5   4   1    5.53    0.54
   5  -4  -1    5.96    0.39
  -5  -4   1    6.13    0.45
  -5  -4   1    5.17    0.43
  -4   4   0   38.34    1.10
   4   4   0   39.09    1.06
  -4  -4   0   39.02    1.00
   4  -4   0   38.66    1.04
  -4  -4   0   39.56    0.97
   3   4   1    7.90    0.47
  -3   4  -1    8.20    0.55
   3  -4   1    8.73    0.47
   3  -4   1    8.22    0.46
  -3  -4  -1    8.30    0.38
  -2   4  -2    1.11    0.30
   2   4   2    1.33    0.24
   2  -4   2    1.21    0.25
   2  -4   2    1.22    0.23
   1   4   3   56.94    1.35
  -1   4  -3   57.89    1.42
   1  -4   3   57.53    1.41
   1  -4   3   57.61    1.45
   0   4  -4  119.48    2.67
   0   4   4  119.30    2.59
   0  -4   4  123.86    2.69
   0  -4   4  122.85    2.72
   1   4  -5   34.85    0.97
  -1   4   5   33.78    0.87
  -1  -4   5   34.75    1.03
  -1  -4   5   34.83    1.00
  -2   4   6    1.98    0.28
   2   4  -6    2.44    0.38
   2   4  -6    1.49    0.22
  -2  -4   6    1.71    0.30
  -2  -4   6    1.26    0.26
   3   4  -7    0.55    0.18
  -3   4   7    0.66    0.16
  -3  -4   7    0.14    0.24
  -3  -4   7    0.38    0.28
  -4   4   8   11.03    0.41
  -4  -4   8    9.97    0.67
  -4  -4   8   11.25    0.64
  -5   4   9    3.29    0.29
   5   4  -9    2.11    0.93
  -5  -4   9    2.68    0.38
  -6   4  10    9.24    0.41
   6   4 -10    7.93    1.28
  -6  -4  10    8.88    0.66
   7   4 -11   13.71    1.40
  -7   4  11   14.37    0.55
  -7  -4  11   13.50    0.82
  -8   4  12    4.58    0.47
   8   4 -12    5.71    1.21
  -8  -4  12    4.26    0.53
 -10   5   6    1.27    0.44
 -10  -5   6    0.37    0.43
 -10  -5   6    0.25    0.35
   9   5  -5    0.70    0.33
  -9   5   5    0.55    0.40
  -9  -5   5   -0.41    0.34
  -9  -5   5    0.09    0.32
  -8   5   4    7.45    0.67
  -8   5   4    8.27    0.86
   8   5  -4    7.71    0.63
  -8  -5   4    5.65    0.61
  -8  -5   4    6.54    0.63
   7   5  -3   16.22    0.77
  -7   5   3   14.89    0.80
  -7   5   3   17.70    0.84
  -7  -5   3   14.72    0.73
  -7  -5   3   14.88    0.74
  -6   5   2   17.91    0.80
   6   5  -2   18.03    0.79
  -6  -5   2   17.14    0.70
  -6  -5   2   16.90    0.74
  -5   5   1   30.10    1.01
   5   5  -1   30.06    0.99
  -5  -5   1   30.27    0.88
   4   5   0    2.03    0.33
  -4   5   0    2.26    0.37
   4  -5   0    2.68    0.40
  -4  -5   0    2.54    0.30
  -3   5  -1   30.44    0.99
   3   5   1   29.60    0.95
   3  -5   1   30.19    0.92
   3  -5   1   29.76    0.91
   2   5   2   35.53    1.04
  -2   5  -2   36.24    1.09
   2  -5   2   35.92    1.05
   2  -5   2   37.09    1.07
  -1   5  -3  129.56    2.93
   1   5   3  132.28    2.89
   1  -5   3  133.47    2.95
   1  -5   3  129.96    2.96
   0   5  -4   36.09    1.06
   0   5   4   34.96    0.98
   0  -5   4   35.37    1.06
   0  -5   4   34.85    1.10
  -1   5   5    8.24    0.47
   1   5  -5    9.00    0.58
  -1  -5   5    8.20    0.57
  -1  -5   5    8.43    0.63
   2   5  -6    1.16    0.29
  -2   5   6    0.91    0.22
  -2  -5   6    0.47    0.27
  -2  -5   6    0.64    0.32
  -3   5   7    3.38    0.37
   3   5  -7    3.75    0.45
  -3  -5   7    3.42    0.42
  -4   5   8    3.30    0.36
   4   5  -8    3.66    0.38
  -4  -5   8    2.15    0.37
  -4  -5   8    3.15    0.44
  -5  -5   9   -0.05    0.32
  -5  -5   9    0.18    0.37
   6   5 -10    0.10    0.97
  -6  -5  10    0.46    0.40
  -6  -5  10    0.17    0.43
  -9   6   5   10.18    0.85
   9   6  -5   12.84    0.82
  -9  -6   5    9.02    0.80
  -8   6   4    6.46    0.74
  -8  -6   4    5.78    0.68
   7   6  -3    3.61    0.49
  -7   6   3    3.01    0.48
   6   6  -2    7.66    0.68
  -6   6   2    7.28    0.71
  -6  -6   2    6.16    0.53
   5   6  -1   11.00    0.71
  -5   6   1   11.32    0.75
  -5  -6   1   11.09    0.52
   4   6   0    1.35    0.36
  -4   6   0    1.66    0.41
  -3   6  -1    4.07    0.64
   3   6   1    3.74    0.57
   3  -6   1    4.05    0.45
   3  -6   1    3.05    0.46
  -2   6  -2    4.11    0.60
   2   6   2    3.92    0.55
   2  -6   2    3.86    0.49
   2  -6   2    4.17    0.51
  -1   6  -3   14.30    0.78
   1   6   3   13.89    0.69
   1  -6   3   13.88    0.74
   1  -6   3   14.06    0.71
   0   6   4   13.25    0.65
   0   6  -4   13.61    0.74
   0  -6   4   12.71    0.75
   0  -6   4   11.71    0.69
  -1   6   5   22.66    0.82
   1   6  -5   24.82    0.91
  -1  -6   5   24.71    0.95
  -1  -6   5   23.19    0.98
  -2   6   6   25.77    0.86
  -2  -6   6   27.94    1.04
  -2  -6   6   26.30    1.08
  -3   6   7   11.38    0.61
  -3  -6   7   10.99    0.83
  -3  -6   7   11.66    0.80
   4   6  -8    1.03    0.25
  -4   6   8    1.03    0.27
  -4  -6   8   -0.06    0.39
  -4  -6   8    0.03    0.33
  -5  -6   9    4.74    0.72
  -5  -6   9    4.39    0.51
  -6   7   2    1.05    0.46
   6   7  -2    2.06    0.47
  -6  -7   2    0.73    0.22
   5   7  -1    2.12    0.45
  -5   7   1    2.47    0.48
   4   7   0   14.70    0.86
  -4   7   0   16.23    0.92
   3   7   1    1.31    0.39
  -3   7  -1    1.12    0.43
   2   7   2    9.65    0.73
  -2   7  -2    9.40    0.81
   2  -7   2    8.63    0.61
  -1   7  -3    6.59    0.72
   1   7   3    6.31    0.66
   1  -7   3    5.60    0.62
   0   7   4    0.72    0.35
   0   7  -4    1.35    0.40
   0  -7   4    0.11    0.36
   0  -7   4    0.22    0.31
  -1  -7   5    3.05    0.42
  -1  -7   5    4.19    0.51
  -2   7   6   16.09    0.78
  -2  -7   6   15.54    0.98
  -2  -7   6   15.76    0.88
 -13   0   8   27.28    1.08
 -13   0   8   19.84    1.19
 -12   0   7   -0.46    0.40
 -11   0   6    2.45    0.40
 -11   0   6    3.39    0.47
 -10   0   5    0.17    0.31
  10   0  -5   -0.08    0.20
 -10   0   5   -0.36    0.34
  -9   0   4   16.65    0.81
   9   0  -4   15.99    0.55
   9   0  -4   15.71    0.61
  -9   0   4   17.47    0.75
  -8   0   3   -0.09    0.31
  -8   0   3    0.11    0.27
   8   0  -3    0.02    0.20
   8   0  -3    0.11    0.18
  -7   0   2  144.33    3.10
  -7   0   2  145.83    3.13
   7   0  -2  143.74    2.98
   7   0  -2  137.44    3.06
  -6   0   1    0.12    0.20
  -6   0   1    0.09    0.24
   6   0  -1   -0.04    0.16
  -5   0   0  364.31    7.91
   5   0   0  358.27    8.00
  -5   0   0  362.71    8.04
  -4   0  -1    0.15    0.14
  -4   0  -1    0.07    0.18
   4   0   1    0.20    0.14
   3   0   2  363.03    8.06
   3   0   2  394.16    8.31
  -3   0  -2  385.37    8.01
  -3   0  -2  381.76    8.02
  -3   0  -2  384.82    8.06
  -2   0  -3   -0.26    0.18
   2   0   3   -0.08    0.11
   2   0   3   -0.07    0.10
  -2   0  -3   -0.05    0.11
   1   0   4  713.99   14.60
  -1   0  -4  706.90   15.57
   1   0   4  686.49   14.52
   0   0  -5   -0.21    0.26
   0   0   5    0.07    0.08
   0   0   5   -0.02    0.10
  -1   0   6  181.64    3.85
   1   0  -6  184.69    4.05
  -1   0   6  184.02    3.80
   2   0  -7   -0.33    0.35
  -2   0   7    0.17    0.09
  -2   0   7    0.05    0.09
  -3   0   8   61.86    1.31
   3   0  -8   61.13    1.77
  -3   0   8   62.38    1.31
   4   0  -9   -0.30    0.44
  -4   0   9   -0.08    0.14
  -5   0  10  105.62    2.18
   5   0 -10   98.20    2.66
  -6   0  11   -0.07    0.20
   6   0 -11    0.11    0.52
   7   0 -12   38.06    1.57
  -7   0  12   39.34    1.04
   8   0 -13    0.32    0.58
   9   0 -14    5.87    1.11
  -9   0  14    3.47    0.41
 -13   1   8    2.88    0.53
 -13  -1   8    3.04    0.55
 -12   1   7    6.44    0.75
 -12   1   7    4.38    0.52
 -12  -1   7    6.58    0.81
 -12  -1   7    7.46    0.73
 -11   1   6    6.84    0.77
 -11   1   6    6.94    0.68
 -11  -1   6    6.71    0.75
 -11  -1   6    6.79    0.68
 -10   1   5   39.10    1.20
 -10   1   5   39.65    1.27
  10   1  -5   38.17    1.07
  10   1  -5   36.92    1.19
 -10  -1   5   40.55    1.20
 -10  -1   5   40.22    1.27
  -9   1   4    2.28    0.37
  -9   1   4    2.12    0.35
   9   1  -4    2.69    0.37
  -9  -1   4    1.88    0.33
  -9  -1   4    2.36    0.38
   9  -1  -4    2.26    0.35
  -8   1   3   16.10    0.71
  -8   1   3   15.54    0.76
   8   1  -3   15.40    0.60
   8   1  -3   15.96    0.61
  -8  -1   3   16.16    0.70
  -8  -1   3   16.31    0.74
   8  -1  -3   16.11    0.58
   7   1  -2   14.43    0.56
  -7   1   2   14.35    0.64
  -7   1   2   14.47    0.69
   7  -1  -2   14.35    0.53
  -7  -1   2   14.59    0.64
  -7  -1   2   14.16    0.61
   6   1  -1    1.33    0.21
  -6   1   1    1.65    0.29
  -6   1   1    1.04    0.24
  -6  -1   1    1.42    0.23
   6  -1  -1    1.31    0.20
  -6  -1   1    1.68    0.27
   5   1   0    9.62    0.41
  -5   1   0    9.97    0.47
  -5   1   0    9.90    0.51
  -5  -1   0   10.41    0.45
   5  -1   0   10.00    0.41
  -5  -1   0   10.08    0.43
  -4   1  -1   12.34    0.49
   4   1   1   12.58    0.43
  -4   1  -1   13.04    0.51
  -4  -1  -1   12.92    0.38
  -4  -1  -1   13.18    0.42
   4  -1   1   12.43    0.44
  -4  -1  -1   12.81    0.44
  -3   1  -2   59.86    1.33
  -3   1  -2   57.72    1.31
   3   1   2   59.81    1.31
  -3   1  -2   59.27    1.33
   3  -1   2   57.08    1.33
  -3  -1  -2   59.44    1.27
   3  -1   2   59.37    1.34
  -2   1  -3  676.33   14.63
   2   1   3  662.19   13.99
  -2   1  -3  663.42   13.81
  -2   1  -3  676.62   14.00
   2  -1   3  682.04   14.17
   2  -1   3  667.78   14.23
   1   1   4   72.21    1.53
   1   1   4   73.50    1.53
  -1   1  -4   73.80    1.55
  -1   1  -4   73.30    1.75
  -1  -1  -4   74.24    1.78
   1  -1   4   74.33    1.59
   1  -1   4   73.34    1.59
   0   1  -5   64.24    1.64
   0  -1   5   64.63    1.41
   0  -1  -5   63.09    1.63
   0  -1   5   65.42    1.39
   1   1  -6   68.40    1.78
  -1  -1   6   67.58    1.47
   1  -1  -6   66.70    1.76
   2   1  -7   12.96    0.79
   2  -1  -7   12.85    0.72
  -2  -1   7   13.64    0.43
   3   1  -8   37.07    1.33
   3  -1  -8   38.27    1.32
  -3  -1   8   36.91    0.91
   4   1  -9   23.41    1.12
  -4  -1   9   23.77    0.67
   4  -1  -9   22.51    1.04
  -5   1  10   14.70    0.42
   5   1 -10   13.56    0.99
   5  -1 -10   15.21    0.99
  -5  -1  10   14.50    0.55
   6   1 -11   73.79    2.27
  -6   1  11   79.97    1.68
  -6  -1  11   77.56    1.79
   6  -1 -11   76.36    2.29
  -7   1  12    2.26    0.36
   7   1 -12    3.66    0.79
   7  -1 -12    3.02    0.66
  -7  -1  12    2.88    0.46
  -8   1  13    2.96    0.43
  -8  -1  13    3.31    0.51
 -13   2   8    3.77    0.56
 -13  -2   8    2.59    0.53
 -13  -2   8    2.78    0.51
 -12   2   7   17.12    0.90
 -12  -2   7   17.54    0.93
 -12  -2   7   16.95    1.01
 -11   2   6    7.35    0.68
 -11   2   6    6.13    0.81
 -11  -2   6    7.32    0.70
 -11  -2   6    6.55    0.77
  10   2  -5   26.43    0.87
 -10   2   5   26.46    0.98
 -10   2   5   28.65    1.10
 -10  -2   5   26.37    1.04
 -10  -2   5   27.41    1.01
  -9   2   4   20.30    0.83
   9   2  -4   20.20    0.73
  -9   2   4   20.77    0.92
  -9  -2   4   20.66    0.82
  -9  -2   4   21.77    0.89
   8   2  -3   75.90    1.80
  -8   2   3   76.27    1.90
  -8   2   3   76.29    1.85
  -8  -2   3   75.30    1.84
  -8  -2   3   76.93    1.87
   8  -2  -3   75.83    1.75
   7   2  -2  106.58    2.40
  -7   2   2  109.35    2.44
  -7   2   2  104.56    2.46
   7  -2  -2  106.26    2.38
  -7  -2   2  109.61    2.41
  -7  -2   2  110.14    2.44
  -6   2   1   47.12    1.21
   6   2  -1   46.98    1.18
   6   2  -1   46.41    1.18
  -6   2   1   46.35    1.26
   6  -2  -1   46.14    1.16
  -6  -2   1   47.36    1.19
  -6  -2   1   49.73    1.20
  -5   2   0   80.99    1.94
  -5   2   0   85.74    1.92
   5   2   0   83.67    1.90
  -5  -2   0   87.28    1.87
  -5  -2   0   84.33    1.87
   5  -2   0   86.55    1.90
  -4   2  -1  212.31    4.38
   4   2   1  213.44    4.56
  -4   2  -1  210.85    4.60
  -4  -2  -1  210.24    4.49
  -4  -2  -1  216.37    4.42
  -4  -2  -1  207.14    4.32
   4  -2   1  206.14    4.68
   4  -2   1  206.58    4.38
  -3   2  -2   39.31    0.97
   3   2   2   39.00    0.94
  -3   2  -2   39.16    0.99
  -3   2  -2   40.08    1.02
   3  -2   2   38.82    0.97
   3  -2   2   38.20    0.98
  -3  -2  -2   37.43    0.87
  -2   2  -3   55.58    1.40
   2   2   3   55.19    1.22
  -2   2  -3   54.57    1.27
  -2   2  -3   55.33    1.27
   2  -2   3   55.12    1.30
   2  -2   3   55.83    1.29
   1   2   4   61.59    1.32
  -1   2  -4   60.65    1.33
  -1   2  -4   62.02    1.35
  -1   2  -4   61.12    1.37
  -1   2  -4   63.27    1.59
   1   2   4   60.22    1.31
   1  -2   4   61.75    1.41
   1  -2   4   62.00    1.40
   0   2  -5  120.42    2.81
   0   2   5  119.41    2.50
   0   2   5  120.27    2.44
   0   2  -5  118.68    2.51
   0  -2   5  118.73    2.56
   0  -2   5  120.93    2.56
   1   2  -6   70.12    1.90
   1   2  -6   68.06    1.49
  -1  -2   6   69.27    1.58
  -1  -2   6   70.66    1.58
   2   2  -7   14.58    0.92
  -2  -2   7   14.27    0.52
  -2  -2   7   13.95    0.53
   2  -2  -7   14.01    0.77
   3   2  -8   49.33    1.64
  -3  -2   8   51.22    1.23
   3  -2  -8   49.56    1.58
   4   2  -9    3.78    0.69
  -4  -2   9    2.62    0.41
   4  -2  -9    3.47    0.70
   5   2 -10   19.47    1.19
  -5   2  10   19.42    0.46
  -5  -2  10   20.10    0.71
   5  -2 -10   19.46    1.09
   6   2 -11    2.52    0.67
  -6   2  11    2.31    0.25
   6  -2 -11    2.84    0.64
  -6  -2  11    1.96    0.32
  -7   2  12    0.31    0.21
   7   2 -12    0.69    0.60
  -7  -2  12    0.52    0.30
   7  -2 -12    0.94    0.60
  -8   2  13   12.05    0.56
   8   2 -13   12.84    1.21
   8  -2 -13   14.08    1.19
  -8  -2  13   12.43    0.73
 -12   3   7    3.17    0.51
 -12  -3   7    2.88    0.48
 -12  -3   7    3.93    0.57
 -11   3   6   12.38    0.80
 -11  -3   6   12.38    0.81
 -11  -3   6   11.90    0.87
 -10   3   5    4.27    0.73
 -10   3   5    4.10    0.65
  10   3  -5    5.18    0.49
 -10  -3   5    3.97    0.67
 -10  -3   5    4.31    0.50
  -9   3   4    6.08    0.71
   9   3  -4    5.98    0.52
  -9   3   4    5.42    0.61
  -9  -3   4    5.00    0.63
  -9  -3   4    5.51    0.60
   8   3  -3    8.40    0.54
  -8   3   3    8.70    0.68
  -8   3   3    8.75    0.63
   8  -3  -3    8.42    0.45
  -8  -3   3    8.53    0.59
  -8  -3   3    8.22    0.63
  -7   3   2   20.94    0.80
   7   3  -2   19.65    0.73
  -7   3   2   19.93    0.83
  -7  -3   2   20.44    0.77
  -7  -3   2   20.05    0.75
   7  -3  -2   20.35    0.67
   6   3  -1   58.06    1.46
  -6   3   1   60.42    1.50
  -6   3   1   57.72    1.53
   6  -3  -1   58.63    1.43
  -6  -3   1   60.97    1.45
  -6  -3   1   60.29    1.44
  -5   3   0    5.59    0.51
  -5   3   0    4.97    0.53
   5   3   0    5.22    0.42
   5  -3   0    5.53    0.38
  -5  -3   0    5.20    0.39
  -5  -3   0    5.90    0.37
  -4   3  -1   40.60    1.12
   4   3   1   39.60    1.04
  -4   3  -1   40.60    1.09
  -4  -3  -1   42.42    0.92
   4  -3   1   39.93    1.07
  -4  -3  -1   42.93    0.91
   4  -3   1   41.20    1.06
  -4  -3  -1   40.25    0.99
   3   3   2   67.08    1.52
  -3   3  -2   65.56    1.59
   3   3   2   69.50    1.53
  -3   3  -2   66.64    1.57
  -3  -3  -2   65.51    1.44
   3  -3   2   65.66    1.58
   2   3   3   12.39    0.44
   2   3   3   11.77    0.43
  -2   3  -3   12.05    0.56
  -2   3  -3   12.43    0.51
   2  -3   3   11.77    0.49
   2  -3   3   11.69    0.52
   1   3   4    9.39    0.36
  -1   3  -4    9.62    0.48
  -1   3  -4    9.73    0.47
   1  -3   4    9.39    0.45
   1  -3   4    9.16    0.48
   0   3  -5  127.78    2.71
   0   3  -5  121.08    2.66
   0   3   5  125.79    2.63
   0   3   5  126.75    2.71
   0   3  -5  127.02    2.69
   0  -3   5  130.61    2.77
   0  -3   5  128.27    2.78
   1   3  -6   96.95    2.05
   1   3  -6   98.41    2.15
  -1   3   6   98.60    2.06
   1   3  -6   99.82    2.07
  -1  -3   6   98.58    2.22
  -1  -3   6  100.23    2.24
   2   3  -7   63.54    1.93
  -2   3   7   60.12    1.30
  -2  -3   7   63.55    1.51
  -2  -3   7   59.96    1.51
   3   3  -8   28.98    1.38
  -3   3   8   26.51    0.60
  -3  -3   8   25.14    0.92
  -3  -3   8   27.10    0.86
  -4   3   9    5.04    0.20
   4   3  -9    4.98    0.98
  -4  -3   9    4.67    0.49
   5   3 -10    1.22    0.67
  -5  -3  10    1.02    0.31
  -6   3  11    4.98    0.28
   6   3 -11    4.36    0.80
  -6  -3  11    4.52    0.56
   7   3 -12   38.27    1.82
  -7   3  12   39.27    0.96
  -7  -3  12   39.10    1.22
   8   3 -13   16.52    1.40
  -8   3  13   13.25    0.60
  -8  -3  13   15.22    0.84
 -12   4   7    2.96    0.53
 -12  -4   7    2.26    0.52
 -12  -4   7    2.15    0.46
 -11   4   6    1.35    0.46
 -11  -4   6    0.62    0.37
 -11  -4   6    0.90    0.45
 -10   4   5   -0.11    0.38
  10   4  -5    0.49    0.32
 -10   4   5   -0.55    0.37
 -10  -4   5   -0.34    0.30
 -10  -4   5   -0.37    0.36
  -9   4   4    4.71    0.62
   9   4  -4    4.84    0.54
  -9   4   4    4.95    0.72
  -9  -4   4    3.85    0.61
  -9  -4   4    3.16    0.42
  -8   4   3   27.16    1.05
  -8   4   3   25.88    0.99
   8   4  -3   26.40    0.92
  -8  -4   3   26.57    0.94
  -8  -4   3   25.81    0.92
  -7   4   2   16.39    0.82
  -7   4   2   16.61    0.80
   7   4  -2   16.48    0.72
   7  -4  -2   16.13    0.69
  -7  -4   2   16.53    0.70
  -7  -4   2   16.63    0.71
  -6   4   1   30.37    1.04
  -6   4   1   31.38    1.03
   6   4  -1   31.86    0.97
   6  -4  -1   31.55    0.91
  -6  -4   1   31.30    0.92
  -6  -4   1   31.28    0.90
  -5   4   0   15.46    0.71
   5   4   0   14.98    0.64
  -5   4   0   14.11    0.72
  -5  -4   0   15.16    0.59
   5  -4   0   15.15    0.61
  -5  -4   0   15.57    0.53
   4   4   1   99.51    2.26
  -4   4  -1   97.61    2.32
  -4   4  -1  100.78    2.30
   4  -4   1  102.30    2.28
   4  -4   1  100.92    2.28
   3   4   2    2.92    0.38
  -3   4  -2    2.25    0.29
  -3   4  -2    3.22    0.37
   3  -4   2    3.25    0.43
   3  -4   2    3.27    0.39
  -2   4  -3   48.19    1.22
   2   4   3   45.76    1.15
  -2   4  -3   45.02    1.24
   2  -4   3   46.18    1.21
   2  -4   3   45.71    1.24
   1   4   4   11.32    0.47
  -1   4  -4   11.73    0.58
  -1   4  -4   11.97    0.59
   1  -4   4   11.33    0.60
   1  -4   4   11.97    0.56
   0   4  -5  102.61    2.28
   0   4  -5  104.92    2.29
   0   4   5   99.58    2.20
   0  -4   5  103.24    2.36
   0  -4   5   98.21    2.32
   1   4  -6   77.37    1.80
  -1   4   6   75.27    1.71
   1   4  -6   79.43    1.78
  -1  -4   6   79.20    1.87
  -1  -4   6   77.38    1.90
   2   4  -7    4.60    0.34
  -2   4   7    4.65    0.30
  -2  -4   7    4.06    0.51
  -2  -4   7    3.83    0.53
  -3   4   8    7.35    0.34
   3   4  -8    6.74    0.98
  -3  -4   8    6.23    0.59
  -3  -4   8    7.80    0.56
  -4   4   9   35.32    0.88
   4   4  -9   38.69    1.79
  -4  -4   9   37.61    1.15
  -5   4  10    9.48    0.37
   5   4 -10    7.78    1.13
  -5  -4  10    8.60    0.67
   6   4 -11    3.20    0.95
  -6   4  11    3.58    0.31
  -6  -4  11    2.73    0.45
   7   4 -12   16.52    1.45
  -7   4  12   16.17    0.58
  -7  -4  12   16.62    0.89
 -10   5   5    1.14    0.45
 -10  -5   5    0.41    0.35
 -10  -5   5    0.70    0.42
   9   5  -4    1.25    0.38
  -9   5   4    0.93    0.38
  -9   5   4    1.37    0.45
  -9  -5   4    0.72    0.38
  -9  -5   4    0.57    0.31
  -8   5   3    1.16    0.41
   8   5  -3    1.94    0.40
  -8   5   3    1.37    0.36
  -8  -5   3    0.97    0.28
   7   5  -2    1.69    0.37
  -7   5   2    1.37    0.39
  -7   5   2    1.83    0.36
  -7  -5   2    1.11    0.25
  -6   5   1   20.20    0.87
  -6   5   1   19.00    0.90
   6   5  -1   18.84    0.80
  -6  -5   1   19.05    0.68
   5   5   0   15.62    0.71
  -5   5   0   15.78    0.81
  -5   5   0   14.64    0.78
   5  -5   0   15.15    0.65
  -5  -5   0   15.81    0.50
  -4   5  -1    0.04    0.32
   4   5   1   -0.08    0.26
   4  -5   1    0.02    0.19
   4  -5   1    0.05    0.25
   3   5   2   11.51    0.60
  -3   5  -2   12.52    0.68
   3  -5   2   12.33    0.60
   3  -5   2   12.15    0.62
  -2   5  -3    0.22    0.30
   2   5   3    0.01    0.24
   2  -5   3    0.00    0.22
   2  -5   3    0.08    0.27
   1   5   4   24.45    0.79
  -1   5  -4   25.67    0.88
   1  -5   4   25.19    0.88
   1  -5   4   25.22    0.92
   0   5   5   14.67    0.59
   0   5  -5   16.21    0.68
   0   5  -5   14.74    0.70
   0  -5   5   15.52    0.72
   0  -5   5   15.13    0.76
   1   5  -6    5.92    0.52
  -1   5   6    6.06    0.42
  -1  -5   6    5.60    0.57
  -1  -5   6    5.07    0.59
  -2   5   7    1.82    0.25
   2   5  -7    1.41    0.24
  -2  -5   7    0.98    0.31
  -2  -5   7    1.67    0.36
   3   5  -8   13.54    0.47
  -3   5   8   13.19    0.52
  -3  -5   8   12.67    0.76
  -3  -5   8   11.58    0.78
   4   5  -9    0.16    0.89
  -4  -5   9    1.89    0.41
  -4  -5   9    0.88    0.35
   5   5 -10    0.10    0.93
  -5  -5  10   -0.10    0.37
   6   5 -11    0.31    0.91
  -6  -5  11    0.67    0.42
  -9   6   4    7.71    0.84
  -9  -6   4    6.14    0.68
  -8   6   3    2.39    0.48
  -8   6   3    2.09    0.45
  -8  -6   3    1.38    0.30
   7   6  -2   12.82    0.84
  -7   6   2   14.42    0.95
  -7   6   2   12.35    0.84
  -7  -6   2   12.04    0.63
  -6   6   1   15.74    0.87
  -6   6   1   16.95    0.96
   6   6  -1   15.99    0.87
  -6  -6   1   16.21    0.59
   5   6   0   19.09    0.87
  -5   6   0   20.33    0.93
  -4   6  -1   20.94    0.94
   4   6   1   20.53    0.86
   3   6   2    0.34    0.30
  -3   6  -2    0.49    0.36
   3  -6   2    0.51    0.24
   3  -6   2    0.19    0.28
  -2   6  -3    8.81    0.70
   2   6   3    8.72    0.60
   2  -6   3    8.14    0.63
   2  -6   3    8.26    0.64
  -1   6  -4    1.44    0.37
   1   6   4    1.19    0.30
   1  -6   4    1.02    0.34
   1  -6   4    0.71    0.29
   0   6  -5    9.02    0.66
   0   6   5    8.32    0.57
   0  -6   5    7.57    0.72
   0  -6   5    8.45    0.65
  -1   6   6    6.04    0.51
   1   6  -6    6.58    0.61
  -1  -6   6    6.41    0.64
  -1  -6   6    5.37    0.70
   2   6  -7   25.36    0.90
  -2   6   7   25.02    0.85
  -2  -6   7   24.79    1.02
  -2  -6   7   25.29    1.10
   3   6  -8   11.59    0.57
  -3   6   8   11.54    0.60
  -3  -6   8   10.69    0.79
  -3  -6   8    9.79    0.86
  -4  -6   9    4.21    0.55
  -4  -6   9    3.68    0.49
  -6   7   1   41.70    1.42
   6   7  -1   40.84    1.40
  -6   7   1   42.88    1.53
  -5   7   0    9.19    0.83
   5   7   0    9.71    0.80
  -4   7  -1    1.06    0.44
   4   7   1    1.93    0.42
   3   7   2    2.36    0.43
  -3   7  -2    2.54    0.48
  -2   7  -3    6.79    0.73
   2   7   3    5.87    0.68
   2  -7   3    5.55    0.63
  -1   7  -4    2.69    0.46
   1   7   4    2.84    0.42
   1  -7   4    1.95    0.36
   1  -7   4    2.17    0.45
   0   7   5    0.87    0.34
   0  -7   5   -0.08    0.32
   0  -7   5   -0.11    0.37
  -1   7   6    8.13    0.66
   1   7  -6    7.42    0.71
  -1  -7   6    5.73    0.74
  -1  -7   6    6.14    0.82
 -13   0   7   -0.55    0.41
 -12   0   6   13.69    0.91
 -12   0   6   14.67    0.87
 -11   0   5   -0.36    0.37
 -11   0   5   -0.16    0.33
 -10   0   4   23.46    0.94
 -10   0   4   23.70    0.97
  10   0  -4   22.22    0.78
   9   0  -3    0.01    0.22
  -9   0   3   -0.09    0.33
  -9   0   3   -0.08    0.28
  -8   0   2   21.84    0.80
   8   0  -2   21.02    0.71
   8   0  -2   20.70    0.54
  -8   0   2   22.37    0.85
  -7   0   1    0.07    0.24
  -7   0   1    0.26    0.29
   7   0  -1   -0.02    0.19
  -6   0   0  113.02    2.42
  -6   0   0  109.09    2.43
   6   0   0  108.71    2.41
   5   0   1   -0.21    0.15
  -5   0  -1    0.15    0.16
  -5   0  -1   -0.01    0.20
  -4   0  -2   55.78    1.26
  -4   0  -2   56.36    1.22
   4   0   2   54.43    1.28
  -4   0  -2   55.41    1.23
   3   0   3   -0.09    0.10
  -3   0  -3   -0.18    0.13
   3   0   3    0.12    0.13
  -3   0  -3   -0.17    0.18
   2   0   4  779.91   16.30
  -2   0  -4  753.31   16.93
   2   0   4  801.46   16.14
   1   0   5   -0.04    0.11
  -1   0  -5   -0.09    0.25
   0   0  -6  123.93    2.83
   0   0   6  118.27    2.50
   0   0   6  121.67    2.54
  -1   0   7    0.11    0.11
  -1   0   7   -0.02    0.10
   1   0  -7   -0.31    0.36
   2   0  -8   57.82    1.72
  -2   0   8   58.85    1.26
  -2   0   8   59.02    1.27
  -3   0   9   -0.03    0.13
   3   0  -9   -0.08    0.45
  -4   0  10   36.61    0.85
   4   0 -10   33.72    1.33
   5   0 -11    0.07    0.47
  -5   0  11   -0.17    0.18
  -6   0  12  102.16    2.18
   6   0 -12   95.19    2.79
   7   0 -13    0.43    0.58
  -7   0  13   -0.35    0.23
  -8   0  14   -0.04    0.28
   8   0 -14    1.21    0.67
 -13   1   7    7.39    0.78
 -13  -1   7    7.62    0.90
 -13  -1   7    7.73    0.80
 -12   1   6   10.69    0.83
 -12   1   6   11.38    0.92
 -12  -1   6   12.06    0.89
 -12  -1   6   10.92    0.80
 -11   1   5    7.41    0.79
 -11   1   5    7.13    0.73
  11   1  -5    7.55    0.63
 -11  -1   5    7.26    0.69
 -11  -1   5    6.90    0.74
 -10   1   4   13.40    0.83
  10   1  -4   13.09    0.62
 -10   1   4   13.44    0.75
 -10  -1   4   13.30    0.74
  10  -1  -4   13.12    0.58
 -10  -1   4   13.88    0.79
  -9   1   3   19.74    0.80
  -9   1   3   18.60    0.86
   9   1  -3   17.85    0.69
   9   1  -3   18.50    0.71
  -9  -1   3   18.50    0.82
  -9  -1   3   18.68    0.78
   9  -1  -3   18.30    0.67
  -8   1   2   35.35    1.11
  -8   1   2   34.97    1.07
   8   1  -2   35.26    1.00
  -8  -1   2   35.82    1.08
   8  -1  -2   35.58    0.98
  -8  -1   2   35.14    1.04
   7   1  -1   15.54    0.60
  -7   1   1   15.01    0.71
  -7   1   1   14.51    0.65
  -7  -1   1   15.08    0.62
   7  -1  -1   14.70    0.57
  -7  -1   1   14.69    0.64
  -6   1   0    0.68    0.26
   6   1   0    0.56    0.20
  -6   1   0    0.40    0.23
   6  -1   0    0.29    0.19
  -6  -1   0    0.45    0.19
  -6  -1   0    0.52    0.23
   5   1   1  101.51    2.27
  -5   1  -1  103.27    2.29
  -5   1  -1  105.12    2.31
  -5  -1  -1  103.72    2.23
  -5  -1  -1  108.68    2.25
   5  -1   1  104.68    2.29
  -5  -1  -1  105.08    2.25
  -4   1  -2   55.74    1.29
   4   1   2   55.98    1.27
  -4   1  -2   54.22    1.23
  -4   1  -2   54.97    1.29
   4  -1   2   54.20    1.30
  -4  -1  -2   55.56    1.23
  -4  -1  -2   57.38    1.16
   4  -1   2   53.54    1.29
  -4  -1  -2   55.80    1.16
  -3   1  -3   69.41    1.51
  -3   1  -3   67.08    1.56
   3   1   3   69.73    1.51
  -3   1  -3   68.40    1.48
  -3   1  -3   67.94    1.46
   3   1   3   67.56    1.49
   3  -1   3   68.87    1.54
   3  -1   3   68.71    1.54
   2   1   4  296.74    6.46
  -2   1  -4  302.37    6.21
  -2   1  -4  288.46    6.67
   2  -1   4  302.65    6.54
   2  -1   4  298.17    6.27
   1   1   5  200.28    4.17
  -1   1  -5  197.90    4.37
   1   1   5  201.90    4.36
  -1  -1  -5  201.96    4.41
   1  -1   5  207.67    4.45
   1  -1   5  206.98    4.22
   0   1   6    8.98    0.24
   0   1  -6    8.48    0.62
   0   1   6    8.42    0.25
   0  -1   6    9.11    0.36
   0  -1   6    8.28    0.39
   0  -1  -6    8.91    0.61
   1   1  -7   79.13    2.10
  -1  -1   7   80.74    1.75
   1  -1  -7   81.79    2.11
   2   1  -8   42.56    1.42
   2  -1  -8   45.43    1.47
  -2  -1   8   44.92    1.05
   3   1  -9    5.96    0.76
   3  -1  -9    5.92    0.75
  -3  -1   9    6.81    0.37
   4   1 -10    7.33    0.84
  -4  -1  10    7.24    0.41
   4  -1 -10    7.07    0.77
  -5   1  11   73.66    1.55
   5   1 -11   69.88    2.19
   5  -1 -11   72.38    2.22
  -5  -1  11   73.09    1.68
  -6   1  12   14.19    0.49
   6   1 -12   14.32    1.12
   6  -1 -12   14.33    1.11
  -6  -1  12   14.39    0.61
  -7   1  13   21.64    0.68
   7   1 -13   22.13    1.38
   7  -1 -13   21.75    1.26
  -7  -1  13   21.68    0.79
  -8   1  14    1.31    0.30
   8   1 -14    3.19    0.75
   8  -1 -14    2.90    0.79
  -8  -1  14    1.97    0.37
 -13   2   7    1.02    0.49
 -13  -2   7    0.51    0.42
 -13  -2   7    0.12    0.46
 -12   2   6   -0.62    0.40
 -12   2   6   -0.22    0.41
 -12  -2   6   -0.52    0.36
 -12  -2   6   -0.51    0.42
  11   2  -5   13.13    0.65
 -11   2   5   12.69    0.90
 -11   2   5   12.12    0.78
 -11  -2   5   11.96    0.83
 -11  -2   5   12.44    0.79
 -10   2   4    0.76    0.36
 -10   2   4    0.49    0.38
  10   2  -4    0.68    0.27
 -10  -2   4    0.38    0.36
 -10  -2   4    0.44    0.32
   9   2  -3  130.31    2.98
  -9   2   3  134.86    3.10
  -9  -2   3  135.96    3.05
  -9  -2   3  135.84    3.03
   9  -2  -3  134.16    2.95
   8   2  -2   15.09    0.64
  -8   2   2   14.98    0.72
  -8   2   2   15.32    0.80
   8   2  -2   15.97    0.65
   8  -2  -2   15.04    0.60
  -8  -2   2   15.32    0.72
  -8  -2   2   15.63    0.68
  -7   2   1   70.32    1.75
   7   2  -1   74.11    1.73
  -7   2   1   71.05    1.80
  -7  -2   1   72.46    1.72
   7  -2  -1   72.68    1.70
  -7  -2   1   72.60    1.71
  -6   2   0   64.60    1.58
   6   2   0   65.37    1.56
  -6   2   0   65.03    1.62
  -6  -2   0   65.97    1.52
   6  -2   0   63.83    1.54
  -6  -2   0   66.26    1.52
  -5   2  -1    5.13    0.19
  -5   2  -1    4.88    0.50
   5   2   1    4.98    0.37
  -5   2  -1    4.99    0.44
   5  -2   1    4.70    0.36
  -5  -2  -1    5.20    0.31
  -5  -2  -1    4.82    0.34
  -5  -2  -1    5.49    0.26
  -4   2  -2   30.70    0.88
  -4   2  -2   32.05    0.81
   4   2   2   32.12    0.82
  -4   2  -2   29.68    0.86
   4  -2   2   29.41    0.84
   4  -2   2   30.68    0.86
  -4  -2  -2   30.94    0.76
   3   2   3   11.45    0.42
  -3   2  -3   11.20    0.48
  -3   2  -3   11.70    0.50
  -3   2  -3   12.20    0.55
   3  -2   3   11.21    0.46
   3  -2   3   11.24    0.47
  -2   2  -4   44.71    1.03
   2   2   4   44.74    1.04
  -2   2  -4   47.05    1.27
  -2   2  -4   46.59    1.06
  -2   2  -4   45.44    1.09
   2  -2   4   45.49    1.13
   2  -2   4   44.87    1.12
   1   2   5   98.39    2.04
  -1   2  -5   97.26    2.36
  -1   2  -5   97.30    2.09
   1   2   5   98.52    2.05
   1  -2   5   98.88    2.15
   1  -2   5   96.05    2.15
   0   2   6   39.53    0.85
   0   2   6   39.61    0.85
   0   2  -6   38.47    0.90
   0   2  -6   39.11    1.29
   0  -2   6   39.27    1.00
   0  -2   6   39.46    1.00
   1   2  -7   15.74    0.92
   1  -2  -7   15.13    0.85
  -1  -2   7   15.63    0.57
  -1  -2   7   15.33    0.56
   2   2  -8   24.51    1.14
   2  -2  -8   24.97    1.07
  -2  -2   8   26.06    0.76
   3   2  -9    1.52    0.58
  -3  -2   9    1.44    0.25
   3  -2  -9    1.85    0.53
   4   2 -10    1.47    0.62
   4  -2 -10    0.83    0.51
  -4  -2  10    0.67    0.24
   5   2 -11    8.54    0.98
  -5  -2  11    8.47    0.52
   5  -2 -11    8.38    0.95
  -6   2  12   24.60    0.64
   6   2 -12   24.64    1.42
  -6  -2  12   23.93    0.86
   6  -2 -12   24.77    1.36
  -7   2  13   21.03    0.65
   7   2 -13   22.03    1.42
  -7  -2  13   21.21    0.86
   7  -2 -13   22.82    1.40
 -12   3   6    1.93    0.49
 -12  -3   6    1.42    0.43
 -12  -3   6    1.87    0.51
 -11   3   5    4.51    0.69
 -11   3   5    3.07    0.47
 -11  -3   5    4.63    0.54
 -11  -3   5    3.10    0.43
 -10   3   4    2.11    0.43
  10   3  -4    2.29    0.35
 -10   3   4    2.02    0.43
 -10  -3   4    1.64    0.37
 -10  -3   4    1.41    0.40
   9   3  -3   19.62    0.78
  -9   3   3   19.26    0.89
  -9   3   3   20.55    0.96
  -9  -3   3   19.59    0.85
  -9  -3   3   19.34    0.83
   8   3  -2  105.94    2.48
  -8   3   2  107.64    2.52
  -8   3   2  107.65    2.58
  -8  -3   2  109.74    2.49
   8  -3  -2  108.52    2.44
  -8  -3   2  109.86    2.49
   7   3  -1  101.79    2.38
  -7   3   1  105.33    2.42
  -7   3   1  104.19    2.46
   7  -3  -1  107.21    2.37
  -7  -3   1  105.92    2.35
  -7  -3   1  101.76    2.35
  -6   3   0   31.67    0.98
  -6   3   0   30.44    1.02
   6   3   0   31.03    0.92
  -6  -3   0   30.53    0.88
   6  -3   0   31.18    0.90
  -6  -3   0   31.09    0.84
  -5   3  -1    9.22    0.58
   5   3   1    8.26    0.49
  -5   3  -1    9.22    0.63
   5   3   1    8.26    0.49
  -5  -3  -1    8.53    0.42
  -5  -3  -1    9.49    0.34
   5  -3   1    8.58    0.49
  -5  -3  -1    9.63    0.32
   4   3   2   38.58    0.99
  -4   3  -2   38.38    1.04
  -4   3  -2   37.12    1.07
  -4  -3  -2   35.62    0.95
   4  -3   2   36.69    1.03
   4  -3   2   37.51    1.02
  -3   3  -3   17.64    0.65
  -3   3  -3   18.33    0.70
   3   3   3   17.08    0.58
   3  -3   3   17.36    0.65
   3  -3   3   18.00    0.63
   2   3   4   39.05    0.97
  -2   3  -4   39.26    1.05
  -2   3  -4   39.80    1.04
   2  -3   4   39.93    1.09
   2  -3   4   41.09    1.07
  -1   3  -5   15.04    0.57
  -1   3  -5   15.74    0.93
   1   3   5   15.20    0.47
  -1   3  -5   15.54    0.56
   1  -3   5   15.00    0.60
   1  -3   5   15.18    0.62
   0   3  -6   49.94    1.07
   0   3  -6   48.59    1.06
   0   3  -6   50.68    1.61
   0   3   6   47.57    1.10
   0   3  -6   48.14    1.18
   0  -3   6   50.12    1.28
   0  -3   6   50.97    1.27
   1   3  -7   50.87    1.69
  -1   3   7   48.76    1.09
  -1  -3   7   51.00    1.29
  -1  -3   7   50.66    1.31
   2   3  -8   10.04    0.97
  -2   3   8    9.78    0.28
  -2  -3   8   10.26    0.55
   3   3  -9   56.45    1.95
  -3  -3   9   58.14    1.47
   4   3 -10   36.33    1.56
  -4  -3  10   38.32    1.11
   5   3 -11    0.66    0.67
  -5  -3  11    0.23    0.30
   6   3 -12    9.15    1.20
  -6  -3  12    7.75    0.65
   7   3 -13    2.00    0.82
  -7  -3  13    0.96    0.38
 -12   4   6   17.29    0.98
 -12  -4   6   16.56    1.00
 -12  -4   6   17.61    0.98
 -11   4   5    6.45    0.80
 -11   4   5    3.51    0.55
 -11  -4   5    4.97    0.74
 -11  -4   5    5.46    0.74
  10   4  -4    8.13    0.63
 -10   4   4    6.62    0.77
 -10   4   4    7.49    0.89
 -10  -4   4    6.00    0.70
 -10  -4   4    6.80    0.70
   9   4  -3    0.82    0.33
  -9   4   3    0.82    0.36
  -9   4   3    0.39    0.39
  -9  -4   3    0.60    0.28
  -9  -4   3   -0.01    0.32
  -8   4   2   38.83    1.25
  -8   4   2   40.05    1.31
   8   4  -2   40.30    1.19
  -8  -4   2   38.42    1.16
  -8  -4   2   38.71    1.13
  -7   4   1    2.17    0.36
  -7   4   1    3.11    0.44
   7   4  -1    2.93    0.37
  -7  -4   1    1.99    0.32
  -7  -4   1    2.78    0.42
   7  -4  -1    2.84    0.40
   6   4   0    2.48    0.33
  -6   4   0    2.01    0.38
  -6   4   0    1.79    0.32
   6  -4   0    2.27    0.30
  -6  -4   0    2.32    0.33
   5   4   1   28.54    0.88
  -5   4  -1   28.32    1.00
  -5   4  -1   29.20    0.95
   5  -4   1   28.20    0.90
   4   4   2    3.47    0.42
  -4   4  -2    3.57    0.56
  -4   4  -2    3.78    0.50
   4  -4   2    3.31    0.42
   4  -4   2    3.21    0.44
  -3   4  -3   36.32    1.04
   3   4   3   35.28    0.98
  -3   4  -3   35.59    1.08
   3  -4   3   36.66    1.04
   3  -4   3   35.93    1.06
   2   4   4   39.34    1.03
  -2   4  -4   41.70    1.11
  -2   4  -4   41.33    1.14
   2  -4   4   40.00    1.12
   2  -4   4   39.35    1.15
   1   4   5   13.91    0.51
  -1   4  -5   14.58    0.63
  -1   4  -5   14.70    0.62
   1  -4   5   13.04    0.66
   1  -4   5   14.63    0.64
   0   4   6   53.82    1.30
   0   4  -6   58.96    1.37
   0  -4   6   57.03    1.46
   0  -4   6   56.50    1.50
   1   4  -7    3.38    0.30
  -1   4   7    3.40    0.28
   1   4  -7    2.88    0.78
  -1  -4   7    3.09    0.48
  -1  -4   7    2.39    0.32
   2   4  -8   11.09    1.19
  -2   4   8   11.81    0.41
  -2  -4   8   12.20    0.64
  -2  -4   8   10.89    0.68
  -3   4   9   34.76    0.86
   3   4  -9   35.84    1.71
  -3  -4   9   38.13    1.14
  -4   4  10   39.62    0.95
   4   4 -10   41.54    1.80
  -4  -4  10   42.96    1.28
  -5   4  11    8.00    0.33
   5   4 -11    7.54    1.22
  -5  -4  11    7.02    0.68
   6   4 -12    3.97    0.98
  -6  -4  12    2.38    0.45
 -10   5   4    0.50    0.45
 -10   5   4    1.86    0.49
 -10  -5   4    0.99    0.34
  -9   5   3    1.76    0.43
  -9   5   3    2.02    0.48
   9   5  -3    2.22    0.42
  -9  -5   3    1.18    0.31
  -8   5   2    1.79    0.44
  -8   5   2    1.63    0.40
   8   5  -2    2.07    0.40
  -8  -5   2    1.18    0.27
   7   5  -1    9.41    0.65
  -7   5   1   10.09    0.76
  -7   5   1    9.86    0.83
  -7  -5   1    9.20    0.51
   6   5   0   19.08    0.82
  -6   5   0   20.60    0.89
  -6   5   0   18.90    0.94
  -6  -5   0   20.37    0.56
   6  -5   0   19.80    0.76
  -5   5  -1   96.93    2.30
   5   5   1   94.48    2.25
  -5   5  -1   92.85    2.32
   5  -5   1   95.37    2.25
  -4   5  -2   60.39    1.59
  -4   5  -2   57.14    1.61
   4   5   2   59.19    1.53
   4  -5   2   60.62    1.57
   4  -5   2   62.20    1.57
   3   5   3   90.91    2.10
  -3   5  -3   87.20    2.17
  -3   5  -3   91.95    2.16
   3  -5   3   89.26    2.17
   3  -5   3   88.22    2.14
   2   5   4    8.47    0.51
  -2   5  -4    8.83    0.65
  -2   5  -4    8.45    0.62
   2  -5   4    8.30    0.62
   2  -5   4    8.86    0.60
  -1   5  -5   31.92    1.00
  -1   5  -5   31.46    1.01
   1   5   5   30.84    0.91
   1  -5   5   31.90    1.09
   1  -5   5   31.48    1.05
   0   5  -6    0.06    0.24
   0   5   6    0.16    0.20
   0  -5   6   -0.07    0.26
   0  -5   6    0.12    0.30
  -1   5   7   10.18    0.49
   1   5  -7   10.13    0.54
  -1  -5   7    8.42    0.68
  -1  -5   7    9.46    0.64
   2   5  -8   37.05    1.91
  -2   5   8   39.25    1.01
  -2  -5   8   39.64    1.28
  -2  -5   8   39.92    1.26
   3   5  -9    8.67    1.41
  -3   5   9   11.10    0.47
  -3  -5   9   10.98    0.73
  -3  -5   9    9.47    0.76
  -4   5  10   26.89    0.76
   4   5 -10   25.66    1.77
  -4  -5  10   28.36    1.08
   5   5 -11   12.57    1.52
  -5   5  11   13.59    0.51
  -5  -5  11   13.49    0.89
  -9   6   3    2.40    0.53
  -9  -6   3    2.23    0.34
  -8   6   2   -0.11    0.44
  -8   6   2    0.29    0.41
   8   6  -2    0.29    0.40
  -8  -6   2   -0.25    0.22
  -7   6   1    1.08    0.40
   7   6  -1    1.11    0.40
  -7   6   1    0.69    0.45
  -6   6   0   21.81    1.09
   6   6   0   22.01    0.98
  -6   6   0   21.80    1.00
   5   6   1   48.35    1.40
  -5   6  -1   47.32    1.45
  -5   6  -1   47.23    1.51
  -4   6  -2   18.13    0.93
  -4   6  -2   20.00    0.91
   4   6   2   17.70    0.81
   4  -6   2   18.63    0.80
   4  -6   2   18.51    0.81
  -3   6  -3    2.17    0.41
  -3   6  -3    2.18    0.36
   3   6   3    2.42    0.38
   3  -6   3    2.14    0.33
   3  -6   3    1.96    0.37
  -2   6  -4    5.31    0.62
   2   6   4    4.72    0.56
  -2   6  -4    4.47    0.66
   2  -6   4    4.97    0.64
   2  -6   4    4.04    0.57
   1   6   5    0.88    0.30
  -1   6  -5    0.64    0.30
   1  -6   5    0.51    0.34
   1  -6   5    0.34    0.30
   0   6   6    0.32    0.27
   0   6  -6    0.30    0.28
   0  -6   6    0.04    0.34
   0  -6   6   -0.02    0.32
  -1   6   7    8.02    0.57
   1   6  -7    8.55    0.61
  -1  -6   7    7.43    0.70
  -1  -6   7    7.26    0.77
   2   6  -8   16.74    0.65
  -2   6   8   17.91    0.71
  -2  -6   8   15.59    0.97
  -2  -6   8   17.13    0.89
  -3   6   9   15.05    0.63
   3   6  -9   12.19    1.50
  -3  -6   9   11.53    0.92
  -3  -6   9   13.70    0.89
  -5   7  -1    8.63    0.95
   5   7   1    7.93    0.79
  -5   7  -1    7.33    0.80
  -4   7  -2    1.73    0.49
  -4   7  -2    1.66    0.40
   4   7   2    1.82    0.43
  -3   7  -3    8.03    0.82
   3   7   3    9.03    0.76
  -3   7  -3    8.71    0.85
   3  -7   3    8.61    0.69
  -2   7  -4    4.86    0.77
   2   7   4    5.21    0.67
   2  -7   4    3.71    0.66
  -1   7  -5    4.20    0.72
   1   7   5    4.50    0.64
   1  -7   5    3.06    0.43
   1  -7   5    3.64    0.51
 -13   0   6    1.26    0.49
 -13   0   6    1.69    0.47
 -12   0   5   -0.33    0.34
 -12   0   5   -0.54    0.41
  11   0  -4   18.24    0.70
 -11   0   4   17.30    0.91
 -11   0   4   17.29    0.92
  11   0  -4   17.43    0.71
  10   0  -3   -0.40    0.25
 -10   0   3   -0.25    0.37
 -10   0   3   -0.05    0.30
  -9   0   2   35.13    1.08
   9   0  -2   34.80    1.01
  -9   0   2   33.34    1.11
   8   0  -1   -0.04    0.22
  -8   0   1    0.22    0.26
  -8   0   1    0.03    0.32
  -7   0   0  309.16    6.73
   7   0   0  287.42    6.27
  -7   0   0  312.31    6.29
   6   0   1   -0.01    0.19
  -6   0  -1    0.03    0.24
  -6   0  -1    0.20    0.19
  -5   0  -2   28.26    0.78
  -5   0  -2   28.05    0.70
  -5   0  -2   27.94    0.73
   5   0   2   27.38    0.78
  -4   0  -3   -0.17    0.16
   4   0   3    0.01    0.12
   4   0   3   -0.04    0.15
   3   0   4  284.80    6.20
   3   0   4  285.37    5.93
  -3   0  -4  278.67    6.35
   2   0   5    0.26    0.11
  -2   0  -5    0.05    0.26
   2   0   5    0.03    0.13
  -1   0  -6   59.33    1.63
   1   0   6   63.25    1.36
   0   0  -7   -0.14    0.35
   0   0   7   -0.01    0.12
  -1   0   8   75.83    1.62
   1   0  -8   74.73    2.07
  -2   0   9   -0.02    0.13
   2   0  -9   -0.12    0.45
   3   0 -10    3.80    0.77
  -3   0  10    3.02    0.27
   4   0 -11    0.08    0.48
  -4   0  11   -0.26    0.16
   5   0 -12   27.08    1.38
  -5   0  12   26.73    0.75
   6   0 -13    0.20    0.63
  -6   0  13   -0.39    0.21
  -7   0  14    7.75    0.51
   7   0 -14    9.80    1.20
 -13   1   6   -0.44    0.41
 -13   1   6   -0.20    0.43
 -13  -1   6   -0.18    0.46
 -13  -1   6   -0.25    0.37
 -12   1   5   12.19    0.86
 -12   1   5   12.83    0.94
 -12  -1   5   12.39    0.83
 -12  -1   5   12.61    0.88
 -11   1   4    5.73    0.69
  11   1  -4    6.03    0.50
 -11   1   4    6.08    0.76
 -11  -1   4    5.26    0.69
 -11  -1   4    5.38    0.67
 -10   1   3   58.49    1.66
 -10   1   3   60.46    1.61
  10   1  -3   57.25    1.53
  10   1  -3   56.79    1.51
  10  -1  -3   60.48    1.51
 -10  -1   3   61.26    1.61
 -10  -1   3   57.84    1.61
   9   1  -2   71.28    1.76
  -9   1   2   73.86    1.82
  -9   1   2   70.87    1.86
  -9  -1   2   74.13    1.80
   9  -1  -2   69.85    1.74
  -9  -1   2   73.00    1.81
   8   1  -1   13.26    0.61
  -8   1   1   13.55    0.68
  -8   1   1   13.43    0.74
   8  -1  -1   13.48    0.59
  -8  -1   1   13.84    0.65
  -8  -1   1   14.46    0.69
   7   1   0  176.05    3.86
  -7   1   0  185.46    3.89
  -7   1   0  184.55    3.91
  -7  -1   0  181.39    3.85
  -7  -1   0  178.18    3.84
   7  -1   0  180.55    3.87
  -6   1  -1   86.43    1.93
  -6   1  -1   85.21    1.94
   6   1   1   82.68    1.91
  -6  -1  -1   83.22    1.88
  -6  -1  -1   85.46    1.86
   6  -1   1   79.43    1.91
  -5   1  -2    0.09    0.22
   5   1   2   -0.06    0.17
  -5   1  -2    0.08    0.19
  -5  -1  -2    0.08    0.11
  -5  -1  -2   -0.12    0.17
   5  -1   2   -0.08    0.16
  -5  -1  -2    0.01    0.09
  -4   1  -3    0.60    0.16
  -4   1  -3    0.35    0.11
   4   1   3    0.71    0.17
  -4   1  -3    0.84    0.20
  -4   1  -3    0.56    0.21
   4  -1   3    0.54    0.16
   4  -1   3    0.85    0.20
  -4  -1  -3    0.48    0.14
  -3   1  -4   41.81    1.12
   3   1   4   42.26    0.99
   3   1   4   42.92    1.01
  -3   1  -4   41.70    0.99
   3  -1   4   41.65    1.04
   3  -1   4   42.54    1.05
   2   1   5  128.24    2.68
  -2   1  -5  127.16    2.88
   2  -1   5  130.51    2.73
   2  -1   5  125.38    2.73
   1   1   6   79.76    1.74
   1   1   6   84.31    1.75
  -1   1  -6   80.89    2.05
  -1  -1  -6   82.77    2.09
   1  -1   6   84.30    1.82
   1  -1   6   82.45    1.80
   0   1   7  101.21    2.05
   0   1   7   96.81    2.04
   0   1  -7   95.74    2.44
   0  -1  -7   98.20    2.48
   0  -1   7  101.09    2.14
  -1   1   8   33.78    0.72
  -1   1   8   32.60    0.72
   1   1  -8   30.11    1.19
  -1  -1   8   33.92    0.85
   1  -1  -8   33.29    1.24
   2   1  -9   60.41    1.85
   2  -1  -9   60.68    1.84
  -2  -1   9   63.47    1.42
   3   1 -10    5.10    0.79
  -3  -1  10    5.85    0.38
   3  -1 -10    5.74    0.80
  -4   1  11    1.39    0.15
   4   1 -11    2.45    0.64
  -4  -1  11    1.64    0.24
   4  -1 -11    1.90    0.56
   5   1 -12    3.38    0.68
  -5   1  12    1.86    0.26
  -5  -1  12    2.57    0.29
   6   1 -13   14.40    1.19
  -6   1  13   13.04    0.50
  -6  -1  13   13.79    0.63
   6  -1 -13   15.23    1.21
  -7   1  14   13.35    0.56
   7   1 -14   14.22    1.26
   7  -1 -14   15.43    1.30
  -7  -1  14   13.31    0.68
 -13   2   6    2.26    0.54
 -13   2   6    0.77    0.50
 -13  -2   6    1.81    0.50
 -13  -2   6    1.96    0.46
 -12   2   5    2.69    0.47
 -12   2   5    3.77    0.53
 -12  -2   5    3.53    0.48
 -12  -2   5    3.31    0.51
 -11   2   4   11.74    0.90
  11   2  -4   12.31    0.65
 -11   2   4   11.39    0.80
 -11  -2   4   10.64    0.80
 -11  -2   4   11.02    0.76
  10   2  -3   12.61    0.65
 -10   2   3   13.26    0.77
 -10   2   3   13.53    0.88
 -10  -2   3   13.29    0.77
  10  -2  -3   13.23    0.62
 -10  -2   3   13.47    0.74
   9   2  -2   50.27    1.37
  -9   2   2   50.76    1.50
   9   2  -2   51.54    1.39
  -9   2   2   52.66    1.44
  -9  -2   2   52.24    1.41
   9  -2  -2   50.55    1.35
  -9  -2   2   52.27    1.40
   8   2  -1   37.71    1.08
  -8   2   1   35.79    1.13
  -8   2   1   37.46    1.20
  -8  -2   1   38.99    1.09
  -8  -2   1   38.37    1.08
   8  -2  -1   37.59    1.06
  -7   2   0   49.37    1.31
   7   2   0   47.35    1.27
  -7   2   0   47.80    1.35
   7  -2   0   47.07    1.25
  -7  -2   0   48.83    1.24
  -7  -2   0   49.88    1.22
   6   2   1  121.48    2.74
  -6   2  -1  125.84    2.80
  -6   2  -1  126.35    2.77
  -6  -2  -1  126.72    2.64
   6  -2   1  123.22    2.76
  -6  -2  -1  124.73    2.69
  -5   2  -2    5.50    0.53
  -5   2  -2    5.18    0.47
   5   2   2    5.16    0.40
  -5   2  -2    5.72    0.27
  -5  -2  -2    4.55    0.34
   5  -2   2    4.50    0.40
   5  -2   2    4.80    0.41
   4   2   3   43.38    1.06
  -4   2  -3   41.86    1.08
  -4   2  -3   42.85    1.10
  -4   2  -3   42.64    1.10
   4  -2   3   42.97    1.11
   4  -2   3   42.91    1.12
  -3   2  -4   24.47    0.81
  -3   2  -4   23.61    0.63
   3   2   4   24.32    0.67
  -3   2  -4   25.22    0.69
  -3   2  -4   23.65    0.71
   3  -2   4   24.40    0.75
   3  -2   4   23.02    0.73
  -2   2  -5   82.11    2.01
  -2   2  -5   80.73    1.78
   2   2   5   78.21    1.75
   2  -2   5   80.04    1.85
   2  -2   5   83.12    1.85
  -1   2  -6   74.95    1.99
   1   2   6   75.18    1.63
   1  -2   6   79.49    1.76
   1  -2   6   75.56    1.75
   0   2  -7  274.18    6.15
   0   2   7  289.00    5.89
   0  -2   7  285.54    5.86
   1   2  -8   48.76    1.60
   1  -2  -8   49.42    1.61
  -1  -2   8   50.58    1.24
   2   2  -9    1.42    0.56
  -2  -2   9    1.20    0.25
   2  -2  -9    2.15    0.58
   3   2 -10   26.02    1.28
   3  -2 -10   26.52    1.22
  -3  -2  10   27.01    0.83
   4   2 -11   14.91    1.12
  -4  -2  11   14.63    0.63
   4  -2 -11   14.45    1.09
   5   2 -12    9.51    1.07
  -5  -2  12    7.91    0.56
   5  -2 -12    8.65    0.96
   6   2 -13   13.35    1.25
   6  -2 -13   12.12    1.22
  -6  -2  13   11.99    0.68
 -12   3   5    9.25    1.05
 -12   3   5   10.97    0.88
 -12  -3   5    9.36    0.88
 -12  -3   5    9.48    0.87
  11   3  -4    8.51    0.62
 -11   3   4    7.78    0.91
 -11   3   4    7.76    0.76
 -11  -3   4    6.30    0.71
 -11  -3   4    7.24    0.75
  10   3  -3    1.17    0.33
 -10   3   3    0.78    0.38
 -10   3   3    0.33    0.39
 -10  -3   3    0.75    0.31
 -10  -3   3    0.09    0.37
  -9   3   2   12.34    0.76
   9   3  -2   11.43    0.65
  -9   3   2   12.41    0.86
  -9  -3   2   10.96    0.70
  -9  -3   2   11.62    0.68
   9  -3  -2   12.04    0.60
   8   3  -1   19.64    0.77
  -8   3   1   19.19    0.85
  -8   3   1   19.72    0.92
  -8  -3   1   18.66    0.76
  -8  -3   1   19.76    0.73
   8  -3  -1   19.07    0.73
   7   3   0  113.98    2.61
  -7   3   0  110.53    2.67
   7   3   0  114.96    2.61
  -7   3   0  117.62    2.65
  -7  -3   0  114.32    2.55
   7  -3   0  118.81    2.61
  -7  -3   0  115.42    2.51
  -6   3  -1   27.16    0.97
  -6   3  -1   27.26    0.91
   6   3   1   26.84    0.85
   6   3   1   27.81    0.87
  -6  -3  -1   28.31    0.69
  -6  -3  -1   29.46    0.79
   6  -3   1   26.34    0.86
  -5   3  -2    1.70    0.30
  -5   3  -2    2.43    0.37
   5   3   2    1.92    0.28
  -5   3  -2    1.97    0.33
   5  -3   2    1.97    0.29
  -4   3  -3   13.36    0.65
  -4   3  -3   13.55    0.66
  -4   3  -3   14.10    0.62
   4   3   3   13.34    0.55
   4  -3   3   13.09    0.59
   4  -3   3   13.21    0.60
  -3   3  -4    7.63    0.51
  -3   3  -4    7.96    0.52
  -3   3  -4    8.69    0.67
   3   3   4    7.80    0.42
   3  -3   4    7.69    0.49
   3  -3   4    7.65    0.48
  -2   3  -5   21.73    0.67
   2   3   5   20.33    0.61
  -2   3  -5   20.75    0.95
  -2   3  -5   20.93    0.69
   2  -3   5   21.52    0.76
   2  -3   5   20.07    0.72
   1   3   6   51.48    1.20
  -1   3  -6   52.41    1.63
   1  -3   6   52.92    1.34
   1  -3   6   53.91    1.37
   0   3  -7    8.26    0.84
   0   3   7    8.31    0.32
   0  -3   7    7.46    0.52
   0  -3   7    8.58    0.50
  -1   3   8   24.75    0.60
   1   3  -8   24.83    1.22
  -1  -3   8   25.66    0.83
   2   3  -9   21.71    1.23
  -2   3   9   21.96    0.51
  -2  -3   9   22.26    0.80
   3   3 -10   33.02    1.52
  -3  -3  10   33.88    1.04
   4   3 -11    0.92    0.65
  -4  -3  11    0.47    0.31
   5   3 -12    2.69    0.83
  -5  -3  12    1.72    0.36
   6   3 -13   18.05    1.43
  -6  -3  13   16.68    0.83
 -12   4   5   19.27    1.05
 -12  -4   5   18.16    1.01
 -11   4   4    8.33    1.04
 -11   4   4    9.26    0.84
  11   4  -4    9.60    0.70
 -11  -4   4    8.73    0.77
  10   4  -3    2.03    0.39
 -10   4   3    1.91    0.45
 -10   4   3    1.60    0.46
 -10  -4   3    1.46    0.33
  -9   4   2    6.91    0.85
  -9   4   2    6.99    0.72
   9   4  -2    6.73    0.62
  -9  -4   2    5.78    0.56
   8   4  -1   25.97    0.94
  -8   4   1   27.38    1.02
  -8   4   1   26.06    1.09
   8  -4  -1   25.96    0.89
  -8  -4   1   25.72    0.83
   7   4   0    1.90    0.34
  -7   4   0    1.65    0.40
  -7   4   0    1.33    0.35
  -7  -4   0    1.52    0.20
   7  -4   0    1.62    0.30
  -6   4  -1    4.34    0.59
   6   4   1    4.24    0.48
  -6   4  -1    4.42    0.66
   6  -4   1    4.27    0.48
  -5   4  -2   42.86    1.28
  -5   4  -2   44.06    1.24
   5   4   2   43.49    1.19
   5  -4   2   42.13    1.22
   5  -4   2   43.76    1.21
  -4   4  -3  118.31    2.68
   4   4   3  117.53    2.64
  -4   4  -3  118.40    2.71
   4  -4   3  117.14    2.71
   4  -4   3  121.08    2.70
  -3   4  -4    0.31    0.25
  -3   4  -4    0.52    0.29
   3   4   4    0.21    0.21
   3  -4   4    0.31    0.22
   3  -4   4    0.36    0.25
  -2   4  -5    8.96    0.93
  -2   4  -5   10.83    0.59
   2   4   5   10.74    0.48
  -2   4  -5   10.76    0.58
   2  -4   5   11.15    0.59
   2  -4   5   10.33    0.63
   1   4   6   28.26    0.79
  -1   4  -6   27.88    1.33
  -1   4  -6   29.83    0.84
   1  -4   6   29.50    0.99
   1  -4   6   30.45    0.96
   0   4   7   29.73    0.78
   0   4  -7   28.98    1.40
   0  -4   7   28.89    0.97
   0  -4   7   29.41    1.00
   1   4  -8    2.01    0.74
  -1   4   8    2.25    0.27
  -1  -4   8    1.25    0.30
  -1  -4   8    2.08    0.35
   2   4  -9   12.53    1.16
  -2   4   9   12.95    0.43
  -2  -4   9   12.96    0.71
  -3   4  10    5.00    0.29
   3   4 -10    5.36    0.94
  -3  -4  10    4.17    0.57
   4   4 -11   63.97    2.38
  -4  -4  11   68.13    1.79
   5   4 -12   15.92    1.41
  -5  -4  12   14.78    0.85
 -10   5   3    5.24    0.61
 -10   5   3    4.70    0.59
 -10  -5   3    4.61    0.61
  -9   5   2    1.89    0.45
  -9   5   2    2.42    0.51
   9   5  -2    2.88    0.44
  -9  -5   2    1.58    0.29
  -8   5   1    1.16    0.44
  -8   5   1    1.54    0.42
   8   5  -1    1.62    0.39
  -8  -5   1    0.79    0.22
   7   5   0    7.91    0.64
  -7   5   0    8.58    0.82
  -7   5   0    8.07    0.73
  -6   5  -1    6.43    0.68
  -6   5  -1    6.23    0.72
   6   5   1    5.37    0.59
   6  -5   1    5.75    0.53
  -5   5  -2   35.94    1.15
   5   5   2   34.86    1.09
  -5   5  -2   34.40    1.19
   5  -5   2   36.38    1.11
   4   5   3    6.29    0.54
  -4   5  -3    6.16    0.61
  -4   5  -3    6.77    0.67
   4  -5   3    5.70    0.54
   4  -5   3    5.61    0.57
   3   5   4   37.59    1.09
  -3   5  -4   37.51    1.18
  -3   5  -4   38.73    1.17
   3  -5   4   39.65    1.19
   3  -5   4   37.60    1.20
  -2   5  -5   10.76    0.67
   2   5   5   10.35    0.55
   2  -5   5   11.43    0.71
   2  -5   5   10.91    0.67
   1   5   6    2.83    0.40
  -1   5  -6    3.14    0.52
   1  -5   6    2.29    0.36
   1  -5   6    2.42    0.38
   0   5  -7    3.98    0.44
   0   5  -7    1.74    0.86
   0   5   7    3.51    0.40
   0  -5   7    3.84    0.56
   1   5  -8   -0.03    0.83
  -1   5   8    1.09    0.23
  -1  -5   8    0.71    0.34
  -1  -5   8    0.47    0.31
   2   5  -9   10.65    1.36
  -2   5   9   12.49    0.51
  -2  -5   9   11.80    0.75
  -2  -5   9    9.39    0.79
  -3   5  10   22.03    0.67
   3   5 -10   22.20    1.59
  -3  -5  10   22.46    1.01
   4   5 -11    1.37    0.88
  -4  -5  11    0.90    0.43
  -8   6   1    1.69    0.51
   8   6  -1    2.23    0.47
  -8   6   1    1.90    0.47
  -7   6   0    1.17    0.47
   7   6   0    1.17    0.42
  -7   6   0    0.67    0.40
  -6   6  -1   30.26    1.27
  -6   6  -1   31.34    1.18
   6   6   1   31.32    1.12
  -5   6  -2    0.62    0.40
  -5   6  -2    0.59    0.36
   5   6   2    0.98    0.36
   5  -6   2    0.55    0.38
  -4   6  -3   22.70    0.97
  -4   6  -3   21.35    1.01
   4   6   3   21.64    0.88
   4  -6   3   22.27    0.91
   4  -6   3   22.00    0.93
  -3   6  -4   11.29    0.77
  -3   6  -4   10.26    0.79
   3   6   4   10.99    0.68
   3  -6   4   10.47    0.73
   3  -6   4   11.24    0.71
   2   6   5   19.41    0.81
  -2   6  -5   18.63    0.88
   2  -6   5   19.65    0.90
   2  -6   5   18.20    0.93
   1   6   6    0.97    0.31
  -1   6  -6    0.93    0.31
   1  -6   6    0.83    0.38
   1  -6   6    0.64    0.35
   0   6  -7    8.73    0.62
   0   6   7    9.45    0.60
   0  -6   7    9.00    0.77
   0  -6   7    8.27    0.82
  -1   6   8    2.41    0.33
  -1  -6   8    1.37    0.41
  -1  -6   8    1.71    0.44
  -2   6   9   11.23    0.58
   2   6  -9    7.08    1.20
  -2  -6   9    7.55    0.87
  -2  -6   9    9.48    0.78
 -13   0   5   -0.41    0.43
 -13   0   5   -0.11    0.38
 -12   0   4    0.83    0.38
 -12   0   4    1.03    0.46
  11   0  -3    0.01    0.26
 -11   0   3   -0.27    0.31
 -11   0   3   -0.56    0.39
 -10   0   2   10.64    0.72
  10   0  -2   10.17    0.62
 -10   0   2   11.16    0.75
  -9   0   1   -0.04    0.27
  -9   0   1   -0.64    0.33
   9   0  -1   -0.05    0.26
   8   0   0    4.99    0.45
  -8   0   0    5.17    0.54
  -8   0   0    5.90    0.55
  -7   0  -1    0.15    0.21
  -7   0  -1    0.11    0.29
   7   0   1    0.21    0.23
  -6   0  -2  345.17    7.33
   6   0   2  334.91    7.43
  -6   0  -2  346.60    7.02
   5   0   3    0.11    0.19
  -5   0  -3    0.25    0.10
  -5   0  -3   -0.05    0.08
  -5   0  -3   -0.23    0.20
  -4   0  -4   64.10    1.51
   4   0   4   64.60    1.51
   4   0   4   66.16    1.51
   3   0   5    0.20    0.17
   3   0   5   -0.08    0.12
  -3   0  -5   -0.07    0.28
   2   0   6  106.99    2.26
  -2   0  -6  102.30    2.50
   1   0   7    0.06    0.15
  -1   0  -7   -0.21    0.36
   0   0  -8  103.77    2.66
   0   0   8  105.36    2.23
  -1   0   9    0.08    0.14
   1   0  -9   -0.09    0.43
  -2   0  10  125.92    2.61
   2   0 -10  120.73    3.17
  -3   0  11   -0.11    0.16
   3   0 -11    0.25    0.54
   4   0 -12   10.20    0.97
  -4   0  12   10.33    0.44
  -5   0  13   -0.34    0.19
   5   0 -13    0.56    0.61
  -6   0  14    3.14    0.41
 -13   1   5   16.41    1.06
 -13   1   5   17.95    0.98
 -13  -1   5   17.07    1.00
 -13  -1   5   16.32    1.01
 -12   1   4    7.18    0.85
  12   1  -4    8.15    0.59
 -12   1   4    6.67    0.74
 -12  -1   4    6.92    0.78
 -12  -1   4    6.83    0.74
  11   1  -3    9.00    0.60
  11   1  -3    9.27    0.58
 -11   1   3    8.30    0.76
 -11   1   3    8.68    0.80
 -11  -1   3    8.40    0.75
  11  -1  -3    8.71    0.58
 -11  -1   3    8.31    0.72
 -10   1   2    0.27    0.37
 -10   1   2    0.44    0.33
  10   1  -2    0.48    0.28
 -10  -1   2    0.21    0.36
 -10  -1   2    0.02    0.30
  10  -1  -2    0.51    0.28
   9   1  -1    7.64    0.54
  -9   1   1    7.67    0.70
  -9   1   1    7.22    0.63
   9  -1  -1    7.79    0.52
  -9  -1   1    6.82    0.62
  -9  -1   1    7.77    0.62
  -8   1   0   18.34    0.78
  -8   1   0   18.08    0.80
   8   1   0   17.59    0.70
  -8  -1   0   17.14    0.72
  -8  -1   0   18.16    0.72
   8  -1   0   17.84    0.69
  -7   1  -1  140.07    3.10
  -7   1  -1  145.07    3.10
  -7  -1  -1  141.11    3.02
   7  -1   1  136.09    3.09
  -7  -1  -1  142.39    3.06
  -6   1  -2    8.63    0.54
  -6   1  -2    8.01    0.53
   6   1   2    8.52    0.48
  -6  -1  -2    8.84    0.37
  -6  -1  -2    8.12    0.44
   6  -1   2    7.96    0.49
  -6  -1  -2    7.95    0.32
  -5   1  -3   39.55    0.96
  -5   1  -3   37.40    1.12
   5   1   3   38.64    1.01
  -5   1  -3   37.70    1.00
  -5  -1  -3   36.83    1.08
   5  -1   3   38.17    1.03
   5  -1   3   38.65    1.03
  -4   1  -4   48.68    1.25
  -4   1  -4   49.23    1.17
   4   1   4   50.48    1.20
   4  -1   4   50.05    1.24
   4  -1   4   49.40    1.24
   3   1   5    6.44    0.35
  -3   1  -5    7.62    0.54
   3  -1   5    6.80    0.41
   3  -1   5    7.03    0.42
   2   1   6  134.37    2.84
  -2   1  -6  130.03    3.09
   2  -1   6  139.50    2.90
   1   1   7   25.09    0.64
  -1   1  -7   22.87    0.97
  -1  -1  -7   24.49    1.01
   1  -1   7   26.01    0.73
   0   1   8    5.37    0.26
   0   1  -8    5.16    0.67
   0  -1  -8    5.60    0.70
   0  -1   8    5.51    0.37
   1   1  -9  120.49    3.14
  -1   1   9  131.75    2.63
   1  -1  -9  127.56    3.20
  -1  -1   9  129.54    2.74
   2   1 -10   14.18    0.99
  -2   1  10   15.22    0.40
  -2  -1  10   15.17    0.55
   2  -1 -10   14.43    0.99
  -3   1  11    1.36    0.15
   3   1 -11    1.91    0.59
   3  -1 -11    1.57    0.59
  -3  -1  11    1.34    0.24
   4   1 -12    3.52    0.73
  -4   1  12    2.22    0.19
   4  -1 -12    3.03    0.69
  -4  -1  12    2.47    0.39
   5   1 -13    7.58    1.08
  -5   1  13    5.91    0.34
   5  -1 -13    7.51    1.09
  -5  -1  13    6.40    0.49
   6   1 -14    9.02    1.19
   6  -1 -14    8.33    1.18
  -6  -1  14    6.82    0.54
 -13   2   5    8.18    1.02
 -13   2   5   10.04    0.88
 -13  -2   5    8.93    0.89
 -13  -2   5    8.74    0.85
 -12   2   4   10.29    0.96
 -12   2   4   10.64    0.84
  12   2  -4   11.96    0.69
 -12  -2   4   10.13    0.84
 -12  -2   4   10.00    0.84
 -11   2   3   30.13    1.14
 -11   2   3   30.46    1.23
  11   2  -3   31.85    1.05
 -11  -2   3   31.93    1.14
 -11  -2   3   31.61    1.14
 -10   2   2    1.60    0.42
  10   2  -2    2.26    0.35
  10   2  -2    2.14    0.36
 -10   2   2    1.71    0.40
 -10  -2   2    1.92    0.40
  10  -2  -2    1.99    0.32
 -10  -2   2    1.11    0.32
  -9   2   1  105.34    2.56
  -9   2   1  107.87    2.51
   9   2  -1  105.22    2.47
  -9  -2   1  108.96    2.47
   9  -2  -1  101.90    2.45
  -9  -2   1  107.85    2.44
   8   2   0   47.63    1.31
  -8   2   0   48.75    1.34
  -8   2   0   47.02    1.38
  -8  -2   0   48.59    1.28
   8  -2   0   48.66    1.30
  -8  -2   0   48.46    1.24
  -7   2  -1    3.33    0.57
  -7   2  -1    2.56    0.35
   7   2   1    3.22    0.43
   7  -2   1    3.38    0.43
  -7  -2  -1    3.48    0.35
  -7  -2  -1    2.84    0.31
  -6   2  -2   13.75    0.65
   6   2   2   13.88    0.58
  -6   2  -2   14.49    0.68
   6  -2   2   13.34    0.59
  -5   2  -3  105.86    2.33
  -5   2  -3  106.85    2.33
   5   2   3  105.53    2.32
  -5   2  -3  101.42    2.26
   5  -2   3   99.54    2.36
   5  -2   3  106.46    2.37
  -4   2  -4    7.52    0.48
  -4   2  -4    8.73    0.45
  -4   2  -4    8.74    0.48
   4   2   4    8.16    0.43
   4  -2   4    8.13    0.49
   4  -2   4    8.10    0.49
  -3   2  -5   15.05    0.68
   3   2   5   15.33    0.52
   3  -2   5   15.50    0.61
   3  -2   5   15.29    0.60
  -2   2  -6   35.17    1.16
   2   2   6   35.50    0.88
   2  -2   6   35.96    0.99
   2  -2   6   35.62    0.99
  -1   2  -7   65.42    1.85
   1   2   7   67.90    1.47
   1  -2   7   66.49    1.59
   0   2  -8    9.93    0.82
   0   2   8   10.71    0.34
   0  -2   8   10.34    0.52
  -1   2   9    7.82    0.25
   1   2  -9    7.73    0.83
  -1  -2   9    7.67    0.48
   2   2 -10    5.27    0.84
  -2  -2  10    4.98    0.45
   2  -2 -10    5.86    0.85
   3   2 -11    3.51    0.68
  -3  -2  11    2.69    0.33
   3  -2 -11    3.49    0.69
   4   2 -12    0.36    0.63
  -4  -2  12   -0.20    0.25
   4  -2 -12    0.20    0.60
   5   2 -13   15.19    1.29
  -5  -2  13   13.81    0.69
   5  -2 -13   14.96    1.29
  12   3  -4   24.03    0.98
 -12   3   4   22.59    1.25
 -12   3   4   22.94    1.09
 -12  -3   4   22.94    1.14
 -12  -3   4   21.65    1.04
  11   3  -3   16.82    0.82
 -11   3   3   16.07    0.92
 -11   3   3   16.08    1.06
 -11  -3   3   15.18    0.85
 -11  -3   3   14.92    0.96
  10   3  -2    1.62    0.35
 -10   3   2    1.51    0.42
 -10   3   2    1.40    0.43
 -10  -3   2    1.05    0.29
   9   3  -1   53.13    1.47
  -9   3   1   53.54    1.52
  -9   3   1   52.85    1.59
   9  -3  -1   54.31    1.44
  -9  -3   1   53.39    1.39
   8   3   0   42.61    1.22
  -8   3   0   40.60    1.32
   8   3   0   42.47    1.21
  -8   3   0   40.49    1.27
  -8  -3   0   42.77    1.09
   8  -3   0   42.17    1.20
  -7   3  -1    2.46    0.38
   7   3   1    3.43    0.46
  -7   3  -1    2.40    0.36
   7   3   1    3.93    0.47
   7  -3   1    3.42    0.45
  -7  -3  -1    3.30    0.27
  -6   3  -2   11.11    0.63
  -6   3  -2   10.80    0.67
   6   3   2   10.50    0.57
   6  -3   2   10.09    0.58
   5   3   3   16.51    0.64
  -5   3  -3   16.30    0.73
  -5   3  -3   15.81    0.70
   5  -3   3   16.32    0.67
   5  -3   3   15.37    0.67
  -4   3  -4   47.08    1.23
   4   3   4   48.07    1.20
  -4   3  -4   46.82    1.23
  -4   3  -4   47.26    1.31
   4  -3   4   47.59    1.27
   4  -3   4   47.14    1.29
  -3   3  -5   24.48    0.73
  -3   3  -5   24.55    0.94
   3   3   5   23.65    0.72
   3  -3   5   23.80    0.83
   3  -3   5   24.55    0.81
  -2   3  -6   37.23    1.28
   2   3   6   37.62    0.95
   2  -3   6   37.31    1.10
   2  -3   6   38.47    1.08
  -1   3  -7   85.18    2.32
   1   3   7   84.16    1.88
   1  -3   7   85.52    2.06
   1  -3   7   90.16    2.05
   0   3  -8   27.12    1.25
   0   3   8   27.65    0.70
   0  -3   8   27.94    0.89
   1   3  -9    5.92    0.87
  -1   3   9    5.22    0.25
  -1  -3   9    5.10    0.52
  -2   3  10    5.92    0.22
   2   3 -10    5.92    0.94
  -2  -3  10    5.92    0.54
   3   3 -11    4.99    0.99
  -3  -3  11    4.09    0.53
   4   3 -12   13.05    1.26
  -4  -3  12   12.08    0.71
  -5  -3  13    3.00    0.43
 -11   4   3   11.18    0.89
 -11   4   3   11.06    1.07
  11   4  -3   12.52    0.81
 -11  -4   3   10.42    0.75
 -10   4   2   18.53    0.98
  10   4  -2   19.07    0.88
 -10   4   2   19.26    1.11
 -10  -4   2   17.69    0.78
  -9   4   1    5.25    0.72
   9   4  -1    5.52    0.61
  -9   4   1    5.62    0.83
  -9  -4   1    4.83    0.48
   8   4   0    0.16    0.31
  -8   4   0   -0.02    0.36
  -8   4   0    0.08    0.33
   8  -4   0   -0.13    0.26
  -8  -4   0   -0.14    0.16
   7   4   1    9.09    0.60
  -7   4  -1    9.42    0.77
  -7   4  -1    9.93    0.70
   7  -4   1    9.52    0.59
   6   4   2    3.53    0.50
  -6   4  -2    4.24    0.58
  -6   4  -2    4.10    0.66
   6  -4   2    4.23    0.51
  -5   4  -3   20.64    0.86
   5   4   3   20.86    0.78
  -5   4  -3   20.89    0.84
   5  -4   3   21.14    0.83
   5  -4   3   20.70    0.82
  -4   4  -4    4.49    0.56
  -4   4  -4    4.58    0.55
   4   4   4    4.58    0.44
  -4   4  -4    3.18    0.62
   4  -4   4    4.72    0.52
   4  -4   4    4.20    0.52
   3   4   5    7.36    0.47
  -3   4  -5    7.65    0.56
  -3   4  -5    7.26    0.75
   3  -4   5    7.42    0.58
   3  -4   5    7.81    0.56
  -2   4  -6   15.85    1.00
   2   4   6   15.02    0.58
  -2   4  -6   16.31    0.61
   2  -4   6   16.10    0.76
   2  -4   6   16.26    0.72
  -1   4  -7    9.28    0.96
   1   4   7    8.97    0.43
   1  -4   7    8.89    0.65
   1  -4   7    9.87    0.62
   0   4  -8   13.06    1.06
   0   4   8   12.94    0.48
   0  -4   8   11.80    0.72
   0  -4   8   13.21    0.71
  -1   4   9   12.78    0.45
   1   4  -9   13.05    1.13
  -1  -4   9   13.24    0.70
  -2   4  10    8.77    0.36
   2   4 -10    9.48    1.14
  -2  -4  10    8.40    0.65
   3   4 -11    2.88    0.80
  -3  -4  11    1.93    0.41
   4   4 -12    1.43    0.82
  -4  -4  12    0.03    0.36
 -10   5   2    5.75    0.83
  10   5  -2    6.85    0.72
 -10   5   2    6.19    1.02
 -10  -5   2    4.96    0.53
  -9   5   1    9.94    0.86
  -9   5   1    9.31    0.99
   9   5  -1   10.06    0.78
  -9  -5   1    8.94    0.48
  -8   5   0    2.33    0.45
   8   5   0    2.63    0.42
  -8   5   0    2.78    0.51
   7   5   1    5.90    0.65
  -7   5  -1    6.30    0.81
  -7   5  -1    6.62    0.72
   7  -5   1    6.55    0.58
  -6   5  -2   12.28    0.80
   6   5   2   11.35    0.69
  -6   5  -2   12.18    0.85
   6  -5   2   11.52    0.69
  -5   5  -3    8.43    0.75
   5   5   3    8.08    0.60
  -5   5  -3    8.68    0.68
   5  -5   3    8.19    0.66
   5  -5   3    8.94    0.63
  -4   5  -4   25.90    0.99
  -4   5  -4   26.17    1.01
   4   5   4   25.56    0.88
   4  -5   4   26.57    0.99
   4  -5   4   25.25    0.95
   3   5   5   23.21    0.81
  -3   5  -5   23.39    0.89
   3  -5   5   22.63    0.95
   3  -5   5   23.40    0.92
  -2   5  -6    4.43    0.53
   2   5   6    4.55    0.45
   2  -5   6    4.20    0.63
   2  -5   6    4.53    0.58
   1   5   7    5.58    0.46
  -1   5  -7    5.35    0.45
  -1   5  -7    4.02    0.83
   1  -5   7    5.42    0.63
   1  -5   7    4.46    0.67
   0   5   8    4.58    0.43
   0   5  -8    4.91    0.90
   0  -5   8    4.64    0.62
   0  -5   8    3.78    0.68
   1   5  -9    5.47    0.97
  -1   5   9    6.05    0.43
  -1  -5   9    5.56    0.65
  -1  -5   9    4.23    0.51
  -2   5  10    1.18    0.22
   2   5 -10    1.04    0.80
  -2  -5  10    0.68    0.38
   8   6   0    3.81    0.52
  -8   6   0    2.34    0.53
  -8   6   0    3.41    0.54
  -7   6  -1   10.51    0.88
  -7   6  -1   10.33    0.96
   7   6   1   10.51    0.78
  -6   6  -2    2.75    0.46
  -6   6  -2    3.02    0.53
   6   6   2    4.15    0.63
  -5   6  -3   21.14    1.03
   5   6   3   22.11    0.92
  -5   6  -3   21.59    1.06
   5  -6   3   22.35    0.94
   4   6   4    9.81    0.70
  -4   6  -4    9.82    0.82
   4  -6   4   10.60    0.76
   4  -6   4    9.98    0.72
  -3   6  -5    7.69    0.73
   3   6   5    8.24    0.65
   3  -6   5    7.26    0.68
   3  -6   5    7.45    0.74
   2   6   6   12.08    0.70
  -2   6  -6   11.29    0.71
   2  -6   6   11.09    0.84
   2  -6   6   11.81    0.81
  -1   6  -7    4.50    0.55
   1   6   7    5.85    0.58
   1  -6   7    4.78    0.77
   1  -6   7    5.44    0.69
   0   6  -8    2.89    0.96
   0  -6   8    4.51    0.69
   0  -6   8    3.17    0.46
 -13   0   4   25.64    1.18
 -13   0   4   26.51    1.13
 -12   0   3   -0.26    0.34
  12   0  -3   -0.13    0.30
 -12   0   3   -0.74    0.40
 -11   0   2    0.35    0.41
 -11   0   2    0.40    0.33
  11   0  -2    0.84    0.32
  10   0  -1    0.11    0.27
 -10   0   1   -0.07    0.28
 -10   0   1   -0.65    0.35
  -9   0   0   14.00    0.74
   9   0   0   13.98    0.66
  -9   0   0   14.10    0.71
   8   0   1   -0.04    0.26
  -8   0  -1   -0.07    0.22
  -8   0  -1   -0.50    0.29
  -7   0  -2  295.77    6.08
   7   0   2  281.99    6.13
  -7   0  -2  302.84    6.37
  -6   0  -3    0.19    0.12
   6   0   3   -0.05    0.22
  -6   0  -3   -0.13    0.09
   5   0   4   10.18    0.51
   4   0   5   -0.07    0.18
  -3   0  -6   60.62    1.66
   3   0   6   63.54    1.47
   2   0   7    0.05    0.17
  -2   0  -7    0.14    0.35
  -1   0  -8   10.16    0.77
   1   0   8   10.27    0.42
   0   0  -9   -0.05    0.43
   0   0   9    0.09    0.16
  -1   0  10   15.34    0.51
   1   0 -10   14.56    0.94
   2   0 -11    0.13    0.54
  -2   0  11   -0.01    0.17
  -3   0  12    7.60    0.40
   3   0 -12    8.21    1.03
   4   0 -13    0.25    0.57
   5   0 -14    1.62    0.69
 -13   1   4    8.02    0.91
 -13   1   4    7.54    0.89
 -13  -1   4    8.36    0.85
 -13  -1   4    8.28    0.86
  12   1  -3    0.59    0.33
 -12   1   3    0.29    0.37
  12   1  -3    0.54    0.32
 -12   1   3    0.04    0.43
 -12  -1   3    0.04    0.44
 -12  -1   3   -0.13    0.35
 -11   1   2    7.27    0.77
  11   1  -2    7.55    0.61
 -11   1   2    7.36    0.75
  11  -1  -2    7.96    0.61
 -11  -1   2    6.91    0.73
 -11  -1   2    7.27    0.71
 -10   1   1   24.03    1.00
  10   1  -1   23.51    0.90
 -10   1   1   24.76    0.97
  10  -1  -1   24.41    0.88
 -10  -1   1   24.19    0.93
 -10  -1   1   24.94    0.96
   9   1   0    9.21    0.59
  -9   1   0    9.61    0.67
  -9   1   0    9.53    0.70
  -9  -1   0    8.32    0.64
  -9  -1   0    9.35    0.60
   9  -1   0    8.96    0.59
   8   1   1   40.59    1.16
  -8   1  -1   41.03    1.19
  -8   1  -1   41.32    1.19
   8  -1   1   41.78    1.17
  -8  -1  -1   41.72    1.09
  -8  -1  -1   40.66    1.15
  -7   1  -2    1.98    0.27
  -7   1  -2    2.31    0.34
   7   1   2    2.41    0.32
   7  -1   2    2.19    0.31
  -7  -1  -2    2.32    0.30
  -6   1  -3   83.88    1.81
   6   1   3   82.77    1.90
  -6   1  -3   80.15    1.87
   6  -1   3   77.26    1.91
   5   1   4  109.53    2.45
   5  -1   4  110.89    2.49
   5  -1   4  111.17    2.49
  -4   1  -5   19.93    0.74
   4   1   5   19.95    0.65
   4  -1   5   20.58    0.69
   4  -1   5   19.26    0.68
   3   1   6   32.68    0.88
  -3   1  -6   33.52    1.10
   3  -1   6   34.99    0.94
   2   1   7    8.23    0.38
  -2   1  -7    9.45    0.68
   2  -1   7    8.43    0.45
   1   1   8    2.31    0.26
  -1   1  -8    2.58    0.50
   1  -1   8    1.88    0.25
  -1  -1  -8    2.29    0.50
   0   1   9   14.41    0.45
   0   1  -9   14.48    0.92
   0  -1  -9   13.87    0.92
   0  -1   9   14.99    0.56
   1   1 -10    4.55    0.79
  -1   1  10    4.81    0.27
  -1  -1  10    5.13    0.40
   1  -1 -10    4.04    0.79
   2   1 -11    5.69    0.90
  -2   1  11    5.02    0.28
   2  -1 -11    5.17    0.80
  -2  -1  11    5.02    0.41
  -3   1  12    4.38    0.28
   3   1 -12    5.12    0.85
  -3  -1  12    4.66    0.43
   3  -1 -12    5.29    0.98
   4   1 -13    0.91    0.60
   4  -1 -13    0.68    0.67
  -4  -1  13    0.18    0.24
   5   1 -14    1.45    0.75
   5  -1 -14    1.28    0.67
 -13   2   4    5.49    0.65
 -13   2   4    3.77    0.55
 -13  -2   4    5.20    0.82
 -13  -2   4    4.88    0.69
  12   2  -3   21.05    0.91
 -12   2   3   20.70    1.06
 -12   2   3   20.07    1.10
 -12  -2   3   20.52    0.99
 -12  -2   3   18.82    1.06
  11   2  -2   11.98    0.73
 -11   2   2   11.61    0.90
 -11   2   2   11.60    0.82
  11   2  -2   12.74    0.71
 -11  -2   2   13.71    1.28
  11  -2  -2   13.03    0.68
 -11  -2   2   11.71    0.76
  10   2  -1    4.25    0.54
 -10   2   1    3.49    0.48
  10  -2  -1    4.19    0.50
 -10  -2   1    3.25    0.56
  -9   2   0   13.33    0.81
  -9   2   0   12.29    0.75
   9   2   0   12.61    0.67
   9  -2   0   13.11    0.66
  -9  -2   0   12.32    0.61
  -8   2  -1    9.16    0.69
  -8   2  -1    8.78    0.64
   8   2   1    8.99    0.58
  -8  -2  -1    8.62    0.44
   8  -2   1    9.49    0.58
  -7   2  -2   23.05    0.84
   7   2   2   23.44    0.82
  -7   2  -2   24.02    0.87
   7  -2   2   23.55    0.83
  -6   2  -3   30.73    0.92
   6   2   3   30.58    0.91
  -6   2  -3   29.70    0.92
   6  -2   3   29.76    0.94
  -5   2  -4    0.91    0.20
   5   2   4    1.09    0.24
   5  -2   4    0.88    0.22
   5  -2   4    0.59    0.25
  -4   2  -5   12.96    0.62
   4   2   5   12.75    0.52
   4  -2   5   12.23    0.59
   4  -2   5   12.83    0.59
   3   2   6    8.65    0.42
  -3   2  -6    9.57    0.63
   3  -2   6    8.50    0.51
   3  -2   6    8.80    0.51
  -2   2  -7    3.83    0.58
   2   2   7    3.49    0.31
   2  -2   7    3.52    0.42
  -1   2  -8   34.18    1.27
   1   2   8   35.30    0.87
   1  -2   8   35.74    1.02
   0   2  -9    8.73    0.84
   0   2   9    7.16    0.31
   0  -2   9    6.98    0.48
  -1   2  10    4.64    0.24
   1   2 -10    4.89    0.82
  -1  -2  10    4.37    0.45
   2   2 -11   15.11    1.11
  -2  -2  11   16.11    0.68
   2  -2 -11   16.81    1.17
   3   2 -12    1.08    0.65
  -3  -2  12    0.54    0.28
   3  -2 -12    0.76    0.65
   4   2 -13    3.18    0.79
  -4  -2  13    2.18    0.36
   4  -2 -13    2.99    0.81
 -12   3   3   19.27    1.19
  12   3  -3   20.92    0.95
 -12   3   3   18.77    1.04
 -12  -3   3   19.15    0.93
 -11   3   2    7.86    0.93
 -11   3   2    7.35    0.78
  11   3  -2    8.36    0.72
 -11  -3   2    6.85    0.64
 -10   3   1    2.01    0.45
 -10   3   1    2.02    0.44
  10   3  -1    2.20    0.38
  10  -3  -1    2.47    0.36
 -10  -3   1    1.62    0.28
  -9   3   0    1.18    0.39
   9   3   0    1.36    0.35
  -9   3   0    1.04    0.37
   9   3   0    1.54    0.35
  -9  -3   0    1.17    0.22
   9  -3   0    1.39    0.32
  -8   3  -1   36.65    1.22
   8   3   1   36.03    1.11
   8   3   1   36.87    1.13
  -8   3  -1   34.95    1.16
   8  -3   1   36.85    1.12
  -7   3  -2   13.87    0.77
   7   3   2   13.51    0.67
  -7   3  -2   13.74    0.71
   7  -3   2   14.36    0.67
   6   3   3   17.35    0.69
  -6   3  -3   16.99    0.75
  -6   3  -3   17.71    0.77
   6  -3   3   16.88    0.73
  -5   3  -4   34.46    1.00
   5   3   4   33.98    0.98
   5  -3   4   32.09    1.04
   5  -3   4   33.18    1.04
  -4   3  -5    7.13    0.46
  -4   3  -5    7.96    0.57
   4   3   5    6.73    0.45
   4  -3   5    7.38    0.55
   4  -3   5    6.85    0.54
  -3   3  -6    4.75    0.59
   3   3   6    3.80    0.37
   3  -3   6    3.23    0.47
   3  -3   6    3.55    0.45
   2   3   7   18.09    0.59
  -2   3  -7   18.53    0.93
   2  -3   7   17.75    0.79
   2  -3   7   18.60    0.75
   1   3   8    3.25    0.30
  -1   3  -8    3.92    0.72
   1  -3   8    2.57    0.34
   0   3   9   17.38    0.52
   0   3  -9   17.41    1.05
   0  -3   9   17.81    0.74
  -1   3  10    7.79    0.31
   1   3 -10    9.11    0.98
  -1  -3  10    7.01    0.57
   2   3 -11    8.10    1.09
  -2  -3  11    6.75    0.61
   3   3 -12    1.05    0.70
  -3  -3  12    0.01    0.31
   4   3 -13    6.54    1.18
 -11   4   2    3.44    0.55
 -11   4   2    4.07    0.59
 -11  -4   2    4.39    0.56
 -10   4   1   10.48    0.99
 -10   4   1   11.02    0.87
  10   4  -1   11.08    0.75
 -10  -4   1   10.25    0.57
  -9   4   0   17.43    0.95
  -9   4   0   18.24    1.04
   9   4   0   18.64    0.86
   9  -4   0   18.27    0.81
  -9  -4   0   18.39    0.55
  -8   4  -1   14.55    0.86
   8   4   1   15.22    0.76
  -8   4  -1   14.90    0.91
   8  -4   1   15.50    0.74
  -7   4  -2   14.92    0.85
   7   4   2   15.54    0.75
  -7   4  -2   14.96    0.82
   7  -4   2   15.69    0.73
  -6   4  -3    2.06    0.40
   6   4   3    2.21    0.34
  -6   4  -3    1.61    0.34
   6  -4   3    1.87    0.34
  -5   4  -4    8.88    0.66
   5   4   4    9.19    0.57
   5   4   4    8.84    0.57
   5  -4   4    9.47    0.64
   5  -4   4    8.95    0.62
   4   4   5   21.52    0.76
   4   4   5   21.68    0.77
  -4   4  -5   22.18    0.80
   4  -4   5   22.01    0.89
   4  -4   5   22.31    0.86
   3   4   6    7.14    0.47
  -3   4  -6    7.74    0.75
  -3   4  -6    7.22    0.46
   3   4   6    7.25    0.48
   3  -4   6    7.02    0.61
   3  -4   6    7.01    0.58
   2   4   7    4.46    0.40
  -2   4  -7    5.49    0.79
   2  -4   7    4.00    0.58
   2  -4   7    4.40    0.55
  -1   4  -8   24.24    1.25
   1   4   8   23.99    0.73
   1   4   8   24.49    0.73
   1  -4   8   24.18    0.93
   0   4   9   26.76    0.75
   0   4  -9   27.07    1.39
   0  -4   9   27.15    0.99
  -1   4  10   12.59    0.46
   1   4 -10   13.45    1.20
  -1  -4  10   12.25    0.73
  -2  -4  11    2.31    0.42
   9   5   0   20.94    1.01
  -9   5   0   20.03    1.09
  -9   5   0   21.10    1.16
  -8   5  -1   22.44    1.13
  -8   5  -1   21.60    1.04
   8   5   1   22.31    0.98
  -7   5  -2    5.99    0.74
   7   5   2    7.74    0.68
  -7   5  -2    6.52    0.82
   7  -5   2    7.12    0.63
   6   5   3   18.04    0.84
  -6   5  -3   18.91    0.94
   6  -5   3   18.36    0.87
   5   5   4    0.19    0.29
  -5   5  -4    0.01    0.30
   5  -5   4    0.08    0.32
   5  -5   4    0.14    0.28
   4   5   5   13.92    0.68
  -4   5  -5   12.81    0.74
   4  -5   5   14.46    0.79
   4  -5   5   13.93    0.78
   3   5   6    2.28    0.33
  -3   5  -6    1.81    0.30
   3  -5   6    2.07    0.36
   3  -5   6    2.63    0.43
   2   5   7   11.44    0.59
  -2   5  -7    9.65    0.47
  -2   5  -7   10.50    1.05
   2  -5   7   11.84    0.75
   2  -5   7   11.16    0.80
  -1   5  -8   16.34    1.23
   1   5   8   16.94    0.67
   1  -5   8   16.90    0.86
   1  -5   8   15.95    0.92
   0   5   9    1.32    0.26
   0   5  -9    1.39    0.73
   0  -5   9    1.18    0.41
   1   5 -10    7.41    1.16
  -1   5  10    8.14    0.47
  -1  -5  10    6.97    0.75
   6   6   3    0.69    0.38
  -6   6  -3    0.74    0.40
   6  -6   3    0.65    0.37
   5   6   4    4.65    0.66
  -5   6  -4    2.54    0.42
   5  -6   4    3.23    0.47
   4   6   5    7.78    0.69
  -4   6  -5    6.29    0.71
   4  -6   5    7.75    0.77
   4  -6   5    6.85    0.72
   3   6   6   13.23    0.73
  -3   6  -6   10.95    0.72
   3  -6   6   12.14    0.82
   3  -6   6   12.24    0.87
  -2   6  -7    3.41    0.34
 -13   0   3   -0.57    0.36
 -12   0   2   30.90    1.21
 -12   0   2   31.07    1.19
  12   0  -2   32.37    1.12
  11   0  -1   -0.17    0.31
 -11   0   1   -0.24    0.29
  10   0   0   12.09    0.67
 -10   0   0   11.76    0.70
 -10   0   0   11.60    0.79
  -9   0  -1   -0.30    0.24
   9   0   1    0.08    0.27
  -8   0  -2    4.82    0.44
   8   0   2    4.72    0.51
   7   0   3   -0.04    0.23
  -7   0  -3   -0.04    0.11
   6   0   4   81.42    1.93
   5   0   5    0.32    0.23
   4   0   6  116.44    2.59
   3   0   7    0.07    0.20
  -3   0  -7    0.31    0.37
  -2   0  -8   12.45    0.84
   2   0   8   13.26    0.53
   1   0   9    0.00    0.18
  -1   0  -9    0.11    0.43
   0   0 -10    9.51    0.93
   0   0  10    9.11    0.44
  -1   0  11   -0.02    0.18
   1   0 -11    0.38    0.50
  -2   0  12    2.64    0.35
   2   0 -12    4.15    0.79
   3   0 -13    0.66    0.64
  13   1  -3    3.57    0.52
  13   1  -3    4.63    0.68
 -13   1   3    2.67    0.47
 -13   1   3    2.46    0.57
 -13  -1   3    3.02    0.47
 -12   1   2    5.19    0.81
  12   1  -2    6.38    0.68
 -12   1   2    6.28    0.79
  12  -1  -2    6.51    0.65
 -12  -1   2    5.97    0.74
 -11   1   1    7.79    0.74
 -11   1   1    8.46    0.76
  11   1  -1    9.23    0.69
 -11  -1   1    8.45    0.69
  11  -1  -1    9.20    0.64
 -10   1   0    1.62    0.35
  10   1   0    2.38    0.39
 -10   1   0    1.91    0.43
  10  -1   0    2.60    0.38
 -10  -1   0    1.64    0.31
   9   1   1    6.47    0.55
  -9   1  -1    5.59    0.59
  -9   1  -1    6.54    0.62
  -9  -1  -1    5.62    0.49
   9  -1   1    6.03    0.54
   8   1   2    2.95    0.46
  -8   1  -2    3.10    0.49
  -8  -1  -2    2.66    0.31
   8  -1   2    3.25    0.49
   7   1   3   26.08    0.89
  -7   1  -3   27.64    0.79
   7  -1   3   28.22    0.91
   6   1   4    7.13    0.48
   6  -1   4    7.05    0.51
   5   1   5    7.10    0.46
   5  -1   5    6.82    0.49
   5  -1   5    7.62    0.48
  -4   1  -6    1.04    0.33
   4   1   6    0.65    0.22
   4  -1   6    0.64    0.24
   3   1   7   13.39    0.53
  -3   1  -7   13.49    0.76
   3  -1   7   13.29    0.59
  -2   1  -8    7.96    0.76
   2   1   8    7.38    0.40
   2  -1   8    7.04    0.46
  -1   1  -9   10.11    0.88
   1   1   9   10.19    0.43
  -1  -1  -9    9.20    0.86
   1  -1   9    9.92    0.51
   0   1  10   11.01    0.43
   0   1 -10   11.52    0.96
   0  -1 -10   10.76    0.97
   0  -1  10   10.84    0.53
  -1   1  11    5.34    0.32
   1   1 -11    5.75    0.91
   1  -1 -11    5.39    0.92
  -1  -1  11    4.90    0.43
   2   1 -12    8.54    1.06
  -2   1  12    7.99    0.37
   2  -1 -12    8.80    1.07
  -2  -1  12    7.50    0.49
   3   1 -13   18.64    1.35
  -3   1  13   18.70    0.69
   3  -1 -13   17.25    1.34
  -3  -1  13   17.19    0.69
 -12   2   2   19.43    1.07
  12   2  -2   20.38    0.90
 -12   2   2   17.76    1.00
 -12  -2   2   19.38    0.92
 -11   2   1   21.02    1.00
 -11   2   1   20.86    1.05
  11   2  -1   21.68    0.94
  11   2  -1   22.25    0.93
 -11  -2   1   20.11    0.85
  11  -2  -1   22.73    0.91
 -10   2   0    3.64    0.50
  10   2   0    4.68    0.58
 -10   2   0    4.59    0.72
  10  -2   0    5.09    0.55
 -10  -2   0    4.33    0.49
   9   2   1   31.78    1.05
  -9   2  -1   30.53    1.08
  -9   2  -1   31.39    1.10
  -9  -2  -1   31.44    0.84
   9  -2   1   32.33    1.06
  -8   2  -2    2.60    0.34
  -8   2  -2    2.31    0.40
   8   2   2    2.66    0.36
   8  -2   2    3.75    0.50
  -7   2  -3   19.67    0.75
   7   2   3   19.70    0.76
   7  -2   3   19.41    0.78
   6   2   4   10.10    0.56
  -6   2  -4   10.92    0.50
   6  -2   4   10.49    0.61
   6  -2   4   10.76    0.59
   5   2   5   31.17    0.93
   5  -2   5   31.51    0.98
   5  -2   5   30.54    0.98
   4   2   6    3.37    0.38
   4  -2   6    3.31    0.47
   4  -2   6    2.94    0.53
  -3   2  -7   11.49    0.72
   3   2   7   10.54    0.49
   3  -2   7   11.22    0.57
  -2   2  -8    8.56    0.75
   2   2   8    7.45    0.41
   2  -2   8    7.83    0.52
  -1   2  -9    4.02    0.72
   1   2   9    3.22    0.30
   1  -2   9    2.88    0.45
   0   2  10    2.28    0.27
   0   2 -10    2.96    0.61
   0  -2  10    1.95    0.32
   1   2 -11    1.56    0.60
  -1   2  11    1.11    0.16
  -1  -2  11    0.95    0.29
   2   2 -12    2.70    0.72
  -2  -2  12    1.12    0.30
   3   2 -13    1.83    0.73
 -12   3   2    8.22    0.98
 -12   3   2    6.22    0.91
  12   3  -2   10.59    0.76
 -12  -3   2    8.26    0.67
 -11   3   1    4.54    0.60
  11   3  -1    6.38    0.67
 -11   3   1    5.47    0.86
 -11  -3   1    5.41    0.55
  10   3   0   13.38    0.75
 -10   3   0   11.93    0.91
 -10   3   0   11.66    0.83
 -10  -3   0   12.23    0.54
  10  -3   0   12.86    0.72
  -9   3  -1    5.79    0.69
  -9   3  -1    7.46    0.77
   9   3   1    8.08    0.63
   9   3   1    7.98    0.63
   9  -3   1    7.51    0.61
  -8   3  -2   12.03    0.77
   8   3   2   12.43    0.68
  -8   3  -2   11.74    0.74
   8  -3   2   12.02    0.70
   7   3   3    1.40    0.33
  -7   3  -3    0.90    0.30
   7  -3   3    1.52    0.33
  -6   3  -4    5.21    0.53
   6   3   4    5.21    0.51
   6  -3   4    5.71    0.56
   6  -3   4    5.40    0.54
  -5   3  -5    4.09    0.40
   5   3   5    4.01    0.45
   5  -3   5    4.10    0.51
   5  -3   5    3.98    0.51
   4   3   6    1.69    0.27
   4  -3   6    1.23    0.26
   4  -3   6    1.94    0.35
  -3   3  -7    1.07    0.39
   3   3   7    0.36    0.21
   3  -3   7    0.51    0.28
   2   3   8    3.36    0.35
   2  -3   8    3.47    0.51
   1   3   9   14.29    0.52
  -1   3  -9   14.84    1.00
   1  -3   9   14.95    0.74
   0   3 -10    9.66    1.00
   0   3  10    7.90    0.38
   0  -3  10    8.40    0.63
   1   3 -11   10.59    1.07
  -1   3  11    9.06    0.36
  -1  -3  11    8.08    0.64
   2   3 -12    2.94    0.74
  -2  -3  12    1.95    0.38
 -11  -4   1    3.09    0.43
  10   4   0    2.67    0.46
 -10   4   0    1.60    0.46
 -10   4   0    0.39    0.47
  -9   4  -1   23.09    1.09
   9   4   1   25.72    1.01
  -9   4  -1   24.80    1.13
   9  -4   1   25.52    0.98
  -8   4  -2    2.29    0.41
   8   4   2    3.27    0.43
   8  -4   2    2.32    0.38
   7   4   3   -0.05    0.30
  -7   4  -3    0.06    0.31
   7  -4   3    0.31    0.30
   6   4   4    5.83    0.56
  -6   4  -4    6.40    0.64
   6   4   4    6.35    0.58
   6  -4   4    6.76    0.61
   6  -4   4    6.54    0.62
   5   4   5    3.19    0.47
  -5   4  -5    3.29    0.53
   5   4   5    3.77    0.49
   5  -4   5    3.72    0.56
   5  -4   5    3.36    0.57
  -4   4  -6    1.03    0.20
   4   4   6    1.50    0.29
   4  -4   6    1.31    0.35
   4  -4   6    1.23    0.30
   3   4   7   10.07    0.55
   3  -4   7    9.70    0.69
   3  -4   7   10.89    0.69
  -2   4  -8   20.77    1.08
   2   4   8   19.32    0.69
   2  -4   8   19.61    0.87
  -1   4  -9    1.41    0.56
   1   4   9    0.28    0.21
   1  -4   9    0.52    0.35
   0   4  10    9.97    0.46
   0   4 -10   11.62    1.07
   0  -4  10    9.04    0.71
  -1   4  11    3.30    0.32
  -1  -4  11    2.42    0.44
  -8   5  -2   11.73    0.94
   8   5   2   11.55    0.78
   8  -5   2   12.18    0.75
  -7   5  -3    7.33    0.80
   7   5   3    8.08    0.71
   7  -5   3    8.62    0.68
   6   5   4    0.68    0.35
  -6   5  -4    0.24    0.33
   6  -5   4    0.25    0.35
  -5   5  -5    2.48    0.36
   5   5   5    3.21    0.41
   5  -5   5    3.21    0.46
   5  -5   5    3.75    0.64
  -4   5  -6    2.29    0.31
   4   5   6    4.03    0.54
   4  -5   6    3.20    0.47
   4  -5   6    3.74    0.65
   3   5   7    3.60    0.52
   3  -5   7    2.53    0.40
   3  -5   7    3.56    0.49
   2   5   8    0.53    0.26
   2  -5   8    0.11    0.36
   2  -5   8    0.03    0.31
  -1   5  -9   10.49    1.06
   1   5   9    8.38    0.55
   1  -5   9    6.89    0.75
 -13   0   2   -0.16    0.37
  13   0  -2    0.75    0.39
 -12   0   1   -0.12    0.33
  12   0  -1   -0.04    0.35
  11   0   0    8.88    0.68
 -11   0   0    8.45    0.69
 -10   0  -1   -0.26    0.24
  10   0   1   -0.23    0.31
   9   0   2    1.11    0.33
  -9   0  -2    0.82    0.23
   8   0   3    0.03    0.27
   7   0   4    1.06    0.29
   6   0   5   -0.03    0.24
   5   0   6    4.90    0.47
   4   0   7    0.05    0.21
   3   0   8    5.10    0.44
  -3   0  -8    5.85    0.72
   2   0   9   -0.06    0.20
  -2   0  -9    0.46    0.45
  -1   0 -10    2.73    0.61
   1   0  10    2.35    0.29
   0   0  11   -0.07    0.20
   0   0 -11    0.43    0.54
  -1   0  12    4.27    0.41
   1   0 -12    5.39    1.00
  -2   0  13   -0.37    0.21
   2   0 -13    0.87    0.68
 -12   1   1    9.37    0.82
  12   1  -1    8.61    0.75
 -12  -1   1    8.99    0.74
  12  -1  -1    9.63    0.74
  11   1   0    7.26    0.68
 -11   1   0    6.02    0.70
 -11  -1   0    5.75    0.59
  11  -1   0    6.99    0.68
 -10   1  -1   12.83    0.73
  10   1   1   13.76    0.74
  10  -1   1   14.01    0.74
 -10  -1  -1   12.83    0.60
  -9   1  -2   22.22    0.81
   9   1   2   21.83    0.86
  -9  -1  -2   21.31    0.58
   9  -1   2   22.26    0.88
  -8   1  -3    3.14    0.40
   8   1   3    4.31    0.50
   8  -1   3    3.92    0.51
   7   1   4   16.05    0.69
   7  -1   4   15.93    0.72
   6   1   5    6.73    0.50
   6  -1   5    6.55    0.51
   5   1   6    8.04    0.52
   5  -1   6    8.51    0.53
  -4   1  -7    7.00    0.62
   4   1   7    6.06    0.46
   4  -1   7    6.26    0.51
   3   1   8   10.16    0.51
  -3   1  -8   10.70    0.78
   3  -1   8   10.81    0.58
  -2   1  -9   13.63    0.90
   2   1   9   13.01    0.54
   2  -1   9   12.75    0.61
   1   1  10   15.06    0.56
  -1   1 -10   14.35    1.02
  -1  -1 -10   14.98    1.07
   1  -1  10   14.39    0.64
   0   1  11    1.65    0.23
   0   1 -11    2.46    0.66
   0  -1  11    1.52    0.29
   0  -1 -11    2.15    0.66
  -1   1  12    3.55    0.34
   1   1 -12    5.49    1.00
  -1  -1  12    3.08    0.46
   1  -1 -12    4.49    0.84
  -2   1  13    5.02    0.36
   2   1 -13    7.18    1.11
   2  -1 -13    6.64    1.14
  -2  -1  13    4.35    0.49
  12   2  -1    0.67    0.37
 -12   2   1   -0.34    0.38
  12   2  -1   -0.11    0.37
 -12  -2   1   -0.52    0.27
  11   2   0   10.57    0.74
 -11   2   0    9.24    0.81
 -11  -2   0    9.64    0.58
  11  -2   0   11.03    0.72
 -10   2  -1    0.50    0.33
  10   2   1    0.85    0.36
  10  -2   1    0.96    0.35
   9   2   2   12.87    0.74
  -9   2  -2   12.46    0.73
   9  -2   2   13.60    0.73
   8   2   3   11.18    0.65
  -8   2  -3   10.29    0.61
   8  -2   3   10.73    0.66
   7   2   4    4.07    0.48
  -7   2  -4    3.34    0.38
   7  -2   4    4.00    0.52
   6   2   5   17.55    0.72
   6  -2   5   18.22    0.78
   6  -2   5   17.52    0.76
   5   2   6    0.46    0.24
   5  -2   6    0.42    0.29
   4   2   7   18.09    0.68
   4  -2   7   17.93    0.76
   3   2   8    2.56    0.38
   3  -2   8    2.11    0.35
  -2   2  -9   13.94    0.94
   2   2   9   13.02    0.54
   2  -2   9   12.03    0.66
  -1   2 -10   14.11    1.04
   1   2  10   13.37    0.53
   1  -2  10   13.76    0.70
   0   2  11   16.68    0.56
   0   2 -11   16.56    1.15
   0  -2  11   16.25    0.76
  -1   2  12    4.03    0.31
   1   2 -12    5.76    1.01
  -1  -2  12    3.25    0.40
 -11   3   0    3.03    0.48
  11   3   0    4.93    0.70
  11  -3   0    5.10    0.61
 -11  -3   0    3.29    0.36
  10   3   1   14.79    0.83
 -10   3  -1   13.75    0.91
  10   3   1   14.61    0.81
  10  -3   1   15.07    0.80
  -9   3  -2    0.25    0.34
   9   3   2    0.26    0.34
   9  -3   2    0.47    0.32
   8   3   3    0.55    0.33
  -8   3  -3    0.28    0.31
   8  -3   3    0.37    0.31
   7   3   4   10.44    0.65
  -7   3  -4   10.08    0.60
   7  -3   4   10.97    0.69
  -6   3  -5    2.39    0.35
   6   3   5    2.68    0.36
   6  -3   5    3.72    0.57
   6  -3   5    3.44    0.54
   5   3   6    4.10    0.48
   5  -3   6    4.00    0.55
   5  -3   6    4.05    0.54
   4   3   7    6.81    0.50
   4  -3   7    7.08    0.63
   3   3   8    3.90    0.42
   3  -3   8    4.35    0.54
  -2   3  -9   28.33    1.24
   2   3   9   27.70    0.84
   2  -3   9   29.21    1.02
   1   3  10    1.19    0.23
   1  -3  10    0.99    0.35
   0   3  11    0.36    0.18
   0  -3  11    0.05    0.34
  10   4   1    3.21    0.48
 -10   4  -1    2.10    0.46
  10  -4   1    2.84    0.50
   9   4   2    3.42    0.47
  -9   4  -2    2.49    0.44
   9  -4   2    4.26    0.63
   8   4   3    1.95    0.41
  -8   4  -3    0.95    0.36
   8  -4   3    1.48    0.37
   7   4   4    5.56    0.62
   7   4   4    6.14    0.64
  -7   4  -4    5.96    0.64
   7  -4   4    5.82    0.62
  -6   4  -5    4.95    0.53
   6   4   5    5.75    0.59
   6   4   5    5.46    0.58
   6  -4   5    5.52    0.63
   6  -4   5    6.04    0.66
   5   4   6    0.76    0.30
   5  -4   6    0.78    0.36
   5  -4   6    0.68    0.30
   4   4   7    2.07    0.33
   4  -4   7    1.60    0.39
   4  -4   7    1.81    0.34
   3   4   8    0.22    0.25
   3  -4   8    0.36    0.35
  -2   4  -9    3.36    0.96
   2  -4   9    0.72    0.38
  -1   4 -10   18.68    1.16
   1   4  10   15.41    0.63
   1  -4  10   16.88    0.89
  -6   5  -5    6.90    0.67
   6   5   5    8.84    0.72
   6  -5   5    9.35    0.76
   5   5   6    2.17    0.40
   5  -5   6    1.65    0.35
   5  -5   6    2.16    0.46
   4   5   7   16.79    0.81
   4  -5   7   16.83    0.91
   4  -5   7   16.06    0.93
 -12   0   0   -0.20    0.30
  12   0   0    0.19    0.36
  11   0   1   -0.11    0.35
 -11   0  -1   -0.43    0.27
  10   0   2   13.46    0.76
 -10   0  -2   12.65    0.55
   9   0   3   -0.03    0.32
   8   0   4   17.69    0.79
   7   0   5    0.04    0.27
   6   0   6   15.39    0.72
   5   0   7    0.10    0.25
   4   0   8   41.48    1.18
   3   0   9   -0.09    0.23
  -2   0 -10    1.78    0.58
   2   0  10    1.24    0.27
  -1   0 -11    0.77    0.59
   1   0  11    0.09    0.23
   0   0  12   67.18    1.63
   0   0 -12   63.77    2.24
 -12   1   0    0.93    0.36
  12   1   0    1.71    0.43
  12  -1   0    1.66    0.42
 -12  -1   0    0.94    0.29
  11   1   1    2.80    0.45
 -11   1  -1    2.40    0.36
 -11  -1  -1    2.09    0.26
  11  -1   1    3.32    0.46
 -10   1  -2   -0.18    0.25
  10   1   2   -0.03    0.34
  10  -1   2    0.38    0.34
   9   1   3    6.26    0.60
  -9   1  -3    4.86    0.41
   9  -1   3    6.01    0.60
   8   1   4   19.91    0.84
   8  -1   4   19.32    0.85
   7   1   5    4.73    0.51
   7  -1   5    4.85    0.54
   6   1   6   18.71    0.76
   6  -1   6   18.35    0.80
   5   1   7    1.33    0.29
   5  -1   7    1.05    0.30
   4   1   8   12.11    0.60
   4  -1   8   12.71    0.67
   3   1   9    8.66    0.52
  -3   1  -9    9.28    0.82
   3  -1   9    8.40    0.58
   2   1  10   25.24    0.82
  -2   1 -10   25.66    1.28
   2  -1  10   25.18    0.89
   1   1  11   23.96    0.78
  -1   1 -11   23.58    1.34
   1  -1  11   23.25    0.86
   0   1  12    9.16    0.50
   0   1 -12   12.51    1.20
   0  -1  12    9.67    0.61
  11   2   1   13.04    0.84
 -11   2  -1   12.47    0.81
  11  -2   1   12.75    0.81
 -10   2  -2    4.96    0.63
  10   2   2    4.74    0.66
  10  -2   2    5.30    0.63
   9   2   3   35.61    1.20
  -9   2  -3   36.28    1.05
   9  -2   3   36.75    1.22
   8   2   4    1.10    0.35
  -8   2  -4    0.31    0.17
   8  -2   4    0.58    0.32
   7   2   5    5.23    0.56
   7  -2   5    5.64    0.59
   6   2   6    5.49    0.54
   6  -2   6    5.20    0.59
   5   2   7    2.50    0.34
   5  -2   7    2.47    0.39
   4   2   8    7.87    0.53
   4  -2   8    8.24    0.64
  -3   2  -9   15.37    1.21
   3   2   9   13.91    0.62
   3  -2   9   13.29    0.74
   2   2  10   13.82    0.61
  -2   2 -10   15.36    1.04
   2  -2  10   12.95    0.73
  -1   2 -11   37.62    1.61
   1   2  11   36.65    1.01
   1  -2  11   36.23    1.18
   0   2  12    1.58    0.24
   0  -2  12    1.45    0.36
  10   3   2    4.71    0.66
  10   3   2    4.67    0.66
  10  -3   2    4.80    0.67
  -9   3  -3    5.63    0.63
   9   3   3    6.45    0.69
   9  -3   3    6.96    0.66
  -8   3  -4    1.48    0.28
   8   3   4    1.99    0.40
   8  -3   4    2.33    0.42
   7   3   5    6.81    0.62
   7  -3   5    6.61    0.63
   6   3   6    1.30    0.33
   6  -3   6    1.01    0.37
   6  -3   6    1.97    0.34
   5   3   7   11.86    0.66
   5  -3   7   12.33    0.75
   4   3   8    7.35    0.55
   4  -3   8    7.47    0.66
   3   3   9    4.85    0.47
   3  -3   9    4.13    0.64
   2   3  10   24.27    0.81
  -2   3 -10   26.34    1.55
   2  -3  10   24.79    1.02
   1   3  11    8.41    0.48
   1  -3  11    8.60    0.72
  -8   4  -4    6.25    0.65
   8   4   4   10.29    0.78
   8   4   4    8.28    0.74
   8  -4   4    8.94    0.75
  -7   4  -5   14.82    0.68
   7   4   5   18.70    0.88
   7   4   5   19.84    0.90
   7  -4   5   19.44    0.92
   6   4   6    9.87    0.70
   6  -4   6   11.69    0.80
   6  -4   6   12.54    0.82
   5   4   7   -0.29    0.29
   5  -4   7   -0.02    0.37
   5  -4   7    0.33    0.29
   4   4   8    9.08    0.62
   4  -4   8    9.22    0.75
  11   0   2   16.17    0.90
  10   0   3    0.30    0.35
   9   0   4   54.70    1.57
   8   0   5    0.01    0.31
   7   0   6   21.71    0.90
   6   0   7    0.06    0.29
   5   0   8    0.96    0.32
   4   0   9    0.16    0.27
   3   0  10    1.55    0.32
   2   0  11    0.10    0.27
  -2   0 -11    0.32    0.58
  11   1   2    2.50    0.47
 -11   1  -2    1.17    0.29
  11  -1   2    2.03    0.43
  10   1   3    2.54    0.44
  10  -1   3    2.73    0.44
   9   1   4   14.14    0.81
   9  -1   4   14.40    0.80
   8   1   5   40.16    1.26
   8  -1   5   39.78    1.28
   7   1   6    0.22    0.31
   7  -1   6    0.31    0.33
   6   1   7    5.46    0.56
   6  -1   7    5.27    0.58
   5   1   8   12.98    0.68
   5  -1   8   12.84    0.72
   4   1   9    6.14    0.55
   4  -1   9    6.24    0.60
  -3   1 -10   18.70    1.45
   3   1  10   17.14    0.73
   3  -1  10   16.24    0.78
   2   1  11    9.84    0.59
  -2   1 -11   11.63    1.07
   2  -1  11    9.86    0.66
  10   2   3    2.71    0.45
  10  -2   3    3.03    0.47
   9   2   4   11.53    0.78
   9  -2   4   11.30    0.79
   8   2   5    8.09    0.67
   8  -2   5    7.12    0.70
   7   2   6    0.56    0.32
   7  -2   6    0.56    0.36
   6   2   7    1.60    0.34
   6  -2   7    1.41    0.37
   5   2   8   17.98    0.78
   5  -2   8   18.82    0.89
   4   2   9    5.99    0.54
   4  -2   9    6.29    0.66
   3   2  10   12.90    0.65
   3  -2  10   12.50    0.77
   8   3   5    0.94    0.38
   8  -3   5    0.95    0.38
   7   3   6   13.52    0.78
   7  -3   6   13.87    0.82
   6   3   7   26.12    0.99
   6  -3   7   26.33    1.09
   5   3   8    5.91    0.59
   5  -3   8    5.41    0.72
   9   0   5    0.21    0.36
   8   0   6   60.63    1.72
   7   0   7    0.01    0.33
   6   0   8    7.44    0.65
   5   0   9    0.08    0.31
   8   1   6    6.72    0.66
   8  -1   6    5.83    0.71
   7   1   7   17.71    0.85
   7  -1   7   18.03    0.88
   6   1   8    1.73    0.37
   6  -1   8    2.06    0.41
   5   1   9    1.87    0.37
   5  -1   9    2.24    0.40
   0   0   0    0.00    0.00
;
_shelx_hkl_checksum              3312
loop_
_space_group_symop_operation_xyz
'x, y, z'
'x, -y, z+1/2'
loop_
_atom_site_label
_atom_site_type_symbol
_atom_site_fract_x
_atom_site_fract_y
_atom_site_fract_z
_atom_site_U_iso_or_equiv
_atom_site_adp_type
_atom_site_occupancy
_atom_site_site_symmetry_order
_atom_site_calc_flag
_atom_site_refinement_flags_posn
_atom_site_refinement_flags_adp
C1 C 0.71371(17) 0.3810(3) 0.68538(18) 0.0209(3) Uani 1 1 d . .
H1 H 0.6977 0.5349 0.6314 0.025 Uiso 1 1 calc R U
C2 C 0.85404(18) 0.3945(3) 0.84325(19) 0.0254(3) Uani 1 1 d . .
H2A H 0.8219 0.4158 0.9204 0.030 Uiso 1 1 calc R U
H2B H 0.9220 0.5275 0.8506 0.030 Uiso 1 1 calc R U
C3 C 0.93668(19) 0.1580(3) 0.86451(19) 0.0258(3) Uani 1 1 d . .
H3A H 1.0491 0.1821 0.9080 0.031 Uiso 1 1 calc R U
H3B H 0.9188 0.0534 0.9324 0.031 Uiso 1 1 calc R U
C4 C 0.86769(18) 0.0524(3) 0.70805(18) 0.0236(3) Uani 1 1 d . .
C5 C 0.6313(2) 0.1261(4) 0.46017(18) 0.0288(4) Uani 1 1 d . .
H5A H 0.6626 -0.0197 0.4285 0.035 Uiso 1 1 calc R U
H5B H 0.6148 0.2521 0.3862 0.035 Uiso 1 1 calc R U
C6 C 0.48235(19) 0.0823(3) 0.46558(19) 0.0256(3) Uani 1 1 d . .
H6A H 0.3950 0.0653 0.3616 0.031 Uiso 1 1 calc R U
H6B H 0.4917 -0.0665 0.5205 0.031 Uiso 1 1 calc R U
C7 C 0.45034(16) 0.2858(3) 0.54398(16) 0.0204(3) Uani 1 1 d . .
H7 H 0.4348 0.4338 0.4845 0.024 Uiso 1 1 calc R U
C8 C 0.30886(17) 0.2419(3) 0.56027(18) 0.0223(3) Uani 1 1 d . .
H8A H 0.2214 0.2001 0.4601 0.027 Uiso 1 1 calc R U
H8B H 0.3291 0.1047 0.6278 0.027 Uiso 1 1 calc R U
C9 C 0.26214(17) 0.4501(3) 0.62244(18) 0.0235(3) Uani 1 1 d . .
C10 C 0.1602(2) 0.3955(4) 0.6889(2) 0.0309(4) Uani 1 1 d . .
H10A H 0.2228 0.3306 0.7906 0.046 Uiso 1 1 calc R U
H10B H 0.0819 0.2797 0.6252 0.046 Uiso 1 1 calc R U
H10C H 0.1094 0.5407 0.6943 0.046 Uiso 1 1 calc R U
N1 N 0.75197(16) 0.1971(3) 0.61077(16) 0.0232(3) Uani 1 1 d . .
O1 O 0.90782(16) -0.1307(2) 0.67354(16) 0.0352(3) Uani 1 1 d . .
O2 O 0.57944(12) 0.3179(2) 0.69406(12) 0.0205(2) Uani 1 1 d . .
O3 O 0.30342(15) 0.6494(2) 0.61697(18) 0.0363(3) Uani 1 1 d . .
loop_
_atom_site_aniso_label
_atom_site_aniso_U_11
_atom_site_aniso_U_22
_atom_site_aniso_U_33
_atom_site_aniso_U_23
_atom_site_aniso_U_13
_atom_site_aniso_U_12
C1 0.0204(6) 0.0190(7) 0.0215(7) 0.0000(5) 0.0088(6) -0.0006(5)
C2 0.0218(7) 0.0258(7) 0.0227(7) -0.0043(6) 0.0065(6) -0.0017(6)
C3 0.0221(7) 0.0313(8) 0.0235(7) 0.0036(6) 0.0109(6) 0.0040(6)
C4 0.0240(7) 0.0251(8) 0.0275(8) 0.0020(6) 0.0171(6) -0.0007(6)
C5 0.0293(8) 0.0369(9) 0.0215(8) -0.0065(7) 0.0136(7) -0.0025(7)
C6 0.0263(7) 0.0269(8) 0.0216(7) -0.0066(6) 0.0103(6) -0.0046(6)
C7 0.0198(7) 0.0199(6) 0.0186(7) 0.0013(5) 0.0071(6) -0.0006(5)
C8 0.0226(7) 0.0187(7) 0.0243(7) 0.0002(5) 0.0104(6) -0.0026(5)
C9 0.0175(6) 0.0245(7) 0.0231(7) -0.0001(6) 0.0060(6) 0.0008(6)
C10 0.0270(8) 0.0388(10) 0.0290(8) -0.0008(7) 0.0152(7) 0.0005(7)
N1 0.0224(6) 0.0262(7) 0.0208(6) -0.0027(5) 0.0106(5) -0.0005(5)
O1 0.0418(7) 0.0303(7) 0.0429(8) 0.0006(6) 0.0281(7) 0.0076(5)
O2 0.0194(5) 0.0229(5) 0.0172(5) -0.0019(4) 0.0075(4) -0.0004(4)
O3 0.0353(7) 0.0213(6) 0.0539(9) -0.0005(6) 0.0231(7) 0.0001(5)
loop_
_atom_type_symbol
_atom_type_description
_atom_type_scat_dispersion_real
_atom_type_scat_dispersion_imag
_atom_type_scat_source
C C 0.0033 0.0016 'International Tables Vol C Tables 4.2.6.8 and 6.1.1.4'
H H 0.0000 0.0000 'International Tables Vol C Tables 4.2.6.8 and 6.1.1.4'
N N 0.0061 0.0033 'International Tables Vol C Tables 4.2.6.8 and 6.1.1.4'
O O 0.0106 0.0060 'International Tables Vol C Tables 4.2.6.8 and 6.1.1.4'
loop_
_geom_angle_atom_site_label_1
_geom_angle_atom_site_label_2
_geom_angle_atom_site_label_3
_geom_angle
O2 C1 N1 110.39(12)
O2 C1 C2 110.35(13)
N1 C1 C2 104.33(13)
O2 C1 H1 110.5
N1 C1 H1 110.5
C2 C1 H1 110.5
C1 C2 C3 104.78(13)
C1 C2 H2A 110.8
C3 C2 H2A 110.8
C1 C2 H2B 110.8
C3 C2 H2B 110.8
H2A C2 H2B 108.9
C4 C3 C2 105.23(13)
C4 C3 H3A 110.7
C2 C3 H3A 110.7
C4 C3 H3B 110.7
C2 C3 H3B 110.7
H3A C3 H3B 108.8
O1 C4 N1 125.44(16)
O1 C4 C3 126.42(15)
N1 C4 C3 108.14(14)
N1 C5 C6 108.52(13)
N1 C5 H5A 110.0
C6 C5 H5A 110.0
N1 C5 H5B 110.0
C6 C5 H5B 110.0
H5A C5 H5B 108.4
C7 C6 C5 110.64(13)
C7 C6 H6A 109.5
C5 C6 H6A 109.5
C7 C6 H6B 109.5
C5 C6 H6B 109.5
H6A C6 H6B 108.1
O2 C7 C8 107.24(12)
O2 C7 C6 110.04(12)
C8 C7 C6 112.23(13)
O2 C7 H7 109.1
C8 C7 H7 109.1
C6 C7 H7 109.1
C9 C8 C7 114.22(13)
C9 C8 H8A 108.7
C7 C8 H8A 108.7
C9 C8 H8B 108.7
C7 C8 H8B 108.7
H8A C8 H8B 107.6
O3 C9 C10 122.12(16)
O3 C9 C8 121.66(16)
C10 C9 C8 116.21(14)
C9 C10 H10A 109.5
C9 C10 H10B 109.5
H10A C10 H10B 109.5
C9 C10 H10C 109.5
H10A C10 H10C 109.5
H10B C10 H10C 109.5
C4 N1 C1 113.48(14)
C4 N1 C5 124.13(15)
C1 N1 C5 117.07(14)
C1 O2 C7 109.85(11)
loop_
_geom_bond_atom_site_label_1
_geom_bond_atom_site_label_2
_geom_bond_distance
C1 O2 1.4273(18)
C1 N1 1.446(2)
C1 C2 1.527(2)
C1 H1 1.0000
C2 C3 1.530(2)
C2 H2A 0.9900
C2 H2B 0.9900
C3 C4 1.513(2)
C3 H3A 0.9900
C3 H3B 0.9900
C4 O1 1.223(2)
C4 N1 1.362(2)
C5 N1 1.464(2)
C5 C6 1.531(2)
C5 H5A 0.9900
C5 H5B 0.9900
C6 C7 1.521(2)
C6 H6A 0.9900
C6 H6B 0.9900
C7 O2 1.4445(17)
C7 C8 1.517(2)
C7 H7 1.0000
C8 C9 1.515(2)
C8 H8A 0.9900
C8 H8B 0.9900
C9 O3 1.211(2)
C9 C10 1.502(2)
C10 H10A 0.9800
C10 H10B 0.9800
C10 H10C 0.9800
loop_
_geom_torsion_atom_site_label_1
_geom_torsion_atom_site_label_2
_geom_torsion_atom_site_label_3
_geom_torsion_atom_site_label_4
_geom_torsion
O2 C1 C2 C3 98.75(15)
N1 C1 C2 C3 -19.82(16)
C1 C2 C3 C4 15.00(17)
C2 C3 C4 O1 175.57(16)
C2 C3 C4 N1 -4.43(17)
N1 C5 C6 C7 48.05(19)
C5 C6 C7 O2 -57.12(17)
C5 C6 C7 C8 -176.45(13)
O2 C7 C8 C9 65.25(16)
C6 C7 C8 C9 -173.79(13)
C7 C8 C9 O3 20.6(2)
C7 C8 C9 C10 -160.28(13)
O1 C4 N1 C1 170.94(16)
C3 C4 N1 C1 -9.07(18)
O1 C4 N1 C5 17.6(3)
C3 C4 N1 C5 -162.41(15)
O2 C1 N1 C4 -99.95(15)
C2 C1 N1 C4 18.59(17)
O2 C1 N1 C5 55.40(19)
C2 C1 N1 C5 173.94(14)
C6 C5 N1 C4 103.73(18)
C6 C5 N1 C1 -48.8(2)
N1 C1 O2 C7 -60.30(15)
C2 C1 O2 C7 -175.10(12)
C8 C7 O2 C1 -174.80(12)
C6 C7 O2 C1 62.87(15)
