#------------------------------------------------------------------------------
#$Date: 2019-11-23 16:52:51 +0200 (Sat, 23 Nov 2019) $
#$Revision: 234071 $
#$URL: file:///home/coder/svn-repositories/cod/cif/1/55/32/1553299.cif $
#------------------------------------------------------------------------------
#
# This file is available in the Crystallography Open Database (COD),
# http://www.crystallography.net/
#
# All data on this site have been placed in the public domain by the
# contributors.
#
data_1553299
loop_
_publ_author_name
'Liu, Shuai'
'Dai, Haofu'
'Makhloufi, Gamall'
'Heering, Christian'
'Janiak, Christoph'
'Hartmann, Rudolf'
'M\'andi, Attila'
'Kurt\'an, Tibor'
'M\"uller, Werner E G'
'Kassack, Matthias U.'
'Lin, Wenhan'
'Liu, Zhen'
'Proksch, Peter'
_publ_section_title
;
 Cytotoxic 14-Membered Macrolides from a Mangrove-Derived Endophytic
 Fungus, Pestalotiopsis microspora.
;
_journal_issue                   9
_journal_name_full               'Journal of natural products'
_journal_page_first              2332
_journal_page_last               2340
_journal_paper_doi               10.1021/acs.jnatprod.6b00473
_journal_volume                  79
_journal_year                    2016
_chemical_absolute_configuration rmad
_chemical_formula_moiety         'C14 H20 O5, H2 O'
_chemical_formula_sum            'C14 H22 O6'
_chemical_formula_weight         286.31
_chemical_name_common            'Pestalotioprolide B hydrate'
_space_group_crystal_system      triclinic
_space_group_IT_number           1
_space_group_name_Hall           'P 1'
_space_group_name_H-M_alt        'P 1'
_atom_sites_solution_hydrogens   mixed
_atom_sites_solution_primary     direct
_atom_sites_solution_secondary   difmap
_audit_creation_method           SHELXL-2013
_cell_angle_alpha                88.911(4)
_cell_angle_beta                 85.044(4)
_cell_angle_gamma                77.888(5)
_cell_formula_units_Z            1
_cell_length_a                   6.3082(4)
_cell_length_b                   7.5108(5)
_cell_length_c                   8.1100(5)
_cell_measurement_reflns_used    2459
_cell_measurement_temperature    120(2)
_cell_measurement_theta_max      64.551
_cell_measurement_theta_min      5.475
_cell_volume                     374.29(4)
_computing_cell_refinement       'SAINT (Bruker, 2014)'
_computing_data_collection       'APEX2 (Bruker, 2014)'
_computing_data_reduction        'SAINT (Bruker, 2014)'
_computing_molecular_graphics    'DIAMOND 3.2 (Crystal Impact, 2009)'
_computing_publication_material  'SHELXL-97 (Sheldrick, 2008)'
_computing_structure_refinement  'SHELXL-2013 (Sheldrick, 2013)'
_computing_structure_solution    'SHELXL2014 (Sheldrick, 2008)'
_diffrn_ambient_temperature      120(2)
_diffrn_measured_fraction_theta_full 0.829
_diffrn_measured_fraction_theta_max 0.868
_diffrn_measurement_device_type  'Bruker Kappa APEX-II CCD area detector'
_diffrn_measurement_method       '\w scans'
_diffrn_radiation_monochromator  'multilayer mirror'
_diffrn_radiation_source         'microfocus sealed tube'
_diffrn_radiation_type           CuK\a
_diffrn_radiation_wavelength     1.54178
_diffrn_reflns_av_R_equivalents  0.0449
_diffrn_reflns_av_unetI/netI     0.0521
_diffrn_reflns_Laue_measured_fraction_full 0.829
_diffrn_reflns_Laue_measured_fraction_max 0.868
_diffrn_reflns_limit_h_max       6
_diffrn_reflns_limit_h_min       -7
_diffrn_reflns_limit_k_max       8
_diffrn_reflns_limit_k_min       -8
_diffrn_reflns_limit_l_max       9
_diffrn_reflns_limit_l_min       -6
_diffrn_reflns_number            3068
_diffrn_reflns_point_group_measured_fraction_full 0.603
_diffrn_reflns_point_group_measured_fraction_max 0.632
_diffrn_reflns_theta_full        67.679
_diffrn_reflns_theta_max         65.332
_diffrn_reflns_theta_min         5.475
_exptl_absorpt_coefficient_mu    0.827
_exptl_absorpt_correction_T_max  0.7526
_exptl_absorpt_correction_T_min  0.6664
_exptl_absorpt_correction_type   multi-scan
_exptl_absorpt_process_details   '(<i>SADABS</i>; Sheldrick, 2012)'
_exptl_crystal_colour            colorless
_exptl_crystal_density_diffrn    1.270
_exptl_crystal_density_method    'not measured'
_exptl_crystal_description       block
_exptl_crystal_F_000             154
_exptl_crystal_size_max          0.110
_exptl_crystal_size_mid          0.090
_exptl_crystal_size_min          0.050
_refine_diff_density_max         0.167
_refine_diff_density_min         -0.173
_refine_diff_density_rms         0.045
_refine_ls_abs_structure_details
;
 Flack x determined using 492 quotients [(I+)-(I-)]/[(I+)+(I-)]
 (Parsons and Flack (2004), Acta Cryst. A60, s61).
;
_refine_ls_abs_structure_Flack   -0.03(19)
_refine_ls_extinction_coef       0.017(3)
_refine_ls_extinction_expression Fc^*^=kFc[1+0.001xFc^2^\l^3^/sin(2\q)]^-1/4^
_refine_ls_extinction_method     SHELXL
_refine_ls_goodness_of_fit_ref   1.026
_refine_ls_hydrogen_treatment    mixed
_refine_ls_matrix_type           full
_refine_ls_number_parameters     195
_refine_ls_number_reflns         1630
_refine_ls_number_restraints     3
_refine_ls_restrained_S_all      1.025
_refine_ls_R_factor_all          0.0349
_refine_ls_R_factor_gt           0.0342
_refine_ls_shift/su_max          0.002
_refine_ls_shift/su_mean         0.000
_refine_ls_structure_factor_coef Fsqd
_refine_ls_weighting_details
;
 w=1/[\s^2^(Fo^2^)+(0.0537P)^2^+0.0464P]
 where P=(Fo^2^+2Fc^2^)/3
;
_refine_ls_weighting_scheme      calc
_refine_ls_wR_factor_gt          0.0869
_refine_ls_wR_factor_ref         0.0878
_reflns_Friedel_coverage         0.455
_reflns_Friedel_fraction_full    0.378
_reflns_Friedel_fraction_max     0.395
_reflns_number_gt                1594
_reflns_number_total             1630
_reflns_threshold_expression     'I > 2\s(I)'
_cod_data_source_file            np6b00473_si_002.cif
_cod_data_source_block           Co45232
_cod_database_code               1553299
_shelx_space_group_comment
;
The symmetry employed for this shelxl refinement is uniquely defined
by the following loop, which should always be used as a source of
symmetry information in preference to the above space-group names.
They are only intended as comments.
;
_shelx_estimated_absorpt_t_min   0.914
_shelx_estimated_absorpt_t_max   0.960
_shelxl_version_number           2013-2
_shelx_res_file
;

TITL cu_GM_Liu_Co45232_1Mess_0m in P1
CELL 1.54178 6.3082 7.5108 8.1100 88.911 85.044 77.888
ZERR 1.00 0.0004 0.0005 0.0005 0.004 0.004 0.005
LATT -1
SFAC C H O
UNIT 14 22 6
LIST 4 ! automatically inserted. Change 6 to 4 for CHECKCIF!!
TEMP -153.150
SIZE 0.050 0.090 0.110
ACTA
OMIT 0 0 4
L.S. 8
FMAP 2
PLAN -3 0 0.00
HTAB
HTAB O1 O6
EQIV $1 x+1, y-1, z
HTAB O6 O3_$1
EQIV $2 x, y, z-1
HTAB O6 O5_$2
EQIV $3 x, y+1, z
HTAB O3 O1_$3
EQIV $4 x-1, y+1, z
HTAB C8 O5_$4
EQIV $5 x+1, y, z+1
HTAB C12 O2_$5
BOND $H
CONF
WGHT    0.053700    0.046400
EXTI    0.017292
FVAR       0.52195
O1    3    0.578522    0.555099    0.399680    11.00000    0.02466    0.02120 =
         0.02164   -0.00449   -0.00413   -0.00354
AFIX 148
H1    2    0.708457    0.501004    0.366306    11.00000   -1.50000
AFIX   0
C1    1    0.928410    0.601649    0.831011    11.00000    0.01624    0.01765 =
         0.01799   -0.00091    0.00204   -0.00034
H1S   2    1.072072    0.382682    0.316866    11.00000    0.06110
O2    3    0.244344    0.945704    0.374335    11.00000    0.02879    0.02561 =
         0.02002    0.00139   -0.01001   -0.00358
C2    1    0.814622    0.586501    0.681530    11.00000    0.01859    0.01599 =
         0.02023   -0.00152   -0.00278   -0.00350
AFIX  43
H2    2    0.816895    0.468856    0.639489    11.00000   -1.20000
AFIX   0
H2S   2    1.003132    0.402324    0.150350    11.00000    0.06973
O3    3    0.309664    1.314599    0.453206    11.00000    0.02756    0.02345 =
         0.02928    0.00972   -0.01199   -0.00610
AFIX 148
H3A   2    0.400333    1.393594    0.441846    11.00000   -1.50000
AFIX   0
C3    1    0.710184    0.730295    0.604534    11.00000    0.02298    0.01940 =
         0.01442   -0.00349    0.00080   -0.00347
AFIX  43
H3    2    0.718037    0.845695    0.646638    11.00000   -1.20000
AFIX   0
O4    3    0.955071    0.770694    0.854948    11.00000    0.02597    0.01628 =
         0.01794    0.00013   -0.00626   -0.00531
C4    1    0.580727    0.732039    0.458313    11.00000    0.02286    0.01577 =
         0.01678   -0.00037   -0.00382   -0.00412
AFIX  13
H4    2    0.644162    0.800698    0.366589    11.00000   -1.20000
AFIX   0
O5    3    0.990186    0.474397    0.921443    11.00000    0.02596    0.01960 =
         0.02011    0.00211   -0.00326   -0.00144
C5    1    0.345736    0.825089    0.498949    11.00000    0.02178    0.02335 =
         0.01652    0.00062   -0.00390   -0.00592
AFIX  13
H51   2    0.252225    0.745076    0.553755    11.00000   -1.20000
AFIX   0
O6    3    0.963170    0.400456    0.264183    11.00000    0.02613    0.04329 =
         0.02029   -0.00183   -0.00642    0.00294
C6    1    0.267414    1.020433    0.532496    11.00000    0.01942    0.02346 =
         0.01834    0.00104   -0.00416   -0.00144
AFIX  13
H6    2    0.128806    1.049610    0.605718    11.00000   -1.20000
AFIX   0
C7    1    0.409617    1.156702    0.542029    11.00000    0.01798    0.01742 =
         0.02229    0.00430   -0.00694    0.00149
AFIX  13
H7    2    0.559238    1.106090    0.490019    11.00000   -1.20000
AFIX   0
C8    1    0.418530    1.201283    0.720604    11.00000    0.01988    0.01434 =
         0.02380    0.00186    0.00004   -0.00060
AFIX  43
H8    2    0.283414    1.245382    0.782557    11.00000   -1.20000
AFIX   0
C9    1    0.596336    1.185183    0.800357    11.00000    0.02084    0.01524 =
         0.02206    0.00129   -0.00093   -0.00150
AFIX  43
H9    2    0.732860    1.145361    0.738969    11.00000   -1.20000
AFIX   0
C10   1    0.597179    1.225475    0.980996    11.00000    0.02216    0.01921 =
         0.02176   -0.00198   -0.00173   -0.00169
AFIX  23
H10A  2    0.445011    1.261519    1.029674    11.00000   -1.20000
H10B  2    0.668035    1.329875    0.992369    11.00000   -1.20000
AFIX   0
C11   1    0.715726    1.063321    1.078425    11.00000    0.02720    0.02459 =
         0.01720    0.00101   -0.00075   -0.00497
AFIX  23
H11A  2    0.652923    0.956241    1.058356    11.00000   -1.20000
H11B  2    0.687974    1.091906    1.198008    11.00000   -1.20000
AFIX   0
C12   1    0.963567    1.011880    1.034940    11.00000    0.02400    0.01852 =
         0.01818    0.00065   -0.00731   -0.00547
AFIX  23
H12A  2    1.000808    1.079123    0.934090    11.00000   -1.20000
H12B  2    1.037598    1.051294    1.126242    11.00000   -1.20000
AFIX   0
C13   1    1.049231    0.810397    1.005786    11.00000    0.02733    0.02154 =
         0.01441    0.00119   -0.00678   -0.00660
AFIX  13
H13   2    0.995341    0.740106    1.100577    11.00000   -1.20000
AFIX   0
C14   1    1.293635    0.755703    0.980326    11.00000    0.02510    0.02532 =
         0.02890    0.00076   -0.00678   -0.00308
AFIX 137
H14A  2    1.335706    0.628267    0.944768    11.00000   -1.50000
H14B  2    1.356531    0.769857    1.084422    11.00000   -1.50000
H14C  2    1.347613    0.833418    0.895231    11.00000   -1.50000
AFIX   0
HKLF 4 1 1 0 0 0 1 0 0 0 1

REM  cu_GM_Liu_Co45232_1Mess_0m in P1
REM R1 =  0.0342 for    1594 Fo > 4sig(Fo)  and  0.0349 for all    1630 data
REM    195 parameters refined using      3 restraints

END

WGHT      0.0532      0.0418

REM Instructions for potential hydrogen bonds
HTAB O1 O6
HTAB O6 O3_$1
HTAB O6 O5_$2
HTAB O3 O1_$3
HTAB C8 O5_$4
HTAB C12 O2_$5

REM Highest difference peak  0.167,  deepest hole -0.173,  1-sigma level  0.045
Q1    1   0.3473  1.0839  0.5264  11.00000  0.05    0.17
Q2    1   0.9164  0.3539  0.8880  11.00000  0.05    0.16
Q3    1   0.6251  0.3915  0.6223  11.00000  0.05    0.16
;
_shelx_res_checksum              5259
_shelx_hkl_file
;
  -1   0   0    0.35    0.07
  -1   0   0    0.45    0.06
  -1   0   0    0.51    0.05
  -1   0   0    0.47    0.07
   1   0   0    0.34    0.07
   1   0   0    0.40    0.04
   1   0   0    0.55    0.07
   1   0   0    0.39    0.05
  -2   0   0   33.30    2.53
  -2   0   0   32.21    2.28
  -2   0   0   36.25    3.07
  -2   0   0   31.84    2.27
  -2   0   0   35.58    2.54
   2   0   0   36.24    2.28
   2   0   0   32.39    2.26
   2   0   0   37.16    3.08
  -3   0   0  318.09   21.22
  -3   0   0  340.26   20.33
  -3   0   0  297.95   23.61
   3   0   0  313.04   21.20
   3   0   0  344.23   20.34
  -4   0   0   14.69    0.89
   4   0   0   12.74    0.88
   4   0   0   12.30    0.91
  -5   0   0   18.24    1.14
  -5   0   0   19.08    1.24
   5   0   0   19.06    1.27
   5   0   0   18.51    1.24
  -6   0   0   16.51    1.04
   6   0   0   17.30    1.14
   6  -1   0   11.90    0.87
  -6   1   0   11.98    0.78
   5  -1   0    0.59    0.24
   5  -1   0    0.39    0.16
  -5   1   0    0.50    0.11
  -5   1   0    0.32    0.17
   4  -1   0    0.07    0.13
   4  -1   0    0.16    0.16
  -4   1   0    0.88    0.17
  -4   1   0    0.17    0.08
   3  -1   0   17.09    1.13
   3  -1   0   16.86    1.13
  -3   1   0   16.69    1.29
  -3   1   0   17.51    1.17
  -3   1   0   17.07    1.10
   2  -1   0   52.68    4.04
   2  -1   0   65.42    4.03
   2  -1   0   62.95    3.88
  -2   1   0   61.26    4.50
  -2   1   0   68.32    4.04
  -2   1   0   55.07    4.03
  -2   1   0   62.60    4.50
   1  -1   0  241.30   16.33
   1  -1   0  241.33   16.34
  -1   1   0  269.44   16.35
  -1   1   0  241.92   22.07
  -1   1   0  248.53   18.16
   0  -1   0   19.22    1.34
   0  -1   0   21.14    1.82
   0  -1   0   20.73    1.34
   0   1   0   22.25    1.50
   0   1   0   18.53    1.82
   0   1   0   20.19    1.34
  -1  -1   0   61.97    4.26
  -1  -1   0   54.28    4.12
  -1  -1   0   56.45    5.17
  -1  -1   0   61.81    3.83
  -1  -1   0   62.97    3.82
   1   1   0   56.72    5.18
   1   1   0   61.40    3.82
   1   1   0   49.57    4.26
   1   1   0   58.34    4.26
  -2  -1   0   94.38    6.38
  -2  -1   0   89.48    5.72
  -2  -1   0   93.98    5.74
   2   1   0   86.80    5.73
   2   1   0   82.86    6.38
   2   1   0   72.32    7.74
   2   1   0   84.44    5.72
   2   1   0   92.30    6.39
  -3  -1   0    6.11    0.42
  -3  -1   0    5.34    0.45
   3   1   0    6.97    0.44
   3   1   0    5.69    0.42
   3   1   0    6.39    0.50
  -4  -1   0   19.19    1.33
   4   1   0   22.09    1.36
  -5  -1   0   35.34    2.23
  -5  -1   0   35.53    2.00
   5   1   0   31.71    2.14
   5   1   0   35.59    2.26
  -7  -1   0    1.22    0.18
   6  -2   0    8.91    0.70
  -6   2   0    8.88    0.60
   5  -2   0    2.02    0.32
   5  -2   0    1.83    0.26
  -5   2   0    2.27    0.28
  -5   2   0    2.27    0.22
   4  -2   0   16.02    1.10
   4  -2   0   17.73    1.14
  -4   2   0   16.20    1.10
  -4   2   0   16.87    1.02
   3  -2   0    8.97    0.60
   3  -2   0    8.69    0.59
   3  -2   0    8.15    0.61
  -3   2   0    8.68    0.58
   2  -2   0    7.07    0.51
   2  -2   0    7.23    0.50
  -2   2   0    7.34    0.49
  -2   2   0    7.56    0.58
  -2   2   0    7.24    0.53
   1  -2   0   29.88    2.43
   1  -2   0   25.19    1.78
  -1   2   0   26.71    1.78
  -1   2   0   25.61    1.98
   0  -2   0   29.38    1.83
   0  -2   0   30.49    1.83
   0  -2   0   28.81    1.93
   0  -2   0   24.66    1.76
   0  -2   0   26.71    2.50
   0   2   0   30.99    2.04
   0   2   0   28.07    2.05
   0   2   0   27.66    1.84
   0   2   0   24.66    1.84
   0   2   0   25.01    1.75
  -1  -2   0  537.87   30.60
  -1  -2   0  504.69   31.89
  -1  -2   0  506.67   35.47
  -1  -2   0  526.05   43.14
  -1  -2   0  485.90   31.91
   1   2   0  503.07   31.91
   1   2   0  418.01   35.50
   1   2   0  423.93   43.08
   1   2   0  423.91   35.41
   1   2   0  470.00   30.58
   1   2   0  473.57   31.91
   1   2   0  550.83   43.11
  -2  -2   0   15.74    0.94
  -2  -2   0   13.80    1.03
  -2  -2   0   14.65    0.98
  -2  -2   0   14.35    0.96
  -2  -2   0   14.24    1.10
   2   2   0   14.81    1.31
   2   2   0   14.46    1.09
   2   2   0   14.29    0.96
   2   2   0   13.42    0.93
   2   2   0   14.81    0.98
   2   2   0   16.14    0.97
   2   2   0   12.65    1.09
  -3  -2   0   75.04    4.87
  -3  -2   0   76.24    5.07
   3   2   0   71.79    5.06
   3   2   0   80.42    5.65
   3   2   0   73.61    5.06
   3   2   0   83.91    4.87
  -4  -2   0   68.02    4.30
   4   2   0   67.35    4.32
  -5  -2   0    9.44    0.64
  -5  -2   0    9.00    0.62
   5   2   0    8.75    0.66
  -6  -2   0   11.05    0.74
  -7  -2   0    1.38    0.19
   6  -3   0    5.46    0.47
   5  -3   0   36.68    2.33
  -5   3   0   37.51    2.14
   4  -3   0   15.83    1.16
   4  -3   0   17.50    1.15
  -4   3   0   17.04    1.04
  -4   3   0   17.30    1.12
   3  -3   0   77.74    5.04
   3  -3   0   78.51    4.77
  -3   3   0   84.42    5.02
  -3   3   0   74.94    4.41
   2  -3   0   56.10    4.25
   2  -3   0   71.20    4.12
  -2   3   0   66.86    4.09
   1  -3   0   22.33    1.64
   1  -3   0   26.44    1.60
  -1   3   0   24.66    1.58
  -1   3   0   24.84    1.84
  -1   3   0   25.39    1.65
   0  -3   0   31.24    3.12
   0  -3   0   30.33    2.41
   0  -3   0   33.60    2.20
   0  -3   0   32.92    2.20
   0  -3   0   38.63    2.28
   0  -3   0   35.64    2.27
   0   3   0   38.90    2.55
   0   3   0   35.19    2.19
   0   3   0   30.52    2.30
   0   3   0   33.48    2.55
   0   3   0   38.00    2.29
  -1  -3   0  122.04    8.43
  -1  -3   0  141.84    9.29
  -1  -3   0  121.04    9.77
  -1  -3   0  137.51    8.78
  -1  -3   0  142.89    8.79
   1   3   0  134.72    9.78
   1   3   0  120.56   11.87
   1   3   0  134.14    9.78
   1   3   0  144.16    8.42
   1   3   0  136.17    8.80
  -2  -3   0   60.34    3.65
  -2  -3   0   59.50    3.78
  -2  -3   0   58.90    3.79
  -2  -3   0   55.32    4.08
   2   3   0   53.88    3.64
   2   3   0   57.30    3.79
   2   3   0   56.37    4.23
  -3  -3   0   19.92    1.20
  -3  -3   0   17.00    1.25
   3   3   0   18.23    1.20
  -4  -3   0   59.12    3.33
  -4  -3   0   67.61    3.79
   4   3   0   56.03    3.80
   4   3   0   54.58    3.31
  -5  -3   0    6.98    0.54
  -5  -3   0    7.58    0.55
   5   3   0    8.20    0.59
  -6  -3   0    0.11    0.16
  -7  -3   0    0.10    0.13
   5  -4   0   10.30    0.77
  -5   4   0   10.73    0.68
   4  -4   0   27.05    1.73
   4  -4   0   28.65    1.80
  -4   4   0   24.68    1.75
  -4   4   0   28.26    1.59
   3  -4   0   29.88    1.97
   3  -4   0   30.48    1.88
  -3   4   0   28.62    1.73
  -3   4   0   30.29    1.93
   2  -4   0   20.47    1.29
   2  -4   0   18.85    1.22
  -2   4   0   17.83    1.13
  -2   4   0   19.24    1.25
   1  -4   0    1.42    0.16
   1  -4   0    1.75    0.20
   1  -4   0    1.75    0.20
  -1   4   0    1.72    0.16
   0  -4   0   56.68    3.18
   0  -4   0   47.05    3.29
   0   4   0   46.06    3.16
  -1  -4   0    5.83    0.43
  -1  -4   0    6.09    0.44
   1   4   0    5.94    0.49
   1   4   0    6.20    0.42
  -2  -4   0    5.16    0.42
  -2  -4   0    5.63    0.43
   2   4   0    6.62    0.41
  -3  -4   0   19.22    1.23
   3   4   0   17.90    1.22
  -4  -4   0    0.87    0.19
  -4  -4   0    1.00    0.17
   4   4   0    1.06    0.17
   4   4   0    1.44    0.18
  -5  -4   0   21.72    1.34
  -5  -4   0   21.98    1.47
   5   4   0   23.46    1.50
  -6  -4   0    1.68    0.24
   4  -5   0    4.65    0.43
  -4   5   0    3.74    0.35
   3  -5   0   14.46    1.04
   3  -5   0   15.87    1.03
  -3   5   0   14.25    0.93
  -3   5   0   15.15    0.99
   2  -5   0   21.31    1.44
   2  -5   0   21.04    1.38
  -2   5   0   22.34    1.28
  -2   5   0   21.18    1.40
   1  -5   0   13.42    0.99
   1  -5   0   14.87    0.96
  -1   5   0   14.73    0.88
  -1   5   0   15.11    0.96
   0  -5   0   61.52    3.83
   0   5   0   56.61    3.35
   0   5   0   61.46    3.81
  -1  -5   0   15.27    1.17
  -1  -5   0   16.61    1.06
   1   5   0   15.44    1.04
  -2  -5   0   25.44    1.59
   2   5   0   23.69    1.39
   2   5   0   23.23    1.56
  -3  -5   0    9.69    0.74
  -3  -5   0   10.16    0.69
   3   5   0   11.99    0.74
   3   5   0   10.29    0.67
  -4  -5   0    0.48    0.18
  -4  -5   0    0.50    0.14
   4   5   0    0.63    0.15
   4   5   0    0.55    0.14
  -5  -5   0    7.35    0.58
  -5  -5   0    8.57    0.59
   5   5   0    8.68    0.61
  -6  -5   0    6.44    0.48
   3  -6   0    9.26    0.68
  -3   6   0    7.78    0.56
   2  -6   0   12.40    0.88
  -2   6   0   11.94    0.84
  -2   6   0   13.10    0.79
   1  -6   0   65.61    4.40
  -1   6   0   65.87    4.37
  -1   6   0   75.21    3.86
   0  -6   0    2.82    0.31
   0   6   0    2.86    0.26
   0   6   0    2.85    0.22
   0   6   0    3.01    0.28
  -1  -6   0    5.66    0.45
   1   6   0    5.16    0.34
   1   6   0    5.42    0.40
   1   6   0    5.75    0.42
  -2  -6   0    8.06    0.60
   2   6   0    8.22    0.58
   2   6   0    7.83    0.54
  -3  -6   0    4.30    0.39
  -3  -6   0    4.36    0.42
   3   6   0    5.14    0.38
   3   6   0    4.17    0.37
  -4  -6   0    2.47    0.26
  -4  -6   0    2.72    0.32
   4   6   0    2.59    0.27
   4   6   0    2.56    0.28
  -5  -6   0    6.69    0.51
  -6  -6   0    3.38    0.30
  -3   7   0    4.56    0.30
  -2   7   0    4.55    0.36
  -2   7   0    4.62    0.31
  -1   7   0    2.98    0.29
  -1   7   0    3.21    0.24
   0   7   0   16.09    0.99
   0   7   0   16.50    0.94
  -1  -7   0    0.22    0.14
   1   7   0    0.12    0.09
   1   7   0    0.15    0.13
  -2  -7   0    3.04    0.31
   2   7   0    2.93    0.29
   2   7   0    3.44    0.31
  -3  -7   0    1.38    0.25
   3   7   0    1.85    0.21
  -4  -7   0    4.60    0.41
   4   7   0    4.66    0.37
  -5  -7   0    1.97    0.23
  -1   8   0   10.10    0.59
   0   8   0    3.74    0.25
  -2  -8   0    2.49    0.27
  -3  -8   0    1.15    0.19
  -4  -8   1    2.11    0.21
  -3  -8   1    3.12    0.29
  -2  -8   1   20.31    1.22
  -5  -7   1    0.97    0.18
  -4  -7   1    1.65    0.24
  -3  -7   1    7.03    0.54
   2   7  -1    4.74    0.39
   1   7  -1   15.71    1.06
  -1   7  -1    0.10    0.07
  -3   7  -1    7.33    0.44
  -6  -6   1    0.18    0.13
  -5  -6   1    3.31    0.33
   4   6  -1    2.54    0.29
  -4  -6   1    2.77    0.31
   3   6  -1    3.16    0.30
  -3  -6   1    3.01    0.34
   2   6  -1   17.49    1.13
  -2  -6   1   16.28    1.13
   1   6  -1   71.17    4.66
  -1  -6   1   75.35    4.67
   0   6  -1    0.93    0.14
   0  -6   1    0.92    0.17
  -1   6  -1   38.26    2.46
  -2   6  -1   30.38    1.96
  -6  -5   1   15.91    0.97
  -5  -5   1    4.28    0.41
   4   5  -1    3.67    0.35
  -4  -5   1    4.32    0.39
   3   5  -1    9.14    0.64
  -3  -5   1    9.62    0.62
  -3  -5   1    8.45    0.63
   2   5  -1    0.53    0.11
  -2  -5   1    0.48    0.12
   1   5  -1   62.94    3.89
  -1  -5   1   65.35    3.90
  -1  -5   1   55.38    4.37
   0   5  -1   78.84    4.65
   0  -5   1   67.63    4.66
  -1   5  -1    1.72    0.18
   1  -5   1    1.90    0.24
   1  -5   1    1.56    0.20
  -2   5  -1    5.26    0.42
   2  -5   1    6.65    0.49
   2  -5   1    5.32    0.45
  -3   5  -1    0.68    0.13
   3  -5   1    0.97    0.26
   4  -5   1    0.34    0.23
  -6  -4   1    4.60    0.41
   5   4  -1    5.68    0.49
  -5  -4   1    6.07    0.48
   4   4  -1   33.50    2.18
  -4  -4   1   33.85    2.16
  -4  -4   1   33.41    1.94
   3   4  -1   16.01    1.04
  -3  -4   1   14.54    1.03
  -3  -4   1   16.45    0.95
   2   4  -1   27.40    1.87
  -2  -4   1   30.96    1.88
   1   4  -1   39.44    2.35
  -1  -4   1   36.88    2.35
  -1  -4   1   33.91    2.63
   0   4  -1   24.46    1.59
   0  -4   1   24.32    1.60
   0  -4   1   25.60    1.80
  -1   4  -1   46.57    2.61
   1  -4   1   39.57    2.62
   1  -4   1   39.45    2.93
   1  -4   1   37.50    2.48
  -2   4  -1   22.27    1.42
   2  -4   1   21.55    1.38
   2  -4   1   22.13    1.44
   2  -4   1   21.36    1.44
  -3   4  -1   35.47    2.10
   3  -4   1   31.97    2.12
   3  -4   1   32.64    2.03
   3  -4   1   29.82    2.11
  -4   4  -1   45.58    2.81
   4  -4   1   41.57    2.71
   5  -4   1    7.59    0.62
  -7  -3   1    3.05    0.29
  -6  -3   1    2.70    0.31
   5   3  -1   19.16    1.30
  -5  -3   1   19.35    1.17
   4   3  -1   38.33    2.48
  -4  -3   1   41.09    2.19
  -4  -3   1   36.11    2.45
   3   3  -1   31.64    2.05
  -3  -3   1   32.05    2.04
   2   3  -1   75.31    4.55
  -2  -3   1   74.85    4.56
  -2  -3   1   65.80    5.11
   1   3  -1   18.74    1.45
   1   3  -1   19.82    1.24
  -1  -3   1   18.83    1.24
  -1  -3   1   20.17    1.39
  -1  -3   1   18.58    1.78
   0   3  -1   10.11    0.77
   0   3  -1   10.72    0.65
   0  -3   1    9.03    0.66
  -1   3  -1  101.33    6.65
   1  -3   1  109.97    7.49
   1  -3   1  105.79    6.66
   1  -3   1  104.10    6.66
  -2   3  -1    9.22    0.63
   2  -3   1    9.93    0.66
   2  -3   1    9.47    0.72
  -3   3  -1   23.12    1.48
   3  -3   1   22.53    1.44
   3  -3   1   22.58    1.50
  -4   3  -1   30.90    2.02
   4  -3   1   30.11    2.04
   4  -3   1   33.02    1.97
   5  -3   1    3.06    0.37
   6  -3   1    2.51    0.27
  -7  -2   1    1.29    0.19
   6   2  -1   39.82    2.39
  -6  -2   1   37.36    2.22
   5   2  -1   29.28    2.09
  -5  -2   1   34.62    1.86
  -5  -2   1   32.40    2.06
   4   2  -1   13.13    0.82
  -4  -2   1   10.87    0.73
  -4  -2   1   11.22    0.78
   3   2  -1   55.84    3.49
  -3  -2   1   54.04    3.49
   2   2  -1   36.26    3.73
   2   2  -1   43.09    2.63
   2   2  -1   45.82    3.06
  -2  -2   1   39.66    2.94
  -2  -2   1   41.87    2.62
   1   2  -1   27.75    1.97
   1   2  -1   24.04    1.68
   1   2  -1   25.69    2.37
   1   2  -1   30.66    2.40
   1   2  -1   26.41    1.75
  -1  -2   1   24.13    1.96
  -1  -2   1   26.62    1.89
  -1  -2   1   27.91    1.69
  -1  -2   1   26.09    2.40
   0   2  -1  141.53   12.02
   0   2  -1  164.04   10.82
   0   2  -1  168.47   10.37
   0  -2   1  168.21   10.37
   0  -2   1  180.63   11.67
  -1   2  -1   48.83    3.07
  -1   2  -1   46.01    3.57
  -1   2  -1   41.77    3.21
  -1   2  -1   49.69    3.20
   1  -2   1   49.07    3.08
   1  -2   1   54.55    4.35
   1  -2   1   49.69    3.45
  -2   2  -1   48.17    3.08
   2  -2   1   46.98    3.47
   2  -2   1   50.84    3.10
  -3   2  -1   37.37    2.26
   3  -2   1   34.11    2.27
   3  -2   1   34.06    2.16
  -4   2  -1    7.82    0.54
   4  -2   1    7.39    0.57
   4  -2   1    7.58    0.58
  -5   2  -1    4.01    0.32
   5  -2   1    3.10    0.39
   6  -2   1    4.56    0.46
  -7  -1   1    4.17    0.35
   6   1  -1    3.89    0.43
  -6  -1   1    4.84    0.41
   5   1  -1    1.70    0.23
   5   1  -1    1.61    0.26
  -5  -1   1    1.91    0.24
  -5  -1   1    1.71    0.19
   4   1  -1   12.77    0.87
  -4  -1   1   12.62    0.84
  -4  -1   1   12.77    0.78
   3   1  -1   23.35    1.60
  -3  -1   1   25.09    1.58
  -3  -1   1   25.63    1.85
   2   1  -1  104.02    8.59
   2   1  -1   98.94    6.09
   2   1  -1   96.56    6.36
   2   1  -1   99.84    6.35
   2   1  -1   92.88    7.07
   2   1  -1   96.78    8.62
   2   1  -1   95.51    7.08
  -2  -1   1   91.75    6.09
  -2  -1   1   90.91    8.58
  -2  -1   1   88.23    7.07
  -2  -1   1  106.47    7.08
   1   1  -1  861.16   58.90
   1   1  -1  930.27   59.12
   1   1  -1  827.68   79.55
   1   1  -1  934.09   79.64
   1   1  -1  790.53   65.45
  -1  -1   1  861.56   64.09
  -1  -1   1 1000.00   65.47
  -1  -1   1  965.88   79.56
   0  -1   1   16.86    1.25
   0  -1   1   18.25    1.58
  -1   1  -1    4.00    0.31
  -1   1  -1    3.49    0.41
   1  -1   1    4.83    0.43
   1  -1   1    4.90    0.32
  -2   1  -1  119.05   12.74
  -2   1  -1  148.42    9.43
  -2   1  -1  139.03    9.03
  -2   1  -1  150.05   10.49
   2  -1   1  146.20   10.16
   2  -1   1  157.44    9.05
  -3   1  -1    0.82    0.10
   3  -1   1    0.87    0.13
  -4   1  -1    8.47    0.56
   4  -1   1    7.40    0.57
   4  -1   1    7.83    0.58
  -5   1  -1   57.90    3.92
   5  -1   1   62.33    3.94
   5  -1   1   64.75    3.75
  -7   0   1    0.79    0.15
   6   0  -1    8.27    0.69
  -6   0   1    9.17    0.62
   5   0  -1    0.04    0.21
   5   0  -1    0.09    0.15
  -5   0   1    0.17    0.15
  -5   0   1    0.23    0.09
   4   0  -1   43.06    2.52
   4   0  -1   43.19    2.66
  -4   0   1   37.34    3.07
  -4   0   1   39.88    2.63
  -4   0   1   43.03    2.34
   3   0  -1    4.36    0.29
  -3   0   1    3.24    0.25
  -3   0   1    3.05    0.31
   2   0  -1  263.64   17.53
   2   0  -1  302.08   23.68
   2   0  -1  263.01   19.48
   2   0  -1  248.25   17.52
  -2   0   1  247.87   23.67
  -2   0   1  261.35   16.79
  -2   0   1  276.95   19.51
  -2   0   1  270.65   19.48
   1   0  -1  549.48   36.91
   1   0  -1  556.34   36.92
  -1   0   1  526.51   41.03
  -1   0   1  564.79   49.88
  -1   0   1  612.12   41.10
   0   0   1   42.68    2.95
  -1   0  -1  203.93   13.94
  -1   0  -1  227.08   18.86
  -1   0  -1  206.72   13.93
  -1   0  -1  189.13   15.49
   1   0   1  245.11   15.05
   1   0   1  201.12   18.82
  -2   0  -1   45.57    2.97
  -2   0  -1   41.94    4.02
  -2   0  -1   47.36    2.98
  -2   0  -1   47.61    2.86
  -2   0  -1   45.89    3.32
   2   0   1   45.05    2.86
   2   0   1   42.39    4.03
  -3   0  -1   55.75    3.28
   3   0   1   47.63    3.29
  -4   0  -1    5.71    0.41
   4   0   1    6.17    0.44
   4   0   1    5.06    0.43
  -5   0  -1    4.69    0.36
   5   0   1    4.02    0.39
   6  -1  -1    0.72    0.26
  -6   1   1    0.82    0.20
   5  -1  -1    6.71    0.62
   5  -1  -1    7.84    0.59
  -5   1   1    7.13    0.54
   4  -1  -1   24.09    1.59
   4  -1  -1   23.92    1.51
  -4   1   1   24.52    1.55
  -4   1   1   23.01    1.40
   3  -1  -1   32.41    2.00
  -3   1   1   27.06    2.30
  -3   1   1   33.17    1.97
   2  -1  -1  252.28   15.69
  -2   1   1  246.76   18.20
  -2   1   1  247.59   15.67
   1  -1  -1  479.90   32.97
   1  -1  -1  518.89   34.91
  -1   1   1  466.52   44.55
  -1   1   1  464.09   34.55
  -1   1   1  585.73   36.73
  -1   1   1  495.58   36.63
   0  -1  -1    2.20    0.23
   0  -1  -1    2.30    0.15
   0  -1  -1    2.59    0.18
   0   1   1    1.96    0.18
   0   1   1    2.02    0.17
   0   1   1    1.94    0.23
  -1  -1  -1   82.42    7.49
  -1  -1  -1   74.12    6.17
   1   1   1   93.38    6.17
   1   1   1   75.76    7.49
   1   1   1   92.42    6.17
   1   1   1   87.95    7.50
  -2  -1  -1   31.88    2.12
  -2  -1  -1   36.99    2.86
  -2  -1  -1   32.52    2.37
  -2  -1  -1   29.57    2.11
  -2  -1  -1   29.48    2.03
   2   1   1   31.10    2.86
   2   1   1   32.59    2.36
   2   1   1   30.33    2.03
   2   1   1   33.50    2.89
  -3  -1  -1    6.79    0.46
   3   1   1    6.09    0.46
   3   1   1    7.01    0.54
  -4  -1  -1   32.54    2.04
   4   1   1   26.46    2.37
   4   1   1   36.38    2.06
  -5  -1  -1    7.57    0.56
   5   1   1    8.22    0.59
   6  -2  -1    1.19    0.27
  -6   2   1    0.98    0.19
   5  -2  -1    1.29    0.22
   5  -2  -1    1.21    0.28
  -5   2   1    1.46    0.24
   4  -2  -1   23.77    1.48
   4  -2  -1   22.74    1.54
  -4   2   1   23.76    1.37
  -4   2   1   22.33    1.49
   3  -2  -1    1.21    0.18
   3  -2  -1    1.37    0.18
  -3   2   1    1.26    0.13
  -3   2   1    1.28    0.18
   2  -2  -1    6.92    0.46
  -2   2   1    5.73    0.50
  -2   2   1    6.27    0.42
   1  -2  -1   24.08    1.78
   1  -2  -1   25.69    1.76
   1  -2  -1   30.39    2.41
   1  -2  -1   27.36    1.70
   1  -2  -1   30.70    1.87
  -1   2   1   26.25    1.97
  -1   2   1   25.06    1.97
  -1   2   1   25.77    1.69
  -1   2   1   24.11    2.39
   0  -2  -1  156.34   13.94
   0  -2  -1  161.80    9.88
   0  -2  -1  140.79   10.31
   0  -2  -1  145.73   10.90
   0   2   1  166.75   11.47
   0   2   1  165.31   13.93
   0   2   1  160.73    9.87
  -1  -2  -1   44.66    3.56
  -1  -2  -1   48.92    4.34
  -1  -2  -1   43.81    3.07
  -1  -2  -1   51.14    3.19
   1   2   1   50.81    3.57
   1   2   1   52.14    4.32
   1   2   1   49.57    3.56
   1   2   1   47.07    3.06
   1   2   1   48.05    4.34
  -2  -2  -1  115.34    8.31
  -2  -2  -1  136.46    9.65
  -2  -2  -1  129.23   11.71
  -2  -2  -1  131.23    8.68
  -2  -2  -1  133.83    8.66
   2   2   1  146.18   11.75
   2   2   1  130.46   11.71
  -3  -2  -1  127.61    7.87
   3   2   1  125.66    7.87
   3   2   1  120.17    9.14
  -4  -2  -1   21.16    1.56
   4   2   1   25.79    1.57
   4   2   1   25.14    1.82
  -5  -2  -1   30.02    1.91
   5   2   1   28.90    1.92
   6  -3  -1    2.38    0.26
  -6   3   1    1.68    0.20
   5  -3  -1    7.44    0.64
  -5   3   1    7.47    0.55
   4  -3  -1   27.19    1.71
   4  -3  -1   26.32    1.78
  -4   3   1   28.58    1.58
  -4   3   1   25.13    1.72
   3  -3  -1    6.03    0.50
   3  -3  -1    7.55    0.52
  -3   3   1    6.56    0.48
  -3   3   1    6.30    0.46
   2  -3  -1   15.36    1.01
  -2   3   1   15.56    1.15
  -2   3   1   13.99    0.97
   1  -3  -1   24.28    1.57
   1  -3  -1   26.94    1.71
  -1   3   1   21.15    1.80
  -1   3   1   24.39    1.55
   0  -3  -1  132.69    9.81
   0  -3  -1  126.62    8.89
   0   3   1  148.87   10.32
   0   3   1  155.16    8.88
  -1  -3  -1  110.92    7.11
   1   3   1  105.91    8.24
   1   3   1  115.30    7.09
   1   3   1  117.60   10.00
  -2  -3  -1   20.22    1.21
   2   3   1   17.68    1.39
   2   3   1   17.90    1.20
  -3  -3  -1   41.04    2.63
   3   3   1   40.69    3.05
   3   3   1   41.46    2.62
  -4  -3  -1    5.21    0.38
   4   3   1    4.11    0.32
   4   3   1    4.56    0.37
  -5  -3  -1    0.09    0.10
   5   3   1   -0.05    0.12
   5  -4  -1    5.91    0.53
  -5   4   1    6.21    0.45
   4  -4  -1    1.04    0.26
   4  -4  -1    1.35    0.24
  -4   4   1    1.17    0.21
   3  -4  -1   14.66    1.12
   3  -4  -1   18.21    1.10
  -3   4   1   16.55    1.00
  -3   4   1   15.74    1.06
   2  -4  -1   18.46    1.25
   2  -4  -1   18.39    1.31
  -2   4   1   20.77    1.16
  -2   4   1   20.58    1.27
   1  -4  -1   44.52    2.94
  -1   4   1   47.55    2.91
  -1   4   1   44.94    3.39
   0  -4  -1   12.52    0.81
   0  -4  -1   12.86    0.81
   0  -4  -1   11.73    0.86
   0   4   1   12.34    0.78
   0   4   1   10.49    0.91
  -1  -4  -1  106.96    7.61
   1   4   1  110.83    8.02
   1   4   1  109.84    6.90
  -2  -4  -1   60.01    4.05
   2   4   1   69.97    4.69
   2   4   1   60.72    4.03
  -3  -4  -1   34.48    2.33
   3   4   1   34.91    2.04
   3   4   1   36.31    2.31
   3   4   1   38.55    2.70
  -4  -4  -1   29.46    1.82
   4   4   1   24.39    1.59
   4   4   1   29.35    1.82
  -5  -4  -1    5.15    0.42
   4  -5  -1    0.66    0.22
  -4   5   1    0.43    0.15
   3  -5  -1   22.56    1.40
   3  -5  -1   19.11    1.46
   3  -5  -1   22.91    1.47
  -3   5   1   21.83    1.29
   2  -5  -1   18.31    1.20
   2  -5  -1   20.22    1.28
   2  -5  -1   19.80    1.28
  -2   5   1   18.15    1.12
  -2   5   1   17.24    1.21
   1  -5  -1    6.74    0.51
   1  -5  -1    5.97    0.50
   1  -5  -1    6.43    0.47
  -1   5   1    6.61    0.45
  -1   5   1    6.09    0.45
   0  -5  -1   16.83    1.15
   0  -5  -1   15.80    1.07
   0   5   1   14.50    1.03
   0   5   1   16.21    0.95
  -1  -5  -1    4.86    0.39
   1   5   1    4.97    0.31
   1   5   1    4.72    0.35
   1   5   1    4.06    0.41
   1   5   1    5.31    0.36
  -2  -5  -1   29.84    1.90
   2   5   1   26.31    1.62
   2   5   1   29.08    1.66
   2   5   1   30.95    1.87
  -3  -5  -1    8.86    0.62
   3   5   1    8.22    0.59
   3   5   1    8.28    0.56
  -4  -5  -1   22.51    1.45
   4   5   1   21.96    1.45
   4   5   1   20.86    1.28
  -5  -5  -1    2.36    0.25
  -4   6   1    0.80    0.09
  -4   6   1    1.07    0.14
   3  -6  -1    5.37    0.47
  -3   6   1    4.68    0.39
   2  -6  -1   36.81    2.35
   2  -6  -1   37.38    2.49
  -2   6   1   39.40    2.18
   1  -6  -1    1.43    0.23
  -1   6   1    1.34    0.20
   0  -6  -1    6.02    0.52
   0   6   1    6.31    0.45
   0   6   1    6.24    0.41
   0   6   1    7.10    0.47
  -1  -6  -1    1.77    0.24
   1   6   1    2.50    0.25
   1   6   1    2.70    0.19
   1   6   1    2.35    0.22
  -2  -6  -1    5.21    0.48
   2   6   1    6.00    0.37
   2   6   1    6.44    0.44
   2   6   1    5.48    0.43
  -3  -6  -1   10.17    0.70
   3   6   1    9.37    0.63
   3   6   1    9.04    0.66
  -4  -6  -1    0.08    0.13
   4   6   1    0.41    0.15
  -3   7   1   11.32    0.66
  -2   7   1   23.48    1.36
  -2   7   1   23.23    1.33
  -1   7   1    7.21    0.45
  -1   7   1    6.90    0.50
   0   7   1    1.73    0.22
   0   7   1    1.57    0.15
  -1  -7  -1    8.27    0.62
   1   7   1    7.86    0.49
   1   7   1    8.14    0.55
  -2  -7  -1    9.29    0.70
   2   7   1    9.93    0.64
   3   7   1    4.71    0.38
   4   7   1   10.99    0.70
  -1   8   1    9.91    0.56
  -1   8   1    9.11    0.59
   0   8   1    0.60    0.13
   0   8   1    0.47    0.07
   1   8   1    7.21    0.46
   1   8   1    6.35    0.40
   2   8   1    1.66    0.20
   3   8   1   10.03    0.62
   4   8   1    0.57    0.11
  -3  -8   2   17.03    1.02
  -2  -8   2   11.70    0.75
  -5  -7   2    2.13    0.23
  -4  -7   2    0.29    0.17
  -3  -7   2    2.37    0.29
  -2  -7   2    4.07    0.39
  -6  -6   2    0.67    0.16
  -5  -6   2    3.30    0.32
  -4  -6   2   17.05    1.06
   3   6  -2   11.62    0.82
  -3  -6   2   11.72    0.78
   2   6  -2   74.68    4.76
   1   6  -2   94.77    6.02
   0   6  -2   33.03    2.14
  -1   6  -2   19.10    1.26
  -6  -5   2    3.91    0.36
  -5  -5   2    1.03    0.22
   4   5  -2   11.63    0.82
  -4  -5   2   11.67    0.78
   3   5  -2    4.76    0.39
  -3  -5   2    5.41    0.35
  -3  -5   2    3.75    0.40
   2   5  -2   27.15    1.76
  -2  -5   2   26.86    1.52
   1   5  -2   29.30    2.04
  -1  -5   2   34.26    1.77
   0   5  -2    0.72    0.11
   0  -5   2    1.51    0.14
  -1   5  -2   17.62    1.18
   1  -5   2   18.18    1.02
  -2   5  -2    1.35    0.16
  -3   5  -2   11.92    0.86
   3  -5   2   14.49    0.94
   6   4  -2    1.37    0.28
  -6  -4   2    1.88    0.25
   5   4  -2    5.40    0.48
  -5  -4   2    6.27    0.49
   4   4  -2    5.90    0.45
  -4  -4   2    5.18    0.43
   3   4  -2    7.67    0.55
  -3  -4   2    7.24    0.52
  -3  -4   2    7.86    0.48
   2   4  -2   15.93    1.03
  -2  -4   2   15.47    0.90
   1   4  -2    4.47    0.33
  -1  -4   2    4.53    0.36
   0   4  -2   97.57    6.28
   0  -4   2  100.95    7.07
  -1   4  -2   56.97    3.58
   1  -4   2   58.13    3.09
   1  -4   2   52.96    3.41
   1  -4   2   56.60    4.03
  -2   4  -2    5.25    0.40
   2  -4   2    5.51    0.35
   2  -4   2    5.60    0.44
  -3   4  -2   57.49    3.57
   3  -4   2   54.02    3.41
  -4   4  -2   28.70    2.00
   4  -4   2   33.98    1.97
   5  -4   2    0.45    0.21
  -7  -3   2    3.71    0.32
   6   3  -2   13.53    0.97
  -6  -3   2   14.51    0.90
   5   3  -2   30.64    2.00
  -5  -3   2   30.23    1.78
   4   3  -2    0.97    0.16
  -4  -3   2    1.11    0.15
  -4  -3   2    1.12    0.18
   3   3  -2   33.71    2.27
  -3  -3   2   37.14    1.97
   2   3  -2   18.48    1.23
  -2  -3   2   19.08    1.37
  -2  -3   2   19.46    1.23
   1   3  -2  146.96   10.75
   1   3  -2  132.99    9.25
  -1  -3   2  142.76    9.25
  -1  -3   2  151.88   10.41
  -1  -3   2  159.38   13.08
   0   3  -2   28.52    1.85
   0   3  -2   28.75    2.15
   0  -3   2   32.37    2.65
   0  -3   2   26.10    1.84
   0  -3   2   29.59    2.08
  -1   3  -2   15.26    1.09
  -1   3  -2   13.20    0.92
   1  -3   2   13.26    0.92
   1  -3   2   15.00    1.04
  -2   3  -2  172.44   10.34
   2  -3   2  145.23   11.63
   2  -3   2  174.08    9.78
  -3   3  -2    9.68    0.71
   3  -3   2   10.92    0.62
   3  -3   2   11.41    0.73
  -4   3  -2    5.08    0.38
   4  -3   2    4.62    0.47
   5  -3   2    3.10    0.35
  -7  -2   2    9.40    0.60
   6   2  -2    5.36    0.56
  -6  -2   2    5.95    0.48
   5   2  -2    7.97    0.62
  -5  -2   2    8.36    0.59
   4   2  -2   71.65    4.62
  -4  -2   2   72.43    3.98
  -4  -2   2   72.97    4.05
   3   2  -2    3.29    0.26
   2   2  -2   23.31    1.72
   2   2  -2   24.21    1.47
  -2  -2   2   21.60    1.46
   1   2  -2   33.83    2.18
   1   2  -2   34.31    2.55
  -1  -2   2   35.74    2.46
  -1  -2   2   34.00    3.11
   0   2  -2    9.21    0.71
   0   2  -2    8.74    0.60
   0  -2   2    9.92    0.88
   0  -2   2    9.51    0.68
  -1   2  -2   19.60    1.23
   1  -2   2   20.17    1.39
   1  -2   2   19.12    1.75
   1  -2   2   17.96    1.22
  -2   2  -2   31.02    1.99
   2  -2   2   32.06    2.24
   2  -2   2   27.65    2.83
   2  -2   2   33.81    1.99
  -3   2  -2   10.48    0.66
   3  -2   2    9.25    0.65
   3  -2   2    9.42    0.57
  -4   2  -2   42.10    2.82
   4  -2   2   45.77    2.43
   4  -2   2   44.11    2.70
   5  -2   2    1.48    0.26
   6   1  -2    1.49    0.30
   5   1  -2    6.41    0.54
   5   1  -2    5.89    0.50
  -5  -1   2    6.63    0.50
   4   1  -2   18.68    1.14
  -4  -1   2   16.97    1.01
  -4  -1   2   15.08    0.98
   3   1  -2   66.12    4.71
  -3  -1   2   75.65    4.69
  -3  -1   2   80.82    5.47
   2   1  -2  193.07   13.33
   2   1  -2  184.52   11.49
  -2  -1   2  187.67   13.35
  -2  -1   2  161.06   16.18
  -2  -1   2  185.31   11.48
   1   1  -2   31.90    2.36
   1   1  -2   32.98    2.86
  -1  -1   2   32.15    2.86
  -1  -1   2   31.12    2.36
   0   1  -2  313.51   29.33
   0   1  -2  347.11   29.33
   0  -1   2  320.33   23.43
   0  -1   2  340.88   29.36
   1  -1   2   45.62    4.13
   1  -1   2   47.75    3.20
   1  -1   2   45.55    3.30
  -2   1  -2    9.60    0.61
   2  -1   2    8.32    0.87
   2  -1   2   10.20    0.68
   2  -1   2    8.93    0.61
  -3   1  -2   10.28    0.69
   3  -1   2   10.64    0.70
  -4   1  -2   14.10    0.93
   4  -1   2   13.89    0.80
  -5   1  -2   12.42    0.84
   6   0  -2    4.96    0.50
  -6   0   2    4.21    0.42
   5   0  -2    4.70    0.49
   5   0  -2    4.17    0.41
  -5   0   2    4.76    0.42
   4   0  -2   29.01    1.82
  -4   0   2   26.87    1.61
  -4   0   2   28.92    1.57
  -4   0   2   26.24    2.10
   3   0  -2  264.90   18.43
  -3   0   2  313.26   21.41
  -3   0   2  298.92   18.41
   2   0  -2   83.35    6.39
   2   0  -2   89.68    5.51
  -2   0   2   82.91    5.49
  -2   0   2   90.01    7.76
  -2   0   2   90.06    6.40
   1   0  -2  210.57   20.90
   1   0  -2  244.51   17.20
   1   0  -2  228.81   16.37
  -1   0   2  243.51   16.23
  -1   0   2  228.17   17.23
  -1   0   2  258.20   20.93
   0   0   2  341.42   23.54
  -1   0  -2   57.40    4.21
   1   0   2   55.11    3.98
   1   0   2   60.20    5.12
  -2   0  -2   28.28    2.39
  -2   0  -2   31.69    2.06
   2   0   2   35.52    2.31
   2   0   2   33.67    2.25
  -3   0  -2   66.26    3.91
   3   0   2   57.06    3.90
  -4   0  -2   24.64    1.68
   4   0   2   26.57    1.44
   4   0   2   26.97    1.45
  -5   0  -2   14.82    0.99
   6  -1  -2    0.50    0.24
  -6   1   2    0.40    0.18
   5  -1  -2    9.53    0.82
   5  -1  -2   11.17    0.81
  -5   1   2   12.09    0.75
   4  -1  -2    2.00    0.24
   4  -1  -2    1.66    0.25
  -4   1   2    1.88    0.24
  -4   1   2    2.15    0.21
  -4   1   2    1.69    0.23
   3  -1  -2    1.47    0.17
   3  -1  -2    0.87    0.16
  -3   1   2    1.32    0.17
   2  -1  -2   38.55    2.55
  -2   1   2   40.79    2.95
  -2   1   2   40.36    2.53
   1  -1  -2    9.53    0.68
   1  -1  -2    8.91    0.88
  -1   1   2    9.33    0.68
  -1   1   2    9.68    0.71
  -1   1   2   10.28    0.87
  -1   1   2    9.39    0.72
   0  -1  -2   31.94    2.16
   0  -1  -2   27.79    2.63
   0   1   2   29.63    2.16
   0   1   2   28.23    2.62
  -1  -1  -2   89.66    8.99
  -1  -1  -2  103.17    7.40
   1   1   2   97.95    9.00
   1   1   2  116.00    8.99
   1   1   2   99.32    7.41
  -2  -1  -2   19.89    1.38
  -2  -1  -2   21.66    1.61
   2   1   2   22.04    1.95
   2   1   2   23.00    1.97
  -3  -1  -2   20.90    1.48
   3   1   2   25.07    1.48
  -4  -1  -2   16.86    1.09
   4   1   2   18.39    0.93
   4   1   2   14.13    1.27
  -5  -1  -2    2.11    0.23
   5   1   2    2.32    0.29
   6  -2  -2    8.85    0.69
  -6   2   2    8.99    0.60
   5  -2  -2    1.00    0.27
  -5   2   2    1.52    0.25
   4  -2  -2    8.42    0.59
   4  -2  -2    7.13    0.57
  -4   2   2    6.69    0.63
  -4   2   2    7.18    0.53
   3  -2  -2   19.38    1.25
   3  -2  -2   18.19    1.19
  -3   2   2   17.79    1.42
  -3   2   2   19.41    1.08
  -3   2   2   18.27    1.10
  -2   2   2   32.14    2.14
  -2   2   2   35.50    2.51
   1  -2  -2   43.08    2.89
  -1   2   2   39.11    3.04
  -1   2   2   42.31    3.04
  -1   2   2   40.28    2.61
  -1   2   2   39.71    3.69
  -1   2   2   42.98    2.86
   0  -2  -2   54.99    4.29
   0  -2  -2   57.91    3.89
   0  -2  -2   66.49    5.50
   0   2   2   70.41    4.51
   0   2   2   59.15    5.48
   0   2   2   60.03    4.50
  -1  -2  -2   32.86    2.20
  -1  -2  -2   29.34    2.69
  -1  -2  -2   26.45    1.90
   1   2   2   31.72    2.20
   1   2   2   27.14    2.68
   1   2   2   31.19    2.20
  -2  -2  -2   77.19    5.15
   2   2   2   90.94    5.98
   2   2   2   81.22    7.24
   2   2   2   72.91    7.26
   2   2   2   84.25    5.13
  -3  -2  -2    8.03    0.53
   3   2   2    7.43    0.62
   3   2   2    7.68    0.52
  -4  -2  -2   12.82    0.91
   4   2   2   14.32    1.07
   4   2   2   13.49    0.76
  -5  -2  -2   13.97    0.95
   5  -3  -2    0.47    0.24
  -5   3   2    0.47    0.18
   4  -3  -2    3.21    0.34
   4  -3  -2    2.96    0.35
  -4   3   2    3.17    0.33
   3  -3  -2    6.18    0.47
   3  -3  -2    5.41    0.47
  -3   3   2    5.53    0.51
  -3   3   2    5.34    0.41
  -3   3   2    6.60    0.45
   2  -3  -2   15.89    1.07
   2  -3  -2   16.00    1.02
  -2   3   2   15.73    1.22
  -2   3   2   16.09    0.93
   1  -3  -2    3.96    0.31
   1  -3  -2    4.00    0.31
  -1   3   2    3.48    0.26
  -1   3   2    4.21    0.34
   0  -3  -2   61.15    3.92
   0  -3  -2   65.81    4.32
   0   3   2   55.66    4.54
   0   3   2   64.27    3.90
  -1  -3  -2   27.37    1.75
   1   3   2   31.10    2.01
   1   3   2   26.45    1.72
   1   3   2   23.77    2.43
  -2  -3  -2    7.74    0.61
   2   3   2    9.19    0.70
   2   3   2    8.63    0.59
   2   3   2   10.27    0.84
  -3  -3  -2    0.50    0.11
   3   3   2    0.66    0.10
   3   3   2    0.52    0.12
  -4  -3  -2    1.07    0.16
   4   3   2    0.89    0.17
   4   3   2    1.28    0.15
   4   3   2    0.99    0.10
  -5  -3  -2    0.97    0.16
   5  -4  -2    0.60    0.19
  -5   4   2    0.50    0.15
   4  -4  -2    0.05    0.19
  -4   4   2   -0.07    0.15
   3  -4  -2   45.57    2.91
   3  -4  -2   47.33    3.08
  -3   4   2   49.25    2.70
   2  -4  -2    8.57    0.59
   2  -4  -2    7.97    0.61
  -2   4   2    8.37    0.67
  -2   4   2    7.44    0.55
  -2   4   2    8.38    0.52
   1  -4  -2   13.75    0.96
   1  -4  -2   14.24    1.03
  -1   4   2   14.78    0.85
  -1   4   2   14.47    1.09
  -1   4   2   13.53    0.83
   0  -4  -2   55.04    3.37
   0  -4  -2   53.38    3.37
   0  -4  -2   48.49    3.69
   0   4   2   52.94    3.34
   0   4   2   53.60    3.89
  -1  -4  -2   25.03    1.58
  -1  -4  -2   24.03    1.72
   1   4   2   23.52    1.81
   1   4   2   24.34    1.55
   2   4   2   27.06    1.70
   2   4   2   26.01    1.99
  -3  -4  -2    6.25    0.46
   3   4   2    5.55    0.37
   3   4   2    6.27    0.52
   3   4   2    5.98    0.37
   3   4   2    6.05    0.41
  -4  -4  -2    1.74    0.20
   4   4   2    1.32    0.20
   4   4   2    1.30    0.19
  -5  -4  -2   39.90    2.58
   4  -5  -2    1.38    0.22
  -4   5   2    1.54    0.20
  -4   5   2    1.06    0.12
   3  -5  -2   11.16    0.80
  -3   5   2   11.72    0.75
   2  -5  -2    1.23    0.23
   2  -5  -2    1.30    0.21
  -2   5   2    1.57    0.22
   1  -5  -2    3.71    0.35
   1  -5  -2    4.88    0.37
  -1   5   2    3.38    0.34
  -1   5   2    3.12    0.27
  -1   5   2    3.50    0.32
   0  -5  -2   39.79    2.37
   0  -5  -2   31.65    2.57
   0   5   2   36.49    2.06
   0   5   2   37.17    2.01
   0   5   2   37.23    2.71
   0   5   2   36.30    2.04
  -1  -5  -2   14.79    0.87
  -1  -5  -2   11.43    0.91
   1   5   2   13.16    0.97
   1   5   2   10.13    0.72
   1   5   2   12.58    0.72
   1   5   2   13.48    0.76
  -2  -5  -2    0.54    0.14
   2   5   2    0.35    0.08
   2   5   2    0.42    0.11
   2   5   2    0.50    0.13
   2   5   2    0.40    0.07
  -3  -5  -2   32.86    1.93
   3   5   2   27.03    2.20
   3   5   2   28.90    1.65
   3   5   2   28.45    1.68
  -4  -5  -2    7.99    0.60
   4   5   2    7.83    0.54
   3  -6  -2   18.10    1.20
  -3   6   2   19.16    1.07
  -3   6   2   18.55    1.11
  -2   6   2   12.07    0.78
  -2   6   2   12.38    0.73
   1  -6  -2    0.33    0.16
  -1   6   2    0.46    0.10
  -1   6   2    0.46    0.15
   0  -6  -2    0.27    0.15
   0   6   2    0.14    0.08
   0   6   2    0.31    0.14
  -1  -6  -2    1.72    0.23
   1   6   2    2.04    0.23
   1   6   2    2.05    0.17
  -2  -6  -2    1.57    0.23
   2   6   2    1.38    0.20
   2   6   2    1.59    0.15
  -3  -6  -2   18.45    1.36
   3   6   2   22.83    1.21
   3   6   2   19.62    1.15
  -4  -6  -2    4.14    0.38
   4   6   2    4.03    0.36
  -2   7   2    0.61    0.10
  -2   7   2    0.57    0.14
  -1   7   2    3.90    0.28
  -1   7   2    3.35    0.33
   0   7   2    6.08    0.46
   0   7   2    6.29    0.40
   1   7   2   15.74    0.91
   1   7   2   14.11    0.86
   2   7   2   31.57    1.79
   2   7   2   30.40    1.74
   3   7   2   11.39    0.73
   4   7   2    8.40    0.56
  -1   8   2    0.22    0.09
  -1   8   2    0.35    0.07
   0   8   2    0.59    0.08
   0   8   2    0.46    0.12
   1   8   2   16.87    0.95
   1   8   2   16.31    0.99
   2   8   2    1.54    0.18
   2   8   2    0.80    0.10
   3   8   2    2.48    0.23
   4   8   2    0.39    0.10
  -3  -8   3    8.50    0.54
  -2  -8   3    0.95    0.17
  -1  -8   3    2.85    0.27
  -4  -7   3    1.03    0.17
  -3  -7   3   24.31    1.43
  -2  -7   3   23.88    1.42
  -5  -6   3    9.48    0.62
  -4  -6   3   14.33    0.90
   3   6  -3    0.19    0.11
  -3  -6   3    0.02    0.17
   2   6  -3   65.73    4.25
  -2  -6   3   66.72    3.75
  -2  -6   3   67.39    3.68
   1   6  -3   32.35    2.11
  -1  -6   3   32.78    1.83
   0   6  -3    1.22    0.15
   0  -6   3    1.21    0.15
  -1   6  -3    6.19    0.46
  -6  -5   3    3.42    0.31
  -5  -5   3    1.54    0.24
   4   5  -3    2.20    0.25
  -4  -5   3    2.27    0.28
   3   5  -3   34.06    2.29
  -3  -5   3   34.67    1.98
  -3  -5   3   37.60    2.05
   2   5  -3    2.18    0.24
  -2  -5   3    2.81    0.24
   1   5  -3    2.03    0.20
  -1  -5   3    1.93    0.19
   0   5  -3    1.86    0.19
   0  -5   3    2.08    0.19
  -1   5  -3    2.23    0.21
   1  -5   3    1.88    0.19
  -2   5  -3   10.22    0.71
   2  -5   3   10.22    0.62
  -6  -4   3    1.06    0.19
  -5  -4   3    8.92    0.63
   4   4  -3    3.99    0.36
  -4  -4   3    4.04    0.39
  -4  -4   3    4.88    0.37
   3   4  -3    2.78    0.25
  -3  -4   3    2.31    0.26
  -3  -4   3    2.15    0.22
   2   4  -3    7.81    0.55
  -2  -4   3    7.81    0.49
   1   4  -3   10.60    0.66
  -1  -4   3    8.68    0.74
  -1  -4   3   10.32    0.58
   0   4  -3   30.25    1.97
   0  -4   3   30.83    2.22
   0  -4   3   33.63    1.71
   0  -4   3   27.83    2.08
  -1   4  -3   27.44    1.77
   1  -4   3   28.40    1.54
   1  -4   3   26.56    1.88
  -2   4  -3   20.90    1.33
   2  -4   3   19.65    1.15
  -3   4  -3   37.00    2.28
   3  -4   3   33.69    2.20
   3  -4   3   34.72    1.96
   6   3  -3    0.46    0.23
  -6  -3   3    0.38    0.18
   5   3  -3   19.83    1.38
  -5  -3   3   21.35    1.25
   4   3  -3   10.20    0.72
  -4  -3   3    9.59    0.64
  -4  -3   3   10.65    0.67
   3   3  -3   13.88    0.92
  -3  -3   3   13.46    0.83
  -3  -3   3   13.71    0.80
   2   3  -3    3.44    0.26
   1   3  -3    9.43    0.64
  -1  -3   3    9.84    0.73
  -1  -3   3   10.05    0.48
   0   3  -3   91.13    5.53
   0  -3   3   96.39    6.24
   0  -3   3   74.86    7.82
  -1   3  -3   11.08    0.76
   1  -3   3   12.24    0.87
  -2   3  -3    3.56    0.25
   2  -3   3    2.84    0.34
   2  -3   3    3.28    0.23
   2  -3   3    2.90    0.28
   2  -3   3    3.34    0.31
  -3   3  -3    8.82    0.62
   3  -3   3    8.91    0.64
   3  -3   3    9.07    0.54
  -4   3  -3    7.22    0.49
   4  -3   3    6.05    0.54
   4  -3   3    6.46    0.43
   6   2  -3    5.75    0.57
  -6  -2   3    6.36    0.49
   5   2  -3   19.22    1.38
  -5  -2   3   21.15    1.25
  -5  -2   3   21.14    1.19
   4   2  -3   10.66    0.78
  -4  -2   3   12.04    0.72
  -4  -2   3   10.68    0.69
   3   2  -3    8.13    0.60
  -3  -2   3    8.97    0.57
  -3  -2   3    9.30    0.53
   2   2  -3  109.24    6.86
  -2  -2   3  108.03    5.08
   1   2  -3   54.08    3.89
  -1  -2   3   51.21    2.47
  -1  -2   3   53.12    3.77
   0   2  -3   64.24    4.62
   0  -2   3   57.19    2.95
   0  -2   3   65.07    4.49
   0  -2   3   65.52    5.62
   1  -2   3   87.30    6.51
   1  -2   3   95.66    8.15
  -2   2  -3    4.96    0.35
   2  -2   3    5.05    0.40
  -3   2  -3   31.08    1.96
   3  -2   3   30.90    1.69
   3  -2   3   29.56    2.05
  -4   2  -3   15.24    1.00
   4  -2   3   14.70    0.86
   6   1  -3    1.39    0.28
  -6  -1   3    1.52    0.23
   5   1  -3    1.51    0.23
   5   1  -3    2.05    0.29
  -5  -1   3    2.05    0.27
  -5  -1   3    2.09    0.23
   4   1  -3   62.10    3.72
  -4  -1   3   51.92    3.25
  -4  -1   3   59.45    3.21
   3   1  -3   25.61    1.65
  -3  -1   3   25.14    1.91
   2   1  -3    9.50    0.76
  -2  -1   3   10.35    0.75
  -2  -1   3    8.76    0.89
  -2  -1   3   10.31    0.47
   1   1  -3   16.48    1.26
  -1  -1   3   16.95    0.80
  -1  -1   3   17.15    0.79
   0   1  -3   28.17    2.14
   0  -1   3   29.24    1.37
   0  -1   3   30.27    2.09
   1  -1   3   75.11    4.95
   1  -1   3   61.38    4.81
   1  -1   3   74.21    3.25
   1  -1   3   67.43    6.19
   2  -1   3   39.31    3.57
   2  -1   3   40.19    2.84
  -3   1  -3   16.80    1.09
  -4   1  -3   10.85    0.70
   4  -1   3   10.56    0.60
   4  -1   3    9.04    0.74
  -5   1  -3   35.61    2.30
   5  -1   3   35.76    1.98
   6   0  -3    7.30    0.63
  -6   0   3    7.48    0.54
   5   0  -3    8.85    0.68
   5   0  -3    7.42    0.64
  -5   0   3    9.43    0.62
   4   0  -3   33.43    2.19
  -4   0   3   33.98    1.90
  -4   0   3   32.40    2.53
  -4   0   3   34.91    1.94
   3   0  -3   35.02    2.41
  -3   0   3   37.25    2.08
  -3   0   3   40.34    2.80
  -2   0   3   56.65    2.57
  -2   0   3   55.61    4.03
  -2   0   3   52.16    4.88
   1   0  -3   44.61    3.29
   1   0  -3   48.38    3.46
  -1   0   3   47.05    3.27
  -1   0   3   44.45    3.46
  -1   0   3   48.63    4.19
  -1   0   3   49.73    2.20
   0   0   3   11.99    0.86
  -1   0  -3  197.56   14.02
   1   0   3  189.60    8.95
   1   0   3  186.55    8.95
   1   0   3  194.37   13.24
   2   0   3   34.37    2.92
   2   0   3   31.70    1.54
   2   0   3   31.78    2.28
  -3   0  -3    0.22    0.07
  -4   0  -3    4.42    0.35
   4   0   3    4.64    0.30
   4   0   3    5.02    0.39
  -5   0  -3   10.80    0.74
   5   0   3   11.30    0.64
   5   0   3    9.30    0.88
   5   0   3   11.90    0.81
   6  -1  -3    3.00    0.33
  -6   1   3    2.91    0.29
   5  -1  -3    5.90    0.57
  -5   1   3    6.12    0.49
   4  -1  -3   44.71    2.61
   4  -1  -3   41.19    2.75
  -4   1   3   42.11    2.38
  -4   1   3   43.32    2.42
  -4   1   3   40.70    3.17
   3  -1  -3   41.18    2.93
   3  -1  -3   44.02    2.77
  -3   1   3   44.12    2.57
  -3   1   3   51.22    3.39
  -3   1   3   47.35    2.53
   2  -1  -3   24.10    1.66
   2  -1  -3   25.80    1.82
  -2   1   3   26.30    1.22
  -2   1   3   26.62    1.91
   1  -1  -3   58.98    4.29
  -1   1   3   63.73    4.50
  -1   1   3   59.09    4.25
  -1   1   3   63.05    5.46
  -1   1   3   61.98    2.87
   0   1   3   25.53    1.73
   0   1   3   24.15    1.16
   0   1   3   25.12    1.16
   0   1   3   24.25    1.82
  -1  -1  -3  188.68   14.28
   1   1   3  208.26   17.35
   1   1   3  199.93    9.12
   1   1   3  181.93   14.30
   1   1   3  185.13    9.11
   1   1   3  209.51   17.35
   2   1   3  174.48    7.78
   2   1   3  162.74   14.79
   2   1   3  162.55   14.81
  -3  -1  -3    1.93    0.18
  -4  -1  -3   72.36    4.33
   4   1   3   62.91    5.03
   4   1   3   68.92    3.72
  -5  -1  -3   34.55    2.15
   5   1   3   32.06    1.84
   5   1   3   31.61    2.51
   5   1   3   32.74    2.24
   5   1   3   35.01    1.84
   6   1   3    0.69    0.17
   6  -2  -3    3.21    0.34
  -6   2   3    4.24    0.31
   5  -2  -3    1.53    0.28
  -5   2   3    1.58    0.24
   4  -2  -3    0.17    0.19
   4  -2  -3    0.33    0.15
  -4   2   3    0.42    0.17
  -4   2   3    0.47    0.18
  -4   2   3    0.25    0.14
   3  -2  -3    1.04    0.18
   3  -2  -3    0.72    0.15
  -3   2   3    1.02    0.19
  -3   2   3    0.87    0.17
  -3   2   3    0.61    0.15
   2  -2  -3    8.14    0.60
   2  -2  -3    8.59    0.64
  -2   2   3    9.20    0.69
   1  -2  -3   69.86    4.60
  -1   2   3   56.88    4.55
  -1   2   3   66.42    5.86
  -1   2   3   70.35    4.83
  -1   2   3   65.20    3.09
   0  -2  -3    1.34    0.14
   0   2   3    1.31    0.17
   0   2   3    1.63    0.16
   0   2   3    1.30    0.10
   0   2   3    1.26    0.14
  -1  -2  -3   15.96    1.07
   1   2   3   12.48    0.67
   1   2   3   13.17    1.28
   1   2   3   13.54    1.27
   1   2   3   15.37    0.68
   1   2   3   14.24    1.05
  -2  -2  -3   76.58    5.36
   2   2   3   92.69    7.56
   2   2   3   94.54    3.97
   2   2   3   75.41    6.21
   2   2   3   84.37    7.53
  -3  -2  -3   10.72    0.72
   3   2   3   10.47    0.83
  -4  -2  -3    1.09    0.15
   4   2   3    1.13    0.11
   4   2   3    1.07    0.19
  -5  -2  -3   10.13    0.65
   5   2   3    9.34    0.53
   5   2   3    7.58    0.75
   6   2   3    0.76    0.18
   5  -3  -3    1.07    0.24
  -5   3   3    1.05    0.19
   4  -3  -3   14.49    0.98
   4  -3  -3   14.38    1.00
  -4   3   3   13.55    0.89
   3  -3  -3   38.35    2.35
   3  -3  -3   36.35    2.22
  -3   3   3   34.50    2.69
  -3   3   3   34.26    2.02
  -3   3   3   35.99    2.06
   2  -3  -3    9.88    0.67
   2  -3  -3    9.81    0.70
  -2   3   3   10.03    0.79
  -2   3   3    9.70    0.63
  -2   3   3    9.88    0.63
   1  -3  -3   29.19    1.92
   1  -3  -3   28.83    2.10
  -1   3   3   30.84    2.21
   0  -3  -3   69.41    4.51
   0  -3  -3   66.91    4.09
   0   3   3   64.24    3.03
   0   3   3   66.23    4.73
   0   3   3   55.13    5.74
  -1  -3  -3   39.57    2.43
   1   3   3   38.39    1.80
   1   3   3   32.40    3.39
   1   3   3   41.65    2.81
  -2  -3  -3   32.06    2.06
  -3  -3  -3    1.43    0.18
   3   3   3    1.58    0.15
   3   3   3    1.66    0.21
   3   3   3    1.95    0.18
  -4  -3  -3    7.83    0.55
   4   3   3    8.03    0.49
   4   3   3    6.77    0.63
   4   3   3    7.57    0.45
  -5  -3  -3   36.36    2.40
   5   3   3   37.65    2.05
  -5   4   3    1.66    0.19
   4  -4  -3    0.84    0.21
  -4   4   3    0.86    0.19
   3  -4  -3    4.52    0.41
   3  -4  -3    3.96    0.40
  -3   4   3    3.59    0.34
  -3   4   3    4.64    0.39
  -3   4   3    4.14    0.29
   2  -4  -3   17.57    1.22
  -2   4   3   18.21    1.38
  -2   4   3   17.99    1.05
  -2   4   3   17.80    1.08
   1  -4  -3   33.01    2.36
   1  -4  -3   38.10    2.59
  -1   4   3   36.13    2.72
  -1   4   3   35.24    2.07
  -1   4   3   37.61    2.05
  -1   4   3   38.71    2.04
   0  -4  -3    8.19    0.55
   0  -4  -3    7.27    0.52
   0  -4  -3    6.99    0.52
   0   4   3    5.95    0.42
   0   4   3    6.97    0.47
   0   4   3    6.62    0.46
   0   4   3    7.30    0.57
  -1  -4  -3    5.13    0.41
  -1  -4  -3    5.21    0.40
   1   4   3    5.38    0.32
   1   4   3    5.26    0.43
   1   4   3    4.66    0.35
  -2  -4  -3   25.53    1.68
   2   4   3   28.20    1.47
   2   4   3   24.86    1.93
   2   4   3   22.81    1.45
   2   4   3   27.78    1.44
  -3  -4  -3   20.39    1.35
   3   4   3   20.04    1.18
   3   4   3   19.44    1.14
   3   4   3   21.52    1.55
  -4  -4  -3   22.48    1.52
   4   4   3   24.10    1.34
   4   4   3   21.56    1.75
   4   4   3   23.61    1.28
  -5  -4  -3   23.59    1.56
  -4   5   3   25.13    1.45
  -3   5   3    3.64    0.34
  -3   5   3    3.54    0.27
   2  -5  -3    9.46    0.75
  -2   5   3    9.80    0.61
  -2   5   3   10.70    0.66
   1  -5  -3   16.05    1.08
   1  -5  -3   16.53    1.09
  -1   5   3   14.26    1.21
  -1   5   3   15.10    0.92
  -1   5   3   16.32    0.91
  -1   5   3   15.72    0.95
   0  -5  -3    8.17    0.66
   0  -5  -3    9.25    0.63
   0   5   3    8.48    0.69
   0   5   3    7.92    0.54
   0   5   3    7.94    0.55
   0   5   3    9.11    0.52
  -1  -5  -3    7.71    0.56
  -1  -5  -3    7.17    0.54
   1   5   3    6.51    0.47
   1   5   3    7.57    0.44
   1   5   3    6.77    0.45
   1   5   3    6.39    0.58
  -2  -5  -3   72.10    4.36
  -2  -5  -3   68.23    4.78
   2   5   3   66.79    3.73
   2   5   3   65.39    3.78
   2   5   3   68.25    3.80
  -3  -5  -3   14.17    1.06
   3   5   3   15.11    0.90
   3   5   3   15.48    0.88
   3   5   3   16.07    0.94
   3   5   3   16.33    1.21
  -4  -5  -3   18.13    1.26
   4   5   3   17.92    1.04
   4   5   3   20.00    1.12
  -3   6   3    4.10    0.33
  -3   6   3    4.35    0.28
  -2   6   3    3.06    0.30
  -2   6   3    3.43    0.26
  -1   6   3    8.06    0.56
  -1   6   3    8.37    0.52
   0  -6  -3   12.31    0.89
   0  -6  -3   11.65    0.94
   0   6   3   13.19    0.74
   0   6   3   11.53    0.73
   0   6   3   13.46    0.78
  -1  -6  -3   25.80    1.79
   1   6   3   25.64    2.04
   1   6   3   26.48    1.53
   1   6   3   26.97    1.51
   1   6   3   30.61    1.57
  -2  -6  -3   14.04    1.01
   2   6   3   13.77    0.88
   2   6   3   13.48    0.83
   2   6   3   16.34    0.85
  -3  -6  -3    4.90    0.43
   3   6   3    4.54    0.38
   3   6   3    4.67    0.32
   4   6   3   30.96    1.79
  -2   7   3    0.42    0.07
  -2   7   3    0.54    0.12
  -1   7   3    5.27    0.38
  -1   7   3    4.78    0.33
   0   7   3    5.86    0.43
   0   7   3    5.96    0.39
   1   7   3    9.20    0.52
   1   7   3    7.22    0.56
   2   7   3    1.13    0.13
   2   7   3    1.36    0.19
   3   7   3    0.51    0.14
   4   7   3    3.46    0.30
   0   8   3   17.10    1.01
   0   8   3   17.63    0.99
   1   8   3   12.33    0.73
   1   8   3   11.71    0.69
   2   8   3    0.44    0.12
   2   8   3    0.48    0.08
   3   8   3    1.41    0.16
  -3  -7   4   15.85    0.95
  -2  -7   4    9.95    0.65
  -1  -7   4    7.94    0.55
  -5  -6   4    1.21    0.16
  -4  -6   4   26.99    1.56
  -3  -6   4   21.59    1.26
  -3  -6   4   20.92    1.22
  -2  -6   4    0.26    0.14
  -2  -6   4    0.23    0.16
   1   6  -4   12.02    0.85
  -1  -6   4   12.86    0.76
   0  -6   4   15.26    0.90
   1  -6   4    8.06    0.52
  -5  -5   4    2.90    0.27
  -4  -5   4    2.54    0.25
  -4  -5   4    2.66    0.28
   3   5  -4    5.79    0.44
  -3  -5   4    5.23    0.44
  -3  -5   4    5.49    0.42
  -2  -5   4    7.95    0.54
  -2  -5   4    8.31    0.57
  -1  -5   4    0.78    0.15
   0  -5   4   14.37    0.85
  -1   5  -4    6.86    0.50
   1  -5   4    6.99    0.46
  -2   5  -4    5.47    0.43
   2  -5   4    6.22    0.41
  -6  -4   4    5.56    0.39
  -5  -4   4    2.96    0.29
   4   4  -4    0.71    0.16
  -4  -4   4    0.72    0.19
  -4  -4   4    0.65    0.19
  -3  -4   4    0.82    0.18
  -3  -4   4    0.88    0.18
  -2  -4   4    0.58    0.15
  -2  -4   4    0.60    0.13
  -1  -4   4   15.46    0.89
   0  -4   4    3.66    0.41
   0  -4   4    3.99    0.28
   1  -4   4   20.90    1.46
   1  -4   4   20.43    1.17
   2  -4   4    2.70    0.25
   3  -4   4    3.90    0.31
   6   3  -4    6.77    0.59
  -6  -3   4    7.02    0.48
  -5  -3   4    1.39    0.21
  -5  -3   4    1.55    0.23
   4   3  -4    7.12    0.56
  -4  -3   4    6.87    0.52
  -4  -3   4    8.16    0.54
  -3  -3   4   14.47    0.89
  -3  -3   4   15.10    0.88
  -2  -3   4    7.41    0.44
  -2  -3   4    6.68    0.46
  -1  -3   4   42.57    2.05
  -1  -3   4   44.54    2.91
   0  -3   4    5.88    0.45
   0  -3   4    4.68    0.43
   1  -3   4   34.66    2.15
   1  -3   4   31.19    1.75
   1  -3   4   29.82    2.30
   2  -3   4    3.19    0.24
   2  -3   4    3.00    0.35
   3  -3   4    4.79    0.32
   3  -3   4    4.04    0.44
  -4   3  -4   26.21    1.71
   4  -3   4   26.38    1.48
   6   2  -4    0.47    0.23
  -6  -2   4    0.46    0.15
  -5  -2   4   21.58    1.26
  -5  -2   4   20.45    1.23
  -4  -2   4   30.74    1.71
  -4  -2   4   29.22    1.73
  -3  -2   4    4.68    0.35
  -3  -2   4    4.76    0.34
  -2  -2   4    3.30    0.18
  -1  -2   4   36.41    1.71
   0  -2   4   16.33    0.75
   0  -2   4   14.62    1.14
   1  -2   4    9.41    0.72
   2  -2   4   15.52    1.24
   2  -2   4   18.29    1.18
   3  -2   4   18.43    1.30
   3  -2   4   18.75    1.05
  -4   2  -4   26.64    1.86
   4  -2   4   30.21    1.61
   4  -2   4   29.53    1.97
   5  -2   4   23.09    1.30
   6   1  -4    3.46    0.37
  -6  -1   4    3.45    0.33
   5   1  -4   11.36    0.82
  -5  -1   4   10.74    0.73
  -5  -1   4   10.96    0.72
  -4  -1   4   13.22    0.80
  -4  -1   4   12.08    0.79
  -3  -1   4    0.99    0.15
  -3  -1   4    1.11    0.16
  -2  -1   4   26.95    1.27
  -1  -1   4   16.72    0.77
  -1  -1   4   15.79    0.78
   1  -1   4   66.44    3.11
   3  -1   4   10.64    0.77
   3  -1   4   10.08    0.59
  -4   1  -4   73.88    4.74
   4  -1   4   76.46    4.92
   4  -1   4   72.90    4.07
   5  -1   4    3.57    0.27
   5  -1   4    3.62    0.41
   6   0  -4    0.12    0.20
  -6   0   4    0.25    0.13
   5   0  -4    5.67    0.53
  -5   0   4    5.20    0.45
  -5   0   4    5.62    0.46
   4   0  -4   40.04    2.69
   4   0  -4   44.47    2.56
  -4   0   4   41.60    2.33
  -4   0   4   38.11    3.09
  -4   0   4   43.38    2.36
  -3   0   4    5.54    0.39
  -3   0   4    5.42    0.39
  -3   0   4    5.49    0.48
  -2   0   4   11.26    0.55
  -2   0   4   11.18    0.86
   1   0  -4   21.21    1.53
  -1   0   4   20.71    1.60
  -1   0   4   22.92    1.02
   0   0   4   11.03    0.81
  -1   0  -4   74.08    5.50
   1   0   4   76.52    5.22
   2   0   4   12.21    0.55
   2   0   4   10.70    0.81
   2   0   4   10.52    0.54
   3   0   4    8.73    0.65
   4   0   4   26.89    1.52
   4   0   4   28.06    1.87
  -5   0  -4    2.83    0.28
   5   0   4    3.44    0.37
   5   0   4    3.80    0.26
  -6   1   4    2.51    0.24
   5  -1  -4   13.61    0.97
  -5   1   4   14.08    0.87
   4  -1  -4    7.01    0.57
   4  -1  -4    8.20    0.59
  -4   1   4    6.78    0.53
  -4   1   4    8.14    0.59
   3  -1  -4    3.85    0.37
  -3   1   4    4.36    0.38
  -3   1   4    4.50    0.40
  -3   1   4    4.41    0.34
   2  -1  -4   11.01    0.86
  -2   1   4   12.94    0.92
  -2   1   4   11.94    0.59
   1  -1  -4    9.99    0.73
  -1   1   4   10.27    0.74
  -1   1   4    9.82    0.76
  -1   1   4   10.12    0.49
   0   1   4  210.50   16.20
   0   1   4  223.40   10.33
   0   1   4  231.12   15.29
  -1  -1  -4   27.05    2.17
   1   1   4   29.06    2.17
   1   1   4   27.95    1.38
   1   1   4   33.55    2.08
   1   1   4   30.25    1.38
   2   1   4   15.87    1.17
   2   1   4   16.14    0.75
   2   1   4   14.40    0.74
   2   1   4   16.29    1.12
   3   1   4   53.97    2.48
   3   1   4   44.76    3.64
   3   1   4   50.64    3.46
   3   1   4   60.16    3.88
   4   1   4    8.13    0.49
   4   1   4    8.52    0.68
   4   1   4    7.86    0.63
  -5  -1  -4    3.69    0.31
   5   1   4    3.95    0.27
   5   1   4    3.87    0.39
   6   1   4    9.24    0.71
   5  -2  -4    1.83    0.27
  -5   2   4    1.81    0.22
   4  -2  -4    3.93    0.39
   4  -2  -4    4.65    0.44
  -4   2   4    4.43    0.39
  -4   2   4    4.05    0.37
   3  -2  -4   13.61    0.89
  -3   2   4   13.20    0.82
  -3   2   4   12.75    1.04
  -3   2   4   13.56    0.85
   2  -2  -4    9.32    0.71
  -2   2   4    9.99    0.75
  -2   2   4    9.38    0.60
  -2   2   4    9.08    0.59
   1  -2  -4   72.38    5.03
  -1   2   4   71.86    3.38
  -1   2   4   69.37    5.28
  -1   2   4   74.01    4.99
   0  -2  -4   58.90    4.13
   0   2   4   56.83    4.33
   0   2   4   61.79    2.77
   0   2   4   58.46    4.10
   1   2   4   99.02    4.73
   1   2   4  103.47    4.74
   1   2   4  101.64    7.43
   2   2   4   39.32    1.92
   2   2   4   41.73    3.00
   3   2   4    1.08    0.16
   3   2   4    1.03    0.12
   4   2   4   12.53    0.74
   4   2   4   13.52    1.03
  -5  -2  -4    7.80    0.60
   5   2   4    8.94    0.51
   5   2   4    8.96    0.68
   6   2   4   17.06    1.20
   5  -3  -4    1.10    0.20
  -5   3   4    1.19    0.17
   4  -3  -4    8.67    0.60
  -4   3   4    7.02    0.51
  -4   3   4    7.32    0.53
   3  -3  -4   23.28    1.70
   3  -3  -4   26.01    1.62
  -3   3   4   26.76    1.49
  -3   3   4   26.50    1.50
  -2   3   4    4.72    0.38
  -2   3   4    5.46    0.46
  -2   3   4    5.11    0.45
   1  -3  -4   23.38    1.62
  -1   3   4   22.52    1.30
  -1   3   4   22.92    1.70
  -1   3   4   22.20    1.28
  -1   3   4   22.01    1.29
   0  -3  -4   27.25    2.08
   0   3   4   31.10    2.18
   0   3   4   29.46    2.07
   0   3   4   29.31    1.40
   1   3   4    8.71    0.70
   1   3   4    9.22    0.46
   2   3   4    9.46    0.59
   2   3   4    9.63    0.52
   2   3   4   11.16    0.79
   3   3   4   36.72    2.83
   3   3   4   37.49    2.14
   3   3   4   39.71    2.10
  -4  -3  -4    9.03    0.65
   4   3   4    9.04    0.76
   4   3   4    9.33    0.54
  -5  -3  -4    0.95    0.16
   5   3   4    1.15    0.13
   6   3   4    7.01    0.56
  -4   4   4    2.68    0.26
  -3   4   4    4.82    0.39
  -3   4   4    4.30    0.40
   2  -4  -4   42.48    2.65
  -2   4   4   37.14    3.02
  -2   4   4   41.40    2.28
  -2   4   4   41.03    2.30
  -2   4   4   40.87    2.27
   1  -4  -4    0.96    0.16
  -1   4   4    0.97    0.15
  -1   4   4    0.82    0.21
  -1   4   4    1.08    0.16
  -1   4   4    0.90    0.11
   0  -4  -4    1.82    0.22
   0   4   4    2.09    0.23
   0   4   4    1.86    0.16
   0   4   4    2.32    0.23
   0   4   4    2.03    0.22
   0   4   4    1.79    0.19
  -1  -4  -4  109.53    6.80
   1   4   4   99.62    5.31
   1   4   4   86.35    7.13
   1   4   4   98.28    5.37
   1   4   4   91.72    5.37
   2   4   4   30.00    2.29
   2   4   4   32.27    1.70
   2   4   4   31.44    1.72
   2   4   4   28.42    1.73
  -3  -4  -4   11.70    0.86
   3   4   4   13.25    0.76
   3   4   4   13.96    0.74
   3   4   4   11.40    0.98
  -4  -4  -4   84.56    5.44
   4   4   4   87.78    4.74
   4   4   4   83.70    4.67
   5   4   4    7.02    0.43
   6   4   4    3.12    0.33
  -4   5   4    5.77    0.38
  -3   5   4    5.98    0.43
  -2   5   4   12.98    0.78
  -2   5   4   12.64    0.74
  -2   5   4   11.80    0.75
   1  -5  -4    4.85    0.44
   1  -5  -4    4.51    0.44
   1  -5  -4    5.93    0.46
  -1   5   4    4.80    0.34
  -1   5   4    5.34    0.42
  -1   5   4    5.15    0.39
   0  -5  -4   39.39    2.62
   0  -5  -4   42.32    2.87
   0   5   4   40.89    2.28
   0   5   4   42.00    2.26
   0   5   4   33.95    3.00
   0   5   4   43.89    2.26
  -1  -5  -4    8.98    0.73
  -1  -5  -4    7.77    0.67
   1   5   4   10.28    0.57
   1   5   4   10.47    0.59
   1   5   4    9.26    0.59
   1   5   4    9.44    0.75
  -2  -5  -4    6.71    0.59
  -2  -5  -4    7.41    0.57
   2   5   4    8.19    0.50
   2   5   4    7.30    0.62
   2   5   4    7.80    0.51
   2   5   4    8.25    0.47
  -3  -5  -4  103.66    6.88
  -3  -5  -4  108.69    7.58
   3   5   4  112.19    5.92
   3   5   4  108.16    6.00
  -4  -5  -4    1.54    0.21
   4   5   4    1.70    0.20
   4   5   4    1.51    0.15
   6   5   4    2.36    0.26
  -3   6   4    8.58    0.52
  -2   6   4    2.62    0.21
  -2   6   4    3.30    0.27
  -1   6   4    1.17    0.18
  -1   6   4    1.23    0.13
   0   6   4   10.00    0.65
   0   6   4   11.89    0.65
   0   6   4   10.22    0.68
  -1  -6  -4    1.82    0.25
   1   6   4    2.35    0.20
   1   6   4    2.19    0.20
   1   6   4    2.01    0.23
  -2  -6  -4    2.78    0.31
   2   6   4    3.13    0.24
   2   6   4    2.57    0.24
   2   6   4    3.16    0.28
   3   6   4    9.76    0.63
   3   6   4    9.98    0.58
   4   6   4    5.16    0.38
  -1   7   4   30.75    1.74
  -1   7   4   30.68    1.72
   0   7   4    0.10    0.07
   0   7   4    0.29    0.11
   1   7   4    0.55    0.10
   1   7   4    0.68    0.14
   2   7   4    9.30    0.61
   2   7   4    9.68    0.58
   3   7   4    2.57    0.24
   4   7   4    8.10    0.51
   1   8   4    6.05    0.39
   1   8   4    5.90    0.37
   2   8   4    1.11    0.13
  -1  -7   5    3.90    0.30
   0  -7   5    3.78    0.30
  -3  -6   5    1.88    0.22
  -3  -6   5    1.88    0.20
  -2  -6   5   15.11    0.89
  -2  -6   5   14.65    0.89
  -1  -6   5   25.91    1.53
  -1  -6   5   27.06    1.51
   0  -6   5    5.58    0.41
   1  -6   5    6.13    0.43
  -4  -5   5    7.34    0.50
  -4  -5   5    7.79    0.54
  -3  -5   5    5.67    0.41
  -3  -5   5    5.81    0.45
  -2  -5   5    0.47    0.18
  -2  -5   5    0.73    0.16
  -1  -5   5   12.15    0.76
  -1  -5   5   12.61    0.77
   0  -5   5   13.60    0.81
   1  -5   5   14.34    0.84
   1  -5   5   13.55    1.11
   2  -5   5    9.34    0.59
   2  -5   5    9.42    0.82
   3  -5   5    8.04    0.50
  -5  -4   5    1.60    0.18
  -4  -4   5    0.70    0.16
  -4  -4   5    0.68    0.22
  -3  -4   5    3.04    0.30
  -3  -4   5    3.49    0.30
  -2  -4   5    4.53    0.37
  -1  -4   5   11.23    0.67
   0  -4   5   30.72    1.86
   0  -4   5   37.40    2.32
   1  -4   5    1.75    0.19
   1  -4   5    1.73    0.35
   2  -4   5   26.31    1.46
   2  -4   5   24.75    1.81
   3  -4   5    1.69    0.19
   3  -4   5    1.46    0.31
   4  -4   5    0.58    0.12
  -5  -3   5   16.86    1.03
  -5  -3   5   18.33    1.06
  -4  -3   5    8.70    0.59
  -4  -3   5    9.60    0.65
  -3  -3   5    8.76    0.58
  -2  -3   5   44.23    2.02
  -2  -3   5   41.42    2.37
  -1  -3   5    1.78    0.16
  -1  -3   5    1.73    0.33
  -1  -3   5    1.77    0.13
  -1  -3   5    2.11    0.12
   0  -3   5   53.94    2.15
   0  -3   5   50.11    2.87
   0  -3   5   52.48    2.48
   0  -3   5   54.89    3.53
   1  -3   5    3.87    0.41
   2  -3   5    6.41    0.59
   2  -3   5    6.37    0.41
   3  -3   5   31.62    2.18
   3  -3   5   31.68    1.77
   4  -3   5   21.74    1.24
  -5  -2   5    7.21    0.56
  -5  -2   5    6.72    0.47
  -4  -2   5    5.10    0.39
  -4  -2   5    5.00    0.41
  -3  -2   5    3.63    0.32
  -2  -2   5    4.32    0.21
  -2  -2   5    4.37    0.23
  -2  -2   5    4.11    0.28
  -1  -2   5    3.98    0.18
  -1  -2   5    4.02    0.25
  -1  -2   5    4.16    0.21
  -1  -2   5    4.04    0.19
  -1  -2   5    3.52    0.41
   0  -2   5   27.83    1.16
   0  -2   5   28.80    1.56
   0  -2   5   29.59    1.55
   0  -2   5   28.77    1.35
   0  -2   5   26.62    1.93
   1  -2   5   -0.04    0.06
   1  -2   5    0.27    0.06
   1  -2   5    0.44    0.05
   1  -2   5    0.42    0.17
   2  -2   5    3.62    0.18
   2  -2   5    3.38    0.24
   2  -2   5    3.33    0.37
   2  -2   5    3.34    0.18
   3  -2   5   99.30    6.46
   3  -2   5   96.77    5.35
   4  -2   5    0.94    0.16
   4  -2   5    1.08    0.25
   5  -2   5    4.19    0.31
   5   1  -5    9.50    0.71
  -5  -1   5    8.99    0.59
  -5  -1   5    9.03    0.67
  -4  -1   5    0.91    0.17
  -4  -1   5    0.52    0.25
  -3  -1   5   18.70    1.09
  -2  -1   5    6.68    0.30
  -2  -1   5    6.54    0.28
  -2  -1   5    6.50    0.33
  -2  -1   5    6.46    0.29
  -2  -1   5    6.52    0.39
  -1  -1   5    6.77    0.35
  -1  -1   5    6.62    0.29
  -1  -1   5    7.51    0.34
  -1  -1   5    6.58    0.39
  -1  -1   5    7.09    0.39
  -1  -1   5    6.86    0.29
   1  -1   5   79.60    3.42
   1  -1   5   89.80    3.98
   1  -1   5   87.38    3.42
   1  -1   5   83.55    5.59
   2  -1   5   24.44    1.70
   2  -1   5   24.84    1.02
   2  -1   5   24.92    1.36
   2  -1   5   24.86    1.02
   3  -1   5    7.86    0.62
   3  -1   5    7.65    0.46
   4  -1   5   40.74    2.34
   4  -1   5   40.99    2.86
   4  -1   5   45.22    2.34
   5  -1   5    0.83    0.23
   5  -1   5    0.94    0.14
   5   0  -5   16.95    1.09
  -5   0   5   15.83    1.00
  -5   0   5   15.87    0.96
   4   0  -5    3.67    0.37
  -4   0   5    3.64    0.32
  -4   0   5    3.04    0.36
  -3   0   5   26.35    1.50
  -3   0   5   26.05    1.97
  -2   0   5    9.69    0.43
  -2   0   5    9.76    0.58
  -2   0   5   10.08    0.78
  -2   0   5   10.12    0.42
  -2   0   5   10.03    0.49
  -1   0   5   85.28    3.44
  -1   0   5   89.77    3.99
  -1   0   5   81.40    6.27
   0   0   5   13.59    0.99
   1   0   5   21.36    1.53
   2   0   5   80.89    3.34
   2   0   5   78.83    5.74
   2   0   5   83.15    5.44
   2   0   5   88.54    4.48
   2   0   5   79.46    3.87
   2   0   5   85.76    4.48
   2   0   5   82.02    3.33
   3   0   5    6.49    0.53
   4   0   5    2.55    0.33
   4   0   5    3.32    0.33
   4   0   5    2.59    0.25
   5   0   5   15.64    1.15
   5   0   5   16.10    0.91
   6   0   5    3.96    0.39
   5  -1  -5    4.16    0.41
  -5   1   5    3.88    0.31
  -5   1   5    3.92    0.33
   4  -1  -5    3.07    0.32
  -4   1   5    2.42    0.26
  -4   1   5    2.75    0.36
   3  -1  -5   -0.11    0.14
  -3   1   5    0.22    0.12
  -3   1   5    0.23    0.13
  -3   1   5   -0.30    0.22
  -2   1   5   46.35    2.16
  -2   1   5   47.07    2.51
  -2   1   5   45.28    1.85
  -2   1   5   43.85    3.37
   1  -1  -5    2.07    0.20
  -1   1   5    1.88    0.19
  -1   1   5    2.37    0.16
  -1   1   5    2.34    0.15
  -1   1   5    1.92    0.10
  -1   1   5    2.20    0.11
  -1   1   5    2.10    0.22
   0   1   5   44.51    1.77
   0   1   5   44.90    2.06
   0   1   5   41.77    1.77
   0   1   5   45.17    3.09
   1   1   5   85.65    4.02
   1   1   5   88.63    3.47
   1   1   5   83.53    5.99
   1   1   5   85.13    6.31
   1   1   5   92.60    4.03
   1   1   5   81.76    3.46
   2   1   5   11.77    0.58
   2   1   5   12.03    0.50
   2   1   5   13.99    0.90
   2   1   5   12.92    0.60
   2   1   5   11.24    0.86
   2   1   5   11.48    0.92
   2   1   5   11.72    0.50
   2   1   5   11.33    0.67
   2   1   5   11.87    0.51
   2   1   5   13.21    0.68
   3   1   5    0.56    0.13
   3   1   5    0.44    0.11
   3   1   5    0.78    0.17
   4   1   5   21.26    1.13
   4   1   5   20.41    1.55
   4   1   5   18.51    1.41
   5   1   5   43.53    2.48
   5   1   5   46.73    3.03
   6   1   5    3.91    0.39
   4  -2  -5    8.43    0.62
  -4   2   5    8.55    0.65
  -4   2   5    7.97    0.54
  -3   2   5    0.93    0.28
  -3   2   5    0.94    0.16
   2  -2  -5   27.29    2.05
  -2   2   5   30.52    2.15
  -2   2   5   28.37    1.63
   1  -2  -5   54.89    3.85
  -1   2   5   54.12    2.21
  -1   2   5   55.69    4.04
  -1   2   5   51.31    2.22
  -1   2   5   57.04    3.83
  -1   2   5   56.69    2.23
  -1   2   5   54.24    2.58
  -1   2   5   54.44    3.00
   0  -2  -5    1.26    0.15
   0   2   5    1.20    0.11
   0   2   5    0.99    0.12
   0   2   5    1.00    0.07
   0   2   5    0.92    0.06
   0   2   5    1.07    0.09
   0   2   5    1.26    0.16
   0   2   5    1.02    0.06
   1   2   5    5.51    0.24
   1   2   5    5.55    0.23
   1   2   5    5.61    0.27
   1   2   5    5.50    0.29
   1   2   5    5.86    0.46
   1   2   5    5.11    0.43
   1   2   5    5.07    0.32
   1   2   5    5.57    0.33
   1   2   5    5.45    0.24
   2   2   5    7.25    0.31
   2   2   5    7.27    0.56
   2   2   5    7.02    0.32
   2   2   5    7.05    0.37
   2   2   5    7.18    0.30
   2   2   5    7.85    0.57
   2   2   5    7.04    0.43
   2   2   5    6.39    0.53
   3   2   5    0.44    0.08
   3   2   5    0.42    0.15
   3   2   5    0.17    0.10
   3   2   5    0.26    0.11
   3   2   5    0.48    0.12
   4   2   5   19.87    1.09
   4   2   5   17.82    1.48
   4   2   5   20.42    1.36
   5   2   5   17.00    1.02
   5   2   5   19.34    1.28
   6   2   5    0.16    0.16
  -4   3   5    0.90    0.21
  -4   3   5    0.88    0.15
  -3   3   5   17.34    1.06
  -3   3   5   16.22    0.99
  -2   3   5   32.87    2.55
  -2   3   5   35.72    1.95
   1  -3  -5    6.87    0.55
  -1   3   5    7.39    0.57
  -1   3   5    6.29    0.54
  -1   3   5    7.17    0.39
   0  -3  -5    5.73    0.48
   0   3   5    6.55    0.49
   0   3   5    5.80    0.37
   0   3   5    6.21    0.39
   0   3   5    6.00    0.49
   0   3   5    5.72    0.33
  -1  -3  -5    9.32    0.69
   1   3   5    8.36    0.47
   1   3   5    8.89    0.54
   1   3   5    9.01    0.70
   1   3   5    8.98    0.38
   1   3   5    9.18    0.54
   1   3   5    9.75    0.71
   1   3   5    9.08    0.40
   2   3   5   32.04    1.56
   2   3   5   34.71    2.41
   2   3   5   30.25    2.30
   3   3   5   40.19    2.28
   3   3   5   42.21    2.92
   3   3   5   42.00    3.08
   3   3   5   41.14    2.77
   4   3   5    2.97    0.34
   4   3   5    3.07    0.26
   5   3   5    1.99    0.18
   5   3   5    2.06    0.28
   6   3   5   14.96    1.06
  -4   4   5    4.54    0.31
  -3   4   5    0.81    0.21
  -3   4   5    0.47    0.13
  -2   4   5    7.75    0.53
  -2   4   5    9.25    0.64
   1  -4  -5    7.28    0.59
  -1   4   5    6.77    0.60
  -1   4   5    7.65    0.60
  -1   4   5    6.96    0.47
  -1   4   5    7.22    0.45
   0  -4  -5    7.01    0.58
   0   4   5    7.03    0.45
   0   4   5    6.80    0.47
   0   4   5    7.95    0.60
   0   4   5    7.87    0.59
   0   4   5    6.96    0.56
  -1  -4  -5    0.97    0.15
   1   4   5    0.85    0.11
   1   4   5    1.04    0.15
   1   4   5    0.88    0.16
   1   4   5    0.92    0.20
   2   4   5   85.61    5.69
   2   4   5   75.97    4.23
   2   4   5   77.84    4.29
   2   4   5   71.78    5.39
   2   4   5   74.40    4.28
   3   4   5    5.56    0.50
   3   4   5    6.12    0.41
   3   4   5    5.78    0.40
   3   4   5    6.08    0.49
   4   4   5    0.57    0.18
   4   4   5    0.60    0.13
   5   4   5    2.35    0.28
   5   4   5    2.23    0.21
   6   4   5    0.11    0.13
  -3   5   5    4.90    0.33
  -2   5   5    2.95    0.27
  -2   5   5    3.37    0.27
  -1   5   5   45.59    2.56
  -1   5   5   45.73    2.57
  -1   5   5   46.07    2.56
   0   5   5    6.86    0.51
   0   5   5    5.85    0.40
   0   5   5    6.50    0.43
   1   5   5   29.38    1.65
   1   5   5   29.14    1.65
   1   5   5   28.59    1.64
   2   5   5   88.68    5.19
   2   5   5   91.21    5.25
   2   5   5  104.32    5.26
   3   5   5   24.63    1.42
   3   5   5   24.60    1.39
   4   5   5    8.55    0.54
   4   5   5    9.44    0.68
   5   5   5    4.59    0.40
  -2   6   5    6.19    0.39
  -1   6   5    0.65    0.09
  -1   6   5    0.50    0.13
  -1   6   5    0.74    0.13
   0   6   5    3.32    0.25
   0   6   5    3.16    0.26
   0   6   5    3.10    0.26
   1   6   5   11.47    0.72
   1   6   5   12.09    0.71
   1   6   5   12.20    0.72
   2   6   5    1.22    0.14
   2   6   5    1.46    0.17
   2   6   5    1.20    0.16
   3   6   5    1.74    0.18
   3   6   5    1.54    0.16
   0   7   5    0.52    0.08
   0   7   5    0.52    0.10
   1   7   5    0.38    0.08
   1   7   5    0.34    0.10
   2   7   5    2.28    0.20
   3   7   5   13.16    0.77
  -2  -6   6    2.35    0.22
  -1  -6   6    3.45    0.29
   0  -6   6    5.70    0.41
   1  -6   6    1.06    0.15
  -4  -5   6    0.57    0.18
  -3  -5   6    9.05    0.61
  -2  -5   6   10.36    0.67
  -1  -5   6   11.47    0.70
  -1  -5   6   11.07    0.50
   0  -5   6   16.93    0.99
   0  -5   6   16.78    0.73
   1  -5   6    1.22    0.18
   2  -5   6    3.68    0.32
   3  -5   6    2.86    0.24
  -4  -4   6    0.87    0.23
  -3  -4   6    7.45    0.54
  -2  -4   6   18.92    0.78
  -2  -4   6   18.07    1.09
  -1  -4   6    5.89    0.26
  -1  -4   6    4.72    0.40
   0  -4   6    4.51    0.24
   0  -4   6    4.26    0.22
   0  -4   6    5.13    0.57
   0  -4   6    3.51    0.33
   1  -4   6   13.15    0.57
   1  -4   6   12.02    0.78
   1  -4   6   14.86    1.08
   2  -4   6    4.13    0.22
   2  -4   6    4.38    0.24
   2  -4   6    4.97    0.53
   2  -4   6    4.20    0.37
   3  -4   6   17.02    1.31
   3  -4   6   18.65    1.04
  -4  -3   6    9.59    0.68
  -3  -3   6    4.39    0.36
  -2  -3   6    9.86    0.42
  -2  -3   6    9.79    0.48
  -2  -3   6    8.91    0.60
  -1  -3   6   14.76    0.84
  -1  -3   6   15.03    0.63
  -1  -3   6   14.82    0.72
   0  -3   6    9.10    0.40
   0  -3   6    9.52    0.80
   0  -3   6    8.97    0.53
   0  -3   6    9.07    0.45
   1  -3   6   33.21    2.35
   1  -3   6   35.10    1.40
   1  -3   6   33.63    1.87
   2  -3   6    3.13    0.18
   2  -3   6    3.95    0.45
   2  -3   6    3.24    0.18
   2  -3   6    3.07    0.28
   3  -3   6    4.75    0.53
   3  -3   6    4.11    0.34
   4  -3   6    2.30    0.21
   4  -3   6    2.55    0.34
   5   2  -6    2.88    0.30
  -5  -2   6    3.13    0.30
  -4  -2   6   10.33    0.73
  -3  -2   6   12.88    0.83
  -3  -2   6   13.89    0.56
  -2  -2   6    2.08    0.14
  -2  -2   6    2.07    0.11
  -2  -2   6    2.45    0.20
  -1  -2   6   31.70    1.67
  -1  -2   6   28.85    2.09
  -1  -2   6   30.49    1.24
  -1  -2   6   30.16    1.43
   0  -2   6   29.35    1.24
   0  -2   6   25.40    1.25
   0  -2   6   24.35    1.82
   0  -2   6   26.75    1.44
   0  -2   6   25.05    1.45
   1  -2   6   23.11    1.73
   1  -2   6   24.99    1.02
   1  -2   6   25.56    1.37
   1  -2   6   25.43    1.01
   2  -2   6  101.25    4.07
   2  -2   6   99.90    4.07
   2  -2   6  101.14    5.47
   2  -2   6  100.51    6.65
   3  -2   6   22.41    0.98
   3  -2   6   23.26    1.32
   3  -2   6   23.23    0.98
   3  -2   6   25.25    1.67
   4  -2   6   21.62    1.56
   4  -2   6   22.25    1.25
   5  -2   6    1.97    0.17
   5   1  -6    1.17    0.20
  -5  -1   6    0.89    0.24
   4   1  -6    9.06    0.69
  -4  -1   6   10.49    0.72
  -3  -1   6    5.72    0.49
  -3  -1   6    6.56    0.28
  -2  -1   6    8.16    0.50
  -2  -1   6    8.24    0.42
  -2  -1   6    8.28    0.35
  -2  -1   6    8.38    0.38
  -1  -1   6   18.48    0.94
  -1  -1   6   19.55    1.09
  -1  -1   6   20.10    0.93
  -1  -1   6   20.10    1.08
   0  -1   6   58.46    3.88
   1  -1   6   76.45    5.16
   1  -1   6   79.71    3.65
   2  -1   6   74.71    2.95
   2  -1   6   72.35    4.85
   2  -1   6   72.59    3.97
   2  -1   6   72.75    2.95
   3  -1   6   33.81    1.34
   3  -1   6   31.06    1.80
   3  -1   6   34.49    1.34
   3  -1   6   31.00    2.23
   4  -1   6   14.34    0.86
   4  -1   6   15.38    1.10
   5  -1   6    3.71    0.30
   5  -1   6    4.11    0.43
  -5   0   6    1.25    0.23
   4   0  -6   14.76    0.98
  -4   0   6   14.67    0.97
  -3   0   6    0.24    0.04
  -3   0   6    0.11    0.22
  -2   0   6   11.51    0.47
  -2   0   6   11.80    0.49
  -2   0   6   11.18    0.56
  -2   0   6   11.13    0.66
  -1   0   6    6.59    0.31
  -1   0   6    5.81    0.32
  -1   0   6    6.48    0.37
  -1   0   6    6.21    0.37
   1   0   6   10.04    0.73
   1   0   6    8.78    0.71
   2   0   6    5.85    0.53
   2   0   6    5.57    0.30
   2   0   6    6.38    0.50
   2   0   6    6.02    0.26
   2   0   6    6.31    0.36
   2   0   6    6.36    0.26
   2   0   6    5.96    0.36
   3   0   6    9.19    0.39
   3   0   6    9.71    0.72
   3   0   6    8.50    0.54
   3   0   6    7.83    0.70
   3   0   6    9.54    0.39
   4   0   6   17.49    0.97
   4   0   6   17.96    1.24
   4   0   6   17.44    0.73
   4   0   6   15.66    0.72
   5   0   6   11.53    0.72
   5   0   6   13.36    0.93
  -4   1   6    0.96    0.31
  -3   1   6   23.01    1.41
  -3   1   6   24.00    0.97
  -2   1   6   28.41    2.09
  -2   1   6   27.78    1.34
  -2   1   6   28.23    1.56
  -2   1   6   27.40    1.14
  -1   1   6   24.47    1.39
  -1   1   6   25.46    1.02
  -1   1   6   25.90    1.40
  -1   1   6   25.23    1.04
  -1   1   6   25.16    1.21
  -1   1   6   25.83    1.02
   0  -1  -6   14.24    1.07
   0   1   6   15.28    1.09
   1   1   6    2.57    0.28
   2   1   6    7.37    0.59
   2   1   6    7.47    0.32
   2   1   6    7.78    0.31
   2   1   6    7.80    0.44
   2   1   6    7.17    0.36
   2   1   6    7.51    0.38
   2   1   6    6.71    0.59
   2   1   6    6.86    0.42
   3   1   6   58.08    2.35
   3   1   6   59.31    3.18
   3   1   6   57.95    3.86
   3   1   6   57.02    4.28
   3   1   6   57.74    2.36
   4   1   6   21.98    0.96
   4   1   6   23.00    0.95
   4   1   6   22.72    1.28
   4   1   6   24.04    1.61
   5   1   6    1.04    0.14
   5   1   6    1.62    0.26
   6   1   6   15.27    1.07
  -4   2   6    4.45    0.39
  -3   2   6   56.08    3.14
  -2   2   6    9.53    0.53
  -2   2   6   10.51    0.43
  -2   2   6    8.59    0.71
  -2   2   6   10.84    0.43
   1  -2  -6    1.31    0.16
  -1   2   6    1.29    0.08
  -1   2   6    1.21    0.12
  -1   2   6    1.12    0.14
  -1   2   6    1.40    0.07
  -1   2   6    1.22    0.16
   0  -2  -6   49.75    3.70
   0   2   6   53.55    2.11
   0   2   6   54.81    2.11
   0   2   6   49.91    3.85
   0   2   6   53.51    2.47
   0   2   6   55.29    2.87
   0   2   6   50.19    3.68
   1   2   6    0.50    0.13
   1   2   6    0.41    0.07
   1   2   6    0.16    0.06
   1   2   6    0.34    0.03
   1   2   6    0.32    0.09
   1   2   6    0.33    0.04
   1   2   6    0.35    0.06
   2   2   6   14.87    0.72
   2   2   6   13.43    1.10
   2   2   6   14.80    0.62
   2   2   6   13.97    1.04
   2   2   6   14.71    1.09
   2   2   6   15.84    0.61
   2   2   6   14.65    0.84
   2   2   6   14.69    0.60
   3   2   6    9.41    0.50
   3   2   6   10.44    0.61
   3   2   6    9.82    0.42
   3   2   6    8.93    0.76
   3   2   6   10.37    0.43
   3   2   6    9.60    0.59
   3   2   6   10.02    0.75
   4   2   6    5.13    0.48
   4   2   6    4.83    0.24
   4   2   6    5.32    0.36
   4   2   6    5.29    0.26
   5   2   6    4.39    0.44
   5   2   6    4.20    0.31
   6   2   6    5.17    0.45
  -3   3   6   13.35    0.89
  -2   3   6    2.70    0.15
  -2   3   6    2.24    0.35
   1  -3  -6    3.01    0.33
  -1   3   6    4.08    0.17
  -1   3   6    3.89    0.18
  -1   3   6    2.95    0.35
  -1   3   6    3.75    0.24
   0  -3  -6    7.47    0.56
   0   3   6    7.10    0.31
   0   3   6    6.87    0.56
   0   3   6    6.33    0.38
   0   3   6    7.12    0.30
   0   3   6    7.32    0.45
  -1  -3  -6   10.39    0.75
   1   3   6    9.53    0.79
   1   3   6   10.43    0.60
   1   3   6    9.55    0.51
   1   3   6    9.25    0.76
   1   3   6    9.94    0.42
   1   3   6   10.03    0.41
   2   3   6    2.22    0.23
   2   3   6    2.91    0.13
   2   3   6    2.30    0.18
   2   3   6    2.99    0.24
   2   3   6    2.40    0.14
   3   3   6    7.13    0.29
   3   3   6    5.81    0.44
   3   3   6    7.01    0.31
   3   3   6    6.24    0.37
   3   3   6    6.68    0.55
   4   3   6    0.42    0.13
   4   3   6    0.32    0.18
   5   3   6    0.64    0.12
   5   3   6    0.62    0.19
  -3   4   6    0.80    0.20
  -2   4   6   33.81    1.93
  -1   4   6    1.85    0.31
   0   4   6    7.96    0.34
   0   4   6    7.47    0.33
   0   4   6    7.99    0.62
   0   4   6    7.53    0.47
   1   4   6  101.96    4.20
   1   4   6  105.35    4.21
   1   4   6  105.22    5.71
   1   4   6  104.08    4.91
   2   4   6    5.31    0.26
   2   4   6    5.25    0.42
   2   4   6    5.23    0.24
   3   4   6    6.75    0.47
   4   4   6    9.95    0.76
   4   4   6   10.29    0.61
   5   4   6    2.91    0.23
   5   4   6    2.92    0.31
  -2   5   6    0.60    0.16
  -1   5   6    5.71    0.48
   0   5   6   20.08    1.17
   0   5   6   20.82    1.20
   1   5   6    4.92    0.33
   1   5   6    4.60    0.43
   2   5   6    3.10    0.27
   3   5   6    1.08    0.16
   4   5   6    1.16    0.13
  -1   6   6    0.11    0.12
   0   6   6    1.98    0.18
   0   6   6    2.06    0.20
   1   6   6    4.32    0.34
   2   6   6    8.36    0.52
   3   6   6    0.93    0.12
  -2  -5   7    6.49    0.45
  -1  -5   7    5.30    0.41
   0  -5   7    8.49    0.54
   1  -5   7    5.55    0.39
   2  -5   7   12.38    0.72
  -3  -4   7   10.60    0.68
  -2  -4   7    4.42    0.34
  -1  -4   7   18.61    1.07
   0  -4   7    1.06    0.16
   1  -4   7    4.50    0.53
   1  -4   7    3.71    0.32
   2  -4   7    2.79    0.24
   2  -4   7    3.96    0.46
   3  -4   7    2.31    0.35
   3  -4   7    2.35    0.20
  -3  -3   7    7.89    0.57
  -2  -3   7    1.06    0.19
  -2  -3   7    1.16    0.14
  -1  -3   7    7.79    0.47
  -1  -3   7    7.96    0.39
   0  -3   7    9.27    0.55
   0  -3   7    9.10    0.45
   0  -3   7   10.28    0.86
   1  -3   7   39.09    2.13
   1  -3   7   39.09    2.68
   1  -3   7   38.53    1.83
   2  -3   7    3.73    0.31
   2  -3   7    4.56    0.50
   3  -3   7    5.84    0.40
   3  -3   7    5.74    0.60
   4  -3   7    3.18    0.25
  -4  -2   7    0.87    0.24
  -3  -2   7    1.17    0.23
  -2  -2   7    1.66    0.16
  -1  -2   7    7.81    0.41
  -1  -2   7    8.12    0.46
   0  -2   7   50.10    2.36
   0  -2   7   49.46    2.74
   0  -2   7   46.24    3.37
   0  -2   7   54.10    2.73
   1  -2   7    7.01    0.34
   1  -2   7    7.18    0.66
   1  -2   7    6.46    0.34
   1  -2   7    7.03    0.42
   2  -2   7   16.17    0.93
   2  -2   7   16.89    1.23
   3  -2   7    8.59    0.53
   3  -2   7    8.22    0.74
   4  -2   7    0.89    0.25
   4  -2   7    0.63    0.12
  -4  -1   7   -0.15    0.25
  -3  -1   7    4.69    0.39
  -2  -1   7   35.71    1.94
  -2  -1   7   34.77    1.67
  -2  -1   7   35.48    1.46
  -1  -1   7    7.76    0.49
  -1  -1   7    8.50    0.47
  -1  -1   7    8.24    0.37
   0  -1   7    4.97    0.50
   1  -1   7   89.22    5.90
   2  -1   7    2.52    0.23
   2  -1   7    2.98    0.38
   2  -1   7    2.70    0.15
   2  -1   7    2.66    0.17
   3  -1   7    2.05    0.31
   3  -1   7    1.33    0.15
   3  -1   7    1.74    0.18
   4  -1   7    2.77    0.36
   4  -1   7    2.71    0.26
   5  -1   7    4.01    0.28
  -4   0   7    1.02    0.28
  -3   0   7    5.75    0.45
  -2   0   7   13.11    0.75
  -2   0   7   12.93    0.64
  -2   0   7   13.30    0.56
  -1   0   7    0.91    0.10
  -1   0   7    0.97    0.11
  -1   0   7    0.59    0.08
   1   0   7    1.84    0.30
   2   0   7    5.63    0.56
   2   0   7    6.45    0.29
   2   0   7    6.56    0.38
   2   0   7    6.14    0.38
   3   0   7    8.44    0.67
   3   0   7    7.08    0.49
   4   0   7    0.19    0.21
   4   0   7    0.00    0.11
   5   0   7    5.05    0.34
   5   0   7    5.22    0.48
  -4   1   7    1.67    0.27
  -3   1   7    4.56    0.42
  -2   1   7    1.46    0.16
  -2   1   7    1.41    0.12
  -1   1   7    3.07    0.18
  -1   1   7    3.04    0.18
  -1   1   7    2.99    0.23
  -1   1   7    3.06    0.17
  -1   1   7    2.94    0.21
   2   1   7   42.99    2.96
   2   1   7   43.85    1.80
   2   1   7   46.76    2.42
   2   1   7   42.58    2.40
   3   1   7    2.13    0.22
   3   1   7    2.53    0.33
   4   1   7    9.10    0.55
   4   1   7    9.07    0.73
   5   1   7   20.71    1.17
   5   1   7   21.20    1.45
  -3   2   7    1.14    0.30
  -2   2   7    5.96    0.47
  -1   2   7    1.80    0.18
  -1   2   7    1.95    0.15
   0   2   7    9.57    0.49
   0   2   7   10.01    0.58
   1   2   7   15.98    0.91
   1   2   7   16.79    0.93
   2   2   7    3.03    0.20
   2   2   7    2.94    0.25
   2   2   7    2.80    0.18
   3   2   7    5.69    0.39
   3   2   7    5.19    0.38
   3   2   7    5.27    0.49
   4   2   7    5.24    0.35
   4   2   7    5.25    0.49
   5   2   7    1.47    0.23
   5   2   7    1.29    0.14
  -3   3   7    0.09    0.20
  -2   3   7    8.95    0.71
  -1   3   7    6.44    0.59
   0   3   7    9.49    0.56
   0   3   7    8.63    0.47
   1   3   7    6.30    0.42
   1   3   7    6.40    0.35
   2   3   7    1.54    0.13
   2   3   7    1.77    0.19
   3   3   7   17.80    1.02
   4   3   7    0.51    0.05
   4   3   7    0.57    0.13
   4   3   7    0.53    0.04
   4   3   7    0.56    0.18
   5   3   7    0.38    0.15
   5   3   7    0.40    0.09
  -2   4   7    3.37    0.30
  -1   4   7   32.95    1.33
  -1   4   7   33.18    1.89
   0   4   7    9.40    0.67
   1   4   7    1.39    0.23
   2   4   7   13.32    0.81
   3   4   7    0.48    0.04
   3   4   7    0.44    0.05
   3   4   7    0.55    0.15
   4   4   7    4.56    0.19
   4   4   7    4.21    0.19
   4   4   7    4.29    0.31
  -1   5   7    8.72    0.55
   0   5   7   23.65    1.37
   0   5   7   24.33    0.98
   0   5   7   24.42    0.98
   1   5   7    2.91    0.13
   1   5   7    2.94    0.25
   1   5   7    2.78    0.13
   2   5   7    0.77    0.15
   2   5   7    0.67    0.05
   2   5   7    0.67    0.05
   3   5   7    1.89    0.18
   3   5   7    2.06    0.10
   3   5   7    2.13    0.10
   4   5   7    6.84    0.41
   1   6   7    3.19    0.25
   2   6   7    4.78    0.32
  -2  -4   8    8.19    0.52
  -1  -4   8    5.59    0.40
  -1  -4   8    5.96    0.36
   0  -4   8    1.36    0.13
   0  -4   8    0.77    0.14
   1  -4   8    5.41    0.34
   1  -4   8    5.10    0.35
  -2  -3   8    4.03    0.35
  -2  -3   8    4.53    0.28
  -1  -3   8    8.31    0.40
  -1  -3   8    8.77    0.50
   0  -3   8    6.27    0.39
   1  -3   8   -0.10    0.10
   1  -3   8    0.38    0.33
   2  -3   8    2.59    0.37
   2  -3   8    1.84    0.17
   2  -3   8    2.12    0.18
  -3  -2   8   27.29    1.54
  -2  -2   8    5.00    0.31
  -2  -2   8    4.70    0.38
  -1  -2   8   12.08    0.72
  -1  -2   8   12.98    0.71
  -1  -2   8   12.72    0.55
   0  -2   8   72.74    3.83
   0  -2   8   70.25    3.84
   0  -2   8   68.45    4.69
   1  -2   8   21.20    1.46
   1  -2   8   19.32    1.10
   1  -2   8   19.67    1.11
   2  -2   8    2.61    0.24
   2  -2   8    3.39    0.41
   3  -2   8    2.36    0.20
   3  -2   8    2.10    0.20
   3  -2   8    2.49    0.34
  -3  -1   8   10.76    0.61
  -3  -1   8   10.77    0.70
  -2  -1   8    1.13    0.12
  -2  -1   8    1.08    0.10
  -1  -1   8   23.92    1.37
  -1  -1   8   25.56    1.37
  -1  -1   8   25.62    1.03
   1  -1   8    1.11    0.29
   2  -1   8   12.71    0.74
   2  -1   8   13.02    0.74
   2  -1   8   12.95    0.55
   2  -1   8   13.34    0.99
   3  -1   8    1.02    0.15
   3  -1   8    0.67    0.24
   3  -1   8    0.72    0.11
   4  -1   8    0.79    0.11
   4  -1   8    1.11    0.23
  -3   0   8   -0.01    0.22
  -3   0   8   -0.04    0.08
  -2   0   8    1.40    0.13
  -2   0   8    1.12    0.10
  -1   0   8    1.53    0.10
   2   0   8    4.76    0.31
   2   0   8    5.05    0.33
   2   0   8    4.84    0.24
   2   0   8    5.12    0.51
   3   0   8    3.49    0.30
   3   0   8    4.18    0.46
   4   0   8    0.27    0.09
   4   0   8    0.47    0.12
   4   0   8    0.33    0.20
  -3   1   8    9.02    0.63
  -2   1   8    3.27    0.24
  -2   1   8    2.39    0.30
  -1   1   8    2.63    0.20
  -1   1   8    2.25    0.19
   2   1   8    0.95    0.13
   2   1   8    0.97    0.10
   2   1   8    0.77    0.10
   3   1   8    1.32    0.25
   3   1   8    1.33    0.17
   4   1   8    4.66    0.31
   4   1   8    4.60    0.45
   4   1   8    4.69    0.33
  -2   2   8    0.80    0.12
  -2   2   8    0.69    0.24
  -1   2   8    1.23    0.14
   0   2   8    5.75    0.35
   0   2   8    5.24    0.33
   1   2   8    0.58    0.10
   1   2   8    0.53    0.08
   2   2   8    3.43    0.25
   2   2   8    3.05    0.23
   3   2   8    2.73    0.23
   3   2   8    2.30    0.22
   4   2   8    0.11    0.09
   4   2   8    0.16    0.16
  -2   3   8   11.63    0.73
  -1   3   8   18.13    1.07
  -1   3   8   17.80    1.01
   0   3   8   -0.08    0.09
   1   3   8    2.27    0.21
   2   3   8    8.42    0.51
   3   3   8    0.97    0.13
   3   3   8    0.92    0.13
   4   3   8    3.49    0.24
  -1   4   8    5.72    0.41
   0   4   8    2.47    0.22
   0   4   8    2.03    0.19
   1   4   8    1.01    0.16
   1   4   8    0.77    0.12
   2   4   8    2.63    0.25
   2   4   8    2.50    0.22
   3   4   8    1.29    0.13
   2  -1   9    2.50    0.35
   0   0   0    0.00    0.00
;
_shelx_hkl_checksum              37002
loop_
_space_group_symop_operation_xyz
'x, y, z'
loop_
_atom_site_label
_atom_site_type_symbol
_atom_site_fract_x
_atom_site_fract_y
_atom_site_fract_z
_atom_site_U_iso_or_equiv
_atom_site_adp_type
_atom_site_occupancy
_atom_site_site_symmetry_order
_atom_site_calc_flag
_atom_site_refinement_flags_posn
_atom_site_refinement_flags_adp
O1 O 0.5785(4) 0.5551(3) 0.3997(3) 0.0225(5) Uani 1 1 d . .
H1 H 0.708(6) 0.501(3) 0.366(5) 0.034 Uiso 1 1 calc R U
C1 C 0.9284(5) 0.6016(4) 0.8310(4) 0.0180(7) Uani 1 1 d . .
H1S H 1.072(8) 0.383(7) 0.317(7) 0.061(15) Uiso 1 1 d . .
O2 O 0.2443(3) 0.9457(3) 0.3743(2) 0.0247(5) Uani 1 1 d . .
C2 C 0.8146(5) 0.5865(4) 0.6815(4) 0.0182(6) Uani 1 1 d . .
H2 H 0.8169 0.4689 0.6395 0.022 Uiso 1 1 calc R U
H2S H 1.003(9) 0.402(7) 0.150(8) 0.070(15) Uiso 1 1 d . .
O3 O 0.3097(4) 1.3146(3) 0.4532(3) 0.0262(5) Uani 1 1 d . .
H3A H 0.400(5) 1.394(4) 0.442(4) 0.039 Uiso 1 1 calc R U
C3 C 0.7102(5) 0.7303(4) 0.6045(3) 0.0192(7) Uani 1 1 d . .
H3 H 0.7180 0.8457 0.6466 0.023 Uiso 1 1 calc R U
O4 O 0.9551(3) 0.7707(2) 0.8549(2) 0.0197(5) Uani 1 1 d . .
C4 C 0.5807(5) 0.7320(4) 0.4583(3) 0.0183(6) Uani 1 1 d . .
H4 H 0.6442 0.8007 0.3666 0.022 Uiso 1 1 calc R U
O5 O 0.9902(3) 0.4744(3) 0.9214(3) 0.0223(5) Uani 1 1 d . .
C5 C 0.3457(5) 0.8251(4) 0.4989(4) 0.0202(6) Uani 1 1 d . .
H51 H 0.2522 0.7451 0.5538 0.024 Uiso 1 1 calc R U
O6 O 0.9632(4) 0.4005(3) 0.2642(3) 0.0311(6) Uani 1 1 d . .
C6 C 0.2674(5) 1.0204(4) 0.5325(4) 0.0207(7) Uani 1 1 d . .
H6 H 0.1288 1.0496 0.6057 0.025 Uiso 1 1 calc R U
C7 C 0.4096(5) 1.1567(4) 0.5420(4) 0.0197(7) Uani 1 1 d . .
H7 H 0.5592 1.1061 0.4900 0.024 Uiso 1 1 calc R U
C8 C 0.4185(5) 1.2013(4) 0.7206(4) 0.0199(7) Uani 1 1 d . .
H8 H 0.2834 1.2454 0.7826 0.024 Uiso 1 1 calc R U
C9 C 0.5963(5) 1.1852(4) 0.8004(4) 0.0198(7) Uani 1 1 d . .
H9 H 0.7329 1.1454 0.7390 0.024 Uiso 1 1 calc R U
C10 C 0.5972(5) 1.2255(4) 0.9810(4) 0.0214(7) Uani 1 1 d . .
H10A H 0.4450 1.2615 1.0297 0.026 Uiso 1 1 calc R U
H10B H 0.6680 1.3299 0.9924 0.026 Uiso 1 1 calc R U
C11 C 0.7157(5) 1.0633(4) 1.0784(4) 0.0231(7) Uani 1 1 d . .
H11A H 0.6529 0.9562 1.0584 0.028 Uiso 1 1 calc R U
H11B H 0.6880 1.0919 1.1980 0.028 Uiso 1 1 calc R U
C12 C 0.9636(5) 1.0119(4) 1.0349(4) 0.0198(6) Uani 1 1 d . .
H12A H 1.0008 1.0791 0.9341 0.024 Uiso 1 1 calc R U
H12B H 1.0376 1.0513 1.1262 0.024 Uiso 1 1 calc R U
C13 C 1.0492(5) 0.8104(4) 1.0058(4) 0.0206(7) Uani 1 1 d . .
H13 H 0.9953 0.7401 1.1006 0.025 Uiso 1 1 calc R U
C14 C 1.2936(5) 0.7557(4) 0.9803(4) 0.0265(7) Uani 1 1 d . .
H14A H 1.3357 0.6283 0.9448 0.040 Uiso 1 1 calc R U
H14B H 1.3565 0.7699 1.0844 0.040 Uiso 1 1 calc R U
H14C H 1.3476 0.8334 0.8952 0.040 Uiso 1 1 calc R U
loop_
_atom_site_aniso_label
_atom_site_aniso_U_11
_atom_site_aniso_U_22
_atom_site_aniso_U_33
_atom_site_aniso_U_23
_atom_site_aniso_U_13
_atom_site_aniso_U_12
O1 0.0247(12) 0.0212(11) 0.0216(11) -0.0045(8) -0.0041(9) -0.0035(8)
C1 0.0162(15) 0.0176(16) 0.0180(15) -0.0009(13) 0.0020(12) -0.0003(12)
O2 0.0288(12) 0.0256(12) 0.0200(12) 0.0014(9) -0.0100(9) -0.0036(9)
C2 0.0186(15) 0.0160(15) 0.0202(15) -0.0015(12) -0.0028(11) -0.0035(12)
O3 0.0276(12) 0.0234(12) 0.0293(13) 0.0097(9) -0.0120(9) -0.0061(10)
C3 0.0230(16) 0.0194(15) 0.0144(14) -0.0035(12) 0.0008(11) -0.0035(13)
O4 0.0260(12) 0.0163(11) 0.0179(11) 0.0001(8) -0.0063(8) -0.0053(8)
C4 0.0229(16) 0.0158(14) 0.0168(14) -0.0004(12) -0.0038(11) -0.0041(12)
O5 0.0260(12) 0.0196(11) 0.0201(11) 0.0021(8) -0.0033(8) -0.0014(8)
C5 0.0218(15) 0.0234(16) 0.0165(15) 0.0006(12) -0.0039(11) -0.0059(12)
O6 0.0261(14) 0.0433(14) 0.0203(14) -0.0018(10) -0.0064(10) 0.0029(11)
C6 0.0194(16) 0.0235(16) 0.0183(16) 0.0010(12) -0.0042(12) -0.0014(12)
C7 0.0180(15) 0.0174(15) 0.0223(17) 0.0043(11) -0.0069(12) 0.0015(12)
C8 0.0199(16) 0.0143(14) 0.0238(16) 0.0019(12) 0.0000(12) -0.0006(11)
C9 0.0208(16) 0.0152(14) 0.0221(16) 0.0013(11) -0.0009(12) -0.0015(12)
C10 0.0222(16) 0.0192(15) 0.0218(17) -0.0020(12) -0.0017(12) -0.0017(13)
C11 0.0272(17) 0.0246(16) 0.0172(15) 0.0010(12) -0.0008(12) -0.0050(13)
C12 0.0240(16) 0.0185(14) 0.0182(15) 0.0006(11) -0.0073(11) -0.0055(12)
C13 0.0273(17) 0.0215(16) 0.0144(15) 0.0012(12) -0.0068(12) -0.0066(13)
C14 0.0251(18) 0.0253(16) 0.0289(17) 0.0008(13) -0.0068(13) -0.0031(13)
loop_
_atom_type_symbol
_atom_type_description
_atom_type_scat_dispersion_real
_atom_type_scat_dispersion_imag
_atom_type_scat_source
C C 0.0181 0.0091 'International Tables Vol C Tables 4.2.6.8 and 6.1.1.4'
H H 0.0000 0.0000 'International Tables Vol C Tables 4.2.6.8 and 6.1.1.4'
O O 0.0492 0.0322 'International Tables Vol C Tables 4.2.6.8 and 6.1.1.4'
loop_
_geom_angle_atom_site_label_1
_geom_angle_atom_site_label_2
_geom_angle_atom_site_label_3
_geom_angle
C4 O1 H1 109.5
O5 C1 O4 124.0(3)
O5 C1 C2 123.6(2)
O4 C1 C2 112.5(2)
C6 O2 C5 61.24(19)
C3 C2 C1 122.4(2)
C3 C2 H2 118.8
C1 C2 H2 118.8
C7 O3 H3A 109.5
C2 C3 C4 127.2(2)
C2 C3 H3 116.4
C4 C3 H3 116.4
C1 O4 C13 118.8(2)
O1 C4 C3 113.6(2)
O1 C4 C5 106.4(2)
C3 C4 C5 111.2(2)
O1 C4 H4 108.5
C3 C4 H4 108.5
C5 C4 H4 108.5
O2 C5 C6 59.27(18)
O2 C5 C4 116.6(2)
C6 C5 C4 125.3(3)
O2 C5 H51 114.6
C6 C5 H51 114.6
C4 C5 H51 114.6
H1S O6 H2S 111(5)
O2 C6 C5 59.49(18)
O2 C6 C7 119.5(2)
C5 C6 C7 125.3(3)
O2 C6 H6 113.9
C5 C6 H6 113.9
C7 C6 H6 113.9
O3 C7 C8 110.9(2)
O3 C7 C6 106.4(2)
C8 C7 C6 108.7(2)
O3 C7 H7 110.3
C8 C7 H7 110.3
C6 C7 H7 110.3
C9 C8 C7 126.4(3)
C9 C8 H8 116.8
C7 C8 H8 116.8
C8 C9 C10 124.6(3)
C8 C9 H9 117.7
C10 C9 H9 117.7
C9 C10 C11 113.1(2)
C9 C10 H10A 109.0
C11 C10 H10A 109.0
C9 C10 H10B 109.0
C11 C10 H10B 109.0
H10A C10 H10B 107.8
C10 C11 C12 114.7(2)
C10 C11 H11A 108.6
C12 C11 H11A 108.6
C10 C11 H11B 108.6
C12 C11 H11B 108.6
H11A C11 H11B 107.6
C13 C12 C11 113.7(2)
C13 C12 H12A 108.8
C11 C12 H12A 108.8
C13 C12 H12B 108.8
C11 C12 H12B 108.8
H12A C12 H12B 107.7
O4 C13 C14 109.2(2)
O4 C13 C12 104.8(2)
C14 C13 C12 114.2(2)
O4 C13 H13 109.5
C14 C13 H13 109.5
C12 C13 H13 109.5
C13 C14 H14A 109.5
C13 C14 H14B 109.5
H14A C14 H14B 109.5
C13 C14 H14C 109.5
H14A C14 H14C 109.5
H14B C14 H14C 109.5
loop_
_geom_bond_atom_site_label_1
_geom_bond_atom_site_label_2
_geom_bond_distance
O1 C4 1.423(3)
O1 H1 0.86(4)
C1 O5 1.212(4)
C1 O4 1.335(3)
C1 C2 1.479(4)
O2 C6 1.441(4)
O2 C5 1.444(4)
C2 C3 1.318(4)
C2 H2 0.9500
O3 C7 1.434(4)
O3 H3A 0.90(4)
C3 C4 1.495(4)
C3 H3 0.9500
O4 C13 1.467(3)
C4 C5 1.511(4)
C4 H4 1.0000
C5 C6 1.469(4)
C5 H51 1.0000
O6 H1S 0.83(5)
O6 H2S 0.94(6)
C6 C7 1.503(4)
C6 H6 1.0000
C7 C8 1.501(4)
C7 H7 1.0000
C8 C9 1.325(5)
C8 H8 0.9500
C9 C10 1.502(4)
C9 H9 0.9500
C10 C11 1.533(5)
C10 H10A 0.9900
C10 H10B 0.9900
C11 C12 1.541(4)
C11 H11A 0.9900
C11 H11B 0.9900
C12 C13 1.512(4)
C12 H12A 0.9900
C12 H12B 0.9900
C13 C14 1.507(4)
C13 H13 1.0000
C14 H14A 0.9800
C14 H14B 0.9800
C14 H14C 0.9800
loop_
_geom_hbond_atom_site_label_D
_geom_hbond_atom_site_label_H
_geom_hbond_atom_site_label_A
_geom_hbond_distance_DH
_geom_hbond_distance_HA
_geom_hbond_distance_DA
_geom_hbond_angle_DHA
_geom_hbond_site_symmetry_A
O1 H1 O6 0.86 1.77 2.617(3) 170.4 .
O6 H1S O3 0.83(5) 1.92(5) 2.737(3) 172(5) 1_645
O6 H2S O5 0.94(6) 1.93(6) 2.822(3) 159(5) 1_554
O3 H3A O1 0.90 1.83 2.731(3) 174.9 1_565
C8 H8 O5 0.95 2.46 3.347(3) 156.3 1_465
C12 H12B O2 0.99 2.52 3.374(4) 144.6 1_656
loop_
_geom_torsion_atom_site_label_1
_geom_torsion_atom_site_label_2
_geom_torsion_atom_site_label_3
_geom_torsion_atom_site_label_4
_geom_torsion
O5 C1 C2 C3 165.7(3)
O4 C1 C2 C3 -14.2(4)
C1 C2 C3 C4 -176.7(3)
O5 C1 O4 C13 -4.9(4)
C2 C1 O4 C13 175.0(2)
C2 C3 C4 O1 -1.0(4)
C2 C3 C4 C5 119.0(3)
C6 O2 C5 C4 -117.0(3)
O1 C4 C5 O2 -97.6(3)
C3 C4 C5 O2 138.2(2)
O1 C4 C5 C6 -167.4(3)
C3 C4 C5 C6 68.5(4)
C5 O2 C6 C7 115.9(3)
C4 C5 C6 O2 102.5(3)
O2 C5 C6 C7 -106.5(3)
C4 C5 C6 C7 -4.0(5)
O2 C6 C7 O3 64.8(3)
C5 C6 C7 O3 136.5(3)
O2 C6 C7 C8 -175.8(2)
C5 C6 C7 C8 -104.1(3)
O3 C7 C8 C9 -119.7(3)
C6 C7 C8 C9 123.7(3)
C7 C8 C9 C10 -177.8(3)
C8 C9 C10 C11 123.1(3)
C9 C10 C11 C12 68.1(3)
C10 C11 C12 C13 -132.4(3)
C1 O4 C13 C14 82.8(3)
C1 O4 C13 C12 -154.4(2)
C11 C12 C13 O4 66.5(3)
C11 C12 C13 C14 -174.1(3)
