#------------------------------------------------------------------------------
#$Date: 2019-11-23 17:26:19 +0200 (Sat, 23 Nov 2019) $
#$Revision: 234203 $
#$URL: file:///home/coder/svn-repositories/cod/cif/1/55/33/1553381.cif $
#------------------------------------------------------------------------------
#
# This file is available in the Crystallography Open Database (COD),
# http://www.crystallography.net/
#
# All data on this site have been placed in the public domain by the
# contributors.
#
data_1553381
loop_
_publ_author_name
'Pang, Xiaoyan'
'Lin, Xiuping'
'Yang, Jie'
'Zhou, Xuefeng'
'Yang, Bin'
'Wang, Junfeng'
'Liu, Yonghong'
_publ_section_title
;
 Spiro-Phthalides and Isocoumarins Isolated from the Marine-Sponge-Derived
 Fungus Setosphaeria sp. SCSIO41009.
;
_journal_issue                   8
_journal_name_full               'Journal of natural products'
_journal_page_first              1860
_journal_page_last               1868
_journal_paper_doi               10.1021/acs.jnatprod.8b00345
_journal_volume                  81
_journal_year                    2018
_chemical_formula_moiety         'C15 H18 O6'
_chemical_formula_sum            'C15 H18 O6'
_chemical_formula_weight         294.29
_space_group_crystal_system      monoclinic
_space_group_IT_number           4
_space_group_name_Hall           'P 2yb'
_space_group_name_H-M_alt        'P 1 21 1'
_atom_sites_solution_hydrogens   geom
_atom_sites_solution_primary     direct
_audit_creation_date             2017-10-23
_audit_creation_method
;
Olex2 1.2
(compiled 2016.02.19 svn.r3266 for OlexSys, GUI svn.r5155)
;
_cell_angle_alpha                90
_cell_angle_beta                 95.895(6)
_cell_angle_gamma                90
_cell_formula_units_Z            2
_cell_length_a                   5.6966(3)
_cell_length_b                   5.6223(2)
_cell_length_c                   22.2355(14)
_cell_measurement_reflns_used    3274
_cell_measurement_temperature    150.00(10)
_cell_measurement_theta_max      73.3450
_cell_measurement_theta_min      5.9290
_cell_volume                     708.39(6)
_computing_cell_refinement       'CrysAlisPro 1.171.38.43 (Rigaku OD, 2015)'
_computing_data_collection       'CrysAlisPro 1.171.38.43 (Rigaku OD, 2015)'
_computing_data_reduction        'CrysAlisPro 1.171.38.43 (Rigaku OD, 2015)'
_computing_molecular_graphics    'Olex2 (Dolomanov et al., 2009)'
_computing_publication_material  'Olex2 (Dolomanov et al., 2009)'
_computing_structure_refinement  'ShelXL (Sheldrick, 2015)'
_computing_structure_solution    'ShelXT (Sheldrick, 2015)'
_diffrn_ambient_environment      N~2~
_diffrn_ambient_temperature      150.00(10)
_diffrn_detector                 'CCD plate'
_diffrn_detector_area_resol_mean 21.1652
_diffrn_detector_type            AtlasS2
_diffrn_measured_fraction_theta_full 0.999
_diffrn_measured_fraction_theta_max 0.978
_diffrn_measurement_details
;
List of Runs (angles in degrees, time in seconds):

  # Type    Start    End  Width  t~exp~   \w     \q     \k     \f   Frames
--------------------------------------------------------------------------
  1  \w     20.00  47.00   1.00    2.50    --   50.00  79.00  66.96   27
  2  \w     33.00  59.00   1.00    2.50    --   62.00  75.00  62.07   26
  3  \w     40.00  77.00   1.00    2.50    --   70.00  77.00  91.14   37
  4  \w     97.00 123.00   1.00    2.50    --   70.00  77.00  91.14   26
  5  \w    108.00 133.00   1.00    2.50    --   62.00  75.00  62.07   25
  6  \w    105.00 131.00   1.00    2.50    --   62.00  76.00  28.66   26
  7  \w    101.00 130.00   1.00    2.50    --   70.00  77.00 -45.86   29
  8  \w    123.00 167.00   1.00    6.00    --  107.38  77.00-120.00   44
  9  \w    115.00 141.00   1.00    6.00    --  107.38  77.00 -60.00   26
 10  \w     88.00 114.00   1.00    2.50    --   66.00  77.00 -13.21   26
 11  \w     77.00 173.00   1.00    6.00    --  107.38  77.00  60.00   96
 12  \w    127.00 157.00   1.00    6.00    --  107.38  77.00  90.00   30
 13  \w     81.00 107.00   1.00    6.00    --  107.38  61.00  90.00   26
 14  \w     81.00 165.00   1.00    6.00    --  107.38  61.00 120.00   84
 15  \w     82.00 172.00   1.00    6.00    --  107.38  61.00 150.00   90
 16  \w     82.00 157.00   1.00    6.00    --  107.38  61.00 -30.00   75
 17  \w     81.00 107.00   1.00    6.00    --  107.38  61.00-120.00   26
 18  \w     81.00 119.00   1.00    6.00    --  107.38  61.00 -90.00   38
 19  \w     82.00 108.00   1.00    6.00    --  107.38  61.00-180.00   26
 20  \w     77.00 103.00   1.00    6.00    --  107.38  77.00-120.00   26
 21  \w     77.00 172.00   1.00    6.00    --  107.38  77.00-150.00   95
 22  \w     81.00 107.00   1.00    6.00    --  107.38  61.00   0.00   26
 23  \w     81.00 107.00   1.00    6.00    --  107.38  61.00  30.00   26
 24  \w     77.00 102.00   1.00    6.00    --  107.38  77.00  90.00   25
 25  \w     77.00 103.00   1.00    6.00    --  107.38  77.00 120.00   26
 26  \w     77.00 102.00   1.00    6.00    --  107.38  77.00 150.00   25
 27  \w     77.00 164.00   1.00    6.00    --  107.38  77.00  30.00   87
 28  \w     77.00 102.00   1.00    6.00    --  107.38  77.00 -30.00   25
 29  \w     77.00 108.00   1.00    6.00    --  107.38  77.00 -60.00   31
 30  \w     77.00 177.00   1.00    6.00    --  107.38  77.00 -90.00  100
 31  \w     77.00 176.00   1.00    6.00    --  107.38  77.00-180.00   99
 32  \w     77.00 178.00   1.00    6.00    --  107.38  77.00   0.00  101
 33  \w     48.00 138.00   1.00    6.00    --  107.38 -77.00   0.00   90
 34  \w     84.00 121.00   1.00    6.00    --  107.38-125.00  30.00   37
 35  \w     39.00 127.00   1.00    6.00    --  107.38 -61.00-120.00   88
 36  \w     36.00  62.00   1.00    2.50    --   66.00  77.00-104.50   26
 37  \w     40.00  83.00   1.00    2.50    --   70.00  77.00-146.42   43
 38  \w     40.00  66.00   1.00    2.50    --   70.00  77.00-179.77   26
 39  \w     40.00  66.00   1.00    2.50    --   70.00  77.00 -90.35   26
 40  \w     40.00  70.00   1.00    2.50    --   70.00  77.00 -45.86   30
 41  \w     36.00  69.00   1.00    2.50    --   66.00  77.00 -13.21   33
 42  \w     32.00  58.00   1.00    2.50    --   62.00  76.00  28.66   26
 43  \w     18.00  43.00   1.00    2.50    --   50.00  82.00 -28.67   25
 44  \w     18.00  43.00   1.00    2.50    --   50.00  82.00-109.21   25
 45  \w      8.00  33.00   1.00    2.50    --   42.00  86.00-145.67   25
 46  \w     -2.00  23.00   1.00    2.50    --   34.00  92.00  37.19   25
 47  \w      7.00  32.00   1.00    2.50    --   42.00  89.00 113.31   25
 48  \w     35.00  62.00   1.00    2.50    --   62.00  75.00 147.56   27
 49  \w     15.00  43.00   1.00    2.50    --   46.00  80.00 170.61   28
 50  \w    -64.00  30.00   1.00    2.50    --  -38.50  57.00  90.00   94
 51  \w     23.00  90.00   1.00    2.50    --   43.56-125.00-150.00   67
 52  \w     28.00 109.00   1.00    6.00    --  107.38 -94.00-150.00   81
 53  \w     39.00 117.00   1.00    6.00    --  107.38-125.00-150.00   78
 54  \w     24.00  95.00   1.00    2.50    --   43.56-125.00   0.00   71
 55  \w   -106.00 -14.00   1.00    2.50    --  -38.50 -57.00 -60.00   92
 56  \w   -110.00 -19.00   1.00    2.50    --  -38.50 -37.00  30.00   91
 57  \w   -115.00 -12.00   1.00    2.50    --  -38.50 -20.00 116.79  103
;
_diffrn_measurement_device       'four-circle diffractometer'
_diffrn_measurement_device_type  'SuperNova, Dual, Cu at zero, AtlasS2'
_diffrn_measurement_method       '\w scans'
_diffrn_orient_matrix_type
'CrysAlisPro convention (1999,Acta A55,543-557)'
_diffrn_orient_matrix_UB_11      -0.0448247000
_diffrn_orient_matrix_UB_12      0.2667794000
_diffrn_orient_matrix_UB_13      0.0096833000
_diffrn_orient_matrix_UB_21      0.1393094000
_diffrn_orient_matrix_UB_22      -0.0136610000
_diffrn_orient_matrix_UB_23      0.0631012000
_diffrn_orient_matrix_UB_31      0.2291403000
_diffrn_orient_matrix_UB_32      0.0605805000
_diffrn_orient_matrix_UB_33      -0.0279207000
_diffrn_radiation_monochromator  mirror
_diffrn_radiation_probe          x-ray
_diffrn_radiation_type           CuK\a
_diffrn_radiation_wavelength     1.54184
_diffrn_reflns_av_R_equivalents  0.0909
_diffrn_reflns_av_unetI/netI     0.0486
_diffrn_reflns_Laue_measured_fraction_full 0.999
_diffrn_reflns_Laue_measured_fraction_max 0.978
_diffrn_reflns_limit_h_max       7
_diffrn_reflns_limit_h_min       -6
_diffrn_reflns_limit_k_max       7
_diffrn_reflns_limit_k_min       -6
_diffrn_reflns_limit_l_max       27
_diffrn_reflns_limit_l_min       -27
_diffrn_reflns_number            12240
_diffrn_reflns_point_group_measured_fraction_full 0.996
_diffrn_reflns_point_group_measured_fraction_max 0.969
_diffrn_reflns_theta_full        67.684
_diffrn_reflns_theta_max         75.054
_diffrn_reflns_theta_min         3.997
_diffrn_source                   'micro-focus sealed X-ray tube'
_diffrn_source_type              'SuperNova (Cu) X-ray Source'
_diffrn_standards_number         0
_exptl_absorpt_coefficient_mu    0.899
_exptl_absorpt_correction_T_max  1.00000
_exptl_absorpt_correction_T_min  0.53152
_exptl_absorpt_correction_type   multi-scan
_exptl_absorpt_process_details
;
CrysAlisPro 1.171.38.43 (Rigaku Oxford Diffraction, 2015)
Empirical absorption correction using spherical harmonics,
 implemented in SCALE3 ABSPACK scaling algorithm.
;
_exptl_crystal_colour            colourless
_exptl_crystal_colour_primary    colourless
_exptl_crystal_density_diffrn    1.380
_exptl_crystal_description       plate
_exptl_crystal_F_000             312
_exptl_crystal_size_max          0.6
_exptl_crystal_size_mid          0.4
_exptl_crystal_size_min          0.02
_refine_diff_density_max         0.335
_refine_diff_density_min         -0.333
_refine_diff_density_rms         0.068
_refine_ls_abs_structure_details
;
 Flack x determined using 933 quotients [(I+)-(I-)]/[(I+)+(I-)]
 (Parsons, Flack and Wagner, Acta Cryst. B69 (2013) 249-259).
;
_refine_ls_abs_structure_Flack   0.0(2)
_refine_ls_extinction_method     none
_refine_ls_goodness_of_fit_ref   1.102
_refine_ls_hydrogen_treatment    constr
_refine_ls_matrix_type           full
_refine_ls_number_parameters     194
_refine_ls_number_reflns         2810
_refine_ls_number_restraints     1
_refine_ls_restrained_S_all      1.102
_refine_ls_R_factor_all          0.0752
_refine_ls_R_factor_gt           0.0633
_refine_ls_shift/su_max          0.000
_refine_ls_shift/su_mean         0.000
_refine_ls_structure_factor_coef Fsqd
_refine_ls_weighting_details
'w=1/[\s^2^(Fo^2^)+(0.1079P)^2^+0.2956P] where P=(Fo^2^+2Fc^2^)/3'
_refine_ls_weighting_scheme      calc
_refine_ls_wR_factor_gt          0.1729
_refine_ls_wR_factor_ref         0.1907
_reflns_Friedel_coverage         0.789
_reflns_Friedel_fraction_full    0.994
_reflns_Friedel_fraction_max     0.957
_reflns_number_gt                2397
_reflns_number_total             2810
_reflns_threshold_expression     'I > 2\s(I)'
_cod_data_source_file            np8b00345_si_002.cif
_cod_data_source_block           17090410
_cod_original_cell_volume        708.40(7)
_cod_database_code               1553381
_chemical_oxdiff_formula         CHNO
_chemical_oxdiff_usercomment     P52-37
_shelx_space_group_comment
;
The symmetry employed for this shelxl refinement is uniquely defined
by the following loop, which should always be used as a source of
symmetry information in preference to the above space-group names.
They are only intended as comments.
;
_olex2_refinement_description
;
1. Fixed Uiso
 At 1.2 times of:
  All C(H) groups, All C(H,H) groups
 At 1.5 times of:
  All C(H,H,H) groups, All O(H) groups
2.a Ternary CH refined with riding coordinates:
 C3(H3A)
2.b Secondary CH2 refined with riding coordinates:
 C8(H8A,H8B), C9(H9A,H9B), C11(H11A,H11B), C12(H12A,H12B)
2.c Aromatic/amide H refined with riding coordinates:
 C4(H4)
2.d Idealised Me refined as rotating group:
 C14(H14A,H14B,H14C), C13(H13A,H13B,H13C)
2.e Idealised tetrahedral OH refined as rotating group:
 O5(H5), O3(H3)
;
_shelx_res_file
;
    17090410.res created by SHELXL-2014/7

TITL 17090410_a.res in P2(1)
REM Old TITL 17090410 in P21/m #11
REM SHELXT solution in P2(1)
REM R1 0.133, Rweak 0.068, Alpha 0.003, Orientation as input
REM Flack x = -0.114 ( 0.253 ) from Parsons' quotients
REM Formula found by SHELXT: C15 O6
CELL 1.54184 5.696645 5.622276 22.235518 90 95.8947 90
ZERR 2 0.000313 0.000241 0.001377 0 0.0059 0
LATT -1
SYMM -X,0.5+Y,-Z
SFAC C H O
UNIT 30 36 12

L.S. 34
PLAN  20
BOND $H
LIST 6
MORE -1
CONF
fmap 2 53
acta
REM <olex2.extras>
REM <HklSrc "%.\\17090410.hkl">
REM </olex2.extras>

WGHT    0.107900    0.295600
FVAR       1.29410
O4    3    0.374766    0.438453    0.469352    11.00000    0.03710    0.03210 =
         0.04386    0.00203    0.00331    0.00334
O5    3    0.678806    0.745068    0.420941    11.00000    0.03780    0.03272 =
         0.04546   -0.00465    0.00303   -0.00421
AFIX 147
H5    2    0.641734    0.737715    0.455564    11.00000   -1.50000
AFIX   0
O3    3    0.157384    0.090207    0.398923    11.00000    0.04730    0.03496 =
         0.05019    0.00123    0.00588   -0.01234
AFIX 147
H3    2    0.085159    0.009157    0.372502    11.00000   -1.50000
AFIX   0
O2    3    0.847916    0.505633    0.245420    11.00000    0.04183    0.04024 =
         0.04764   -0.00263    0.00928   -0.00801
O1    3    0.966178    0.794215    0.309667    11.00000    0.04040    0.04031 =
         0.05512   -0.00200    0.00612   -0.01312
O6    3    0.134523    0.323732    0.100052    11.00000    0.09433    0.03918 =
         0.08872   -0.01044   -0.03880    0.00497
C7    1    0.594404    0.553782    0.389629    11.00000    0.03491    0.02649 =
         0.04196    0.00264   -0.00051    0.00004
C7A   1    0.666858    0.505133    0.332574    11.00000    0.03550    0.02849 =
         0.04343    0.00093    0.00063   -0.00236
C5    1    0.328953    0.214434    0.374909    11.00000    0.03976    0.02569 =
         0.04773    0.00614    0.00231   -0.00502
C3A   1    0.573642    0.313195    0.298778    11.00000    0.03743    0.02722 =
         0.04666    0.00210    0.00126   -0.00164
C6    1    0.430793    0.401671    0.411311    11.00000    0.04055    0.02667 =
         0.04129    0.00453    0.00042   -0.00093
C3    1    0.689804    0.299648    0.241442    11.00000    0.04064    0.03086 =
         0.04821   -0.00462    0.00483   -0.00231
AFIX  13
H3A   2    0.783680    0.153570    0.241488    11.00000   -1.20000
AFIX   0
C1    1    0.840573    0.621455    0.298262    11.00000    0.03085    0.03846 =
         0.04501    0.00416    0.00267   -0.00384
C8    1    0.522364    0.310918    0.183642    11.00000    0.04417    0.03381 =
         0.04436   -0.00097    0.00374   -0.00662
AFIX  23
H8A   2    0.421649    0.171451    0.181838    11.00000   -1.20000
H8B   2    0.614728    0.304002    0.149385    11.00000   -1.20000
AFIX   0
C4    1    0.399383    0.169375    0.318367    11.00000    0.04612    0.02839 =
         0.04535   -0.00109    0.00174   -0.00570
AFIX  43
H4    2    0.332163    0.046846    0.294327    11.00000   -1.20000
AFIX   0
C9    1    0.366439    0.531859    0.177332    11.00000    0.04963    0.03267 =
         0.04709    0.00068    0.00273   -0.00504
AFIX  23
H9A   2    0.297202    0.557672    0.214870    11.00000   -1.20000
H9B   2    0.463261    0.669083    0.170375    11.00000   -1.20000
AFIX   0
C10   1    0.171145    0.511163    0.126074    11.00000    0.05010    0.03358 =
         0.04914    0.00144   -0.00122   -0.00620
C11   1    0.023846    0.727889    0.110373    11.00000    0.04789    0.03965 =
         0.05407    0.00101    0.00420   -0.00019
AFIX  23
H11A  2    0.126866    0.855699    0.100068    11.00000   -1.20000
H11B  2   -0.049330    0.777101    0.145871    11.00000   -1.20000
AFIX   0
C14   1    0.155064    0.566240    0.471997    11.00000    0.04749    0.03603 =
         0.05873    0.00719    0.00852    0.01066
AFIX 137
H14A  2    0.030198    0.484156    0.448202    11.00000   -1.50000
H14B  2    0.170174    0.724018    0.456344    11.00000   -1.50000
H14C  2    0.119315    0.575176    0.513198    11.00000   -1.50000
AFIX   0
C12   1   -0.167908    0.693879    0.058437    11.00000    0.05440    0.04480 =
         0.05508   -0.00140   -0.00232    0.00353
AFIX  23
H12A  2   -0.094592    0.658567    0.021970    11.00000   -1.20000
H12B  2   -0.263754    0.557961    0.067110    11.00000   -1.20000
AFIX   0
C13   1   -0.326484    0.908840    0.047016    11.00000    0.05496    0.04883 =
         0.06365   -0.00224   -0.00173    0.00516
AFIX 137
H13A  2   -0.434055    0.882328    0.011512    11.00000   -1.50000
H13B  2   -0.231930    1.046621    0.041155    11.00000   -1.50000
H13C  2   -0.413977    0.933820    0.081141    11.00000   -1.50000
AFIX   0
HKLF 4

REM  17090410_a.res in P2(1)
REM R1 =  0.0633 for    2397 Fo > 4sig(Fo)  and  0.0752 for all    2810 data
REM    194 parameters refined using      1 restraints

END

WGHT      0.1079      0.2956

REM Highest difference peak  0.335,  deepest hole -0.333,  1-sigma level  0.068
Q1    1   0.6666  0.7363  0.3805  11.00000  0.05    0.34
Q2    1   0.4399  0.4270  0.5050  11.00000  0.05    0.28
Q3    1   0.3603  0.4214  0.3849  11.00000  0.05    0.27
Q4    1   0.1731  0.5895  0.5198  11.00000  0.05    0.25
Q5    1   0.8009  0.5222  0.1993  11.00000  0.05    0.24
Q6    1   0.1521  0.0864  0.4422  11.00000  0.05    0.23
Q7    1   0.2909  0.2564  0.4743  11.00000  0.05    0.23
Q8    1   0.6874  0.7491  0.4648  11.00000  0.05    0.21
Q9    1   0.5866  0.3306  0.3526  11.00000  0.05    0.21
Q10   1   0.9605  0.5510  0.1960  11.00000  0.05    0.21
Q11   1   0.9708  0.8088  0.3537  11.00000  0.05    0.20
Q12   1  -0.2029  0.4170  0.4802  11.00000  0.05    0.20
Q13   1   0.9356  0.7873  0.2662  11.00000  0.05    0.20
Q14   1  -0.0644  0.0100  0.4194  11.00000  0.05    0.20
Q15   1   0.8114  1.0046  0.3044  11.00000  0.05    0.20
Q16   1   0.5934  0.5723  0.3396  11.00000  0.05    0.20
Q17   1   0.9011  0.6068  0.3358  11.00000  0.05    0.19
Q18   1   0.4963  0.7550  0.3667  11.00000  0.05    0.19
Q19   1   0.5013  0.7482  0.4631  11.00000  0.05    0.19
Q20   1   0.1750  0.3055  0.3035  11.00000  0.05    0.19
;
_shelx_res_checksum              10631
_shelx_hkl_file
;
   0   0  -2  135.39    2.57
   0   0   2  136.43    2.54
   0   0   3  247.16    4.22
   0   0  -3  255.48    4.34
   0   0   4 1185.48   10.67
   0   0  -4 1187.02   10.90
   0   0  -5  583.59    8.91
   0   0   5  536.11    8.14
   0   0  -6  724.47   11.23
   0   0   6  707.27   10.68
   0   0  -7  217.56    7.96
   0   0   7  223.11    6.78
   0   0  -7  224.13    7.17
   0   0  -8  444.23   11.05
   0   0   8  410.29   10.41
   0   0   8  435.19   10.33
   0   0   8  439.66   11.62
   0   0  -8  446.96   11.91
   0   0   9   55.76    5.80
   0   0   9   48.00    4.68
   0   0   9   45.59    4.66
   0   0  -9   50.36    4.72
   0   0   9   50.78    4.53
   0   0  -9   53.31    5.08
   0   0  10  823.42   16.86
   0   0 -10  961.27   20.07
   0   0  10  839.69   18.13
   0   0  10  918.12   18.22
   0   0  10  932.54   20.77
   0   0 -10  922.95   18.65
   0   0  11  705.51   16.60
   0   0 -11  767.01   18.46
   0   0 -11  883.44   20.75
   0   0  11  786.57   18.45
   0   0  11  871.68   21.52
   0   0  11  752.69   18.43
   0   0 -12    2.39    2.62
   0   0  12    2.90    3.45
   0   0  12    1.84    2.64
   0   0 -12    2.95    3.14
   0   0 -12    1.48    4.29
   0   0 -12    1.42    3.30
   0   0  12   -0.15    3.34
   0   0 -13  294.52   13.40
   0   0 -13  270.37   15.21
   0   0 -13  306.82   14.65
   0   0 -13  289.82   13.42
   0   0  13  284.02   13.95
   0   0  13  263.19   13.01
   0   0  13  279.74   14.93
   0   0  14 2171.92   41.02
   0   0 -14 2198.95   40.73
   0   0  14 2277.53   42.11
   0   0  15    5.99    5.31
   0   0  15    6.95    5.39
   0   0  15    6.84    5.49
   0   0 -15    4.45    5.25
   0   0 -15    6.64    4.53
   0   0 -16  114.26   13.72
   0   0 -16  108.85    8.08
   0   0  16   86.32   10.59
   0   0  16   98.18   11.16
   0   0  16   97.95    6.67
   0   0 -16   86.94    7.64
   0   0 -16  107.68    9.46
   0   0  17  715.22   29.54
   0   0 -17  855.69   36.43
   0   0 -17  812.94   22.47
   0   0  17  701.61   16.49
   0   0 -17  889.39   23.84
   0   0 -17  803.00   20.35
   0   0 -18  139.97   10.67
   0   0  18  149.74   10.11
   0   0 -18  155.35   18.01
   0   0  18  134.07   14.36
   0   0 -18  161.87   11.65
   0   0  18  136.51    7.95
   0   0 -18  116.78    9.51
   0   0 -19   10.42    4.58
   0   0 -19   20.82    8.61
   0   0 -19   19.95    5.29
   0   0 -19   14.53    4.60
   0   0  19   20.53    4.87
   0   0  19   18.68    3.96
   0   0 -20   -0.79    4.50
   0   0 -20    1.89    4.08
   0   0 -20   -4.76    3.66
   0   0 -20   -8.51    7.32
   0   0  20    0.77    3.27
   0   0  20    1.61    3.08
   0   0 -21   52.06    7.22
   0   0  21   58.90    6.00
   0   0 -21   57.24   15.89
   0   0 -21   46.52    7.60
   0   0 -21   68.30    8.58
   0   0  21   59.02    7.19
   0   0  22    3.52    3.81
   0   0 -22    9.77    4.25
   0   0 -22   11.18    4.77
   0   0  22    4.91    4.15
   0   0 -22    9.73    4.54
   0   0  23    1.60    3.32
   0   0  23   -4.19    4.70
   0   0  23    2.86    2.89
   0   0 -23   -0.85    4.10
   0   0 -23    4.11    3.12
   0   0 -24    3.05    3.48
   0   0  24    1.21    3.48
   0   0  24    1.85    2.85
   0   0  24    3.58    3.50
   0   0 -24    1.56    2.92
   0   0  25   14.81    5.11
   0   0 -25   15.18    4.24
   0   0  25   21.01    4.76
   0   0 -25   24.36    4.72
   0   0 -26    1.11    3.39
   0   0  26    0.55    2.66
   0   0 -26    2.54    2.82
   0   0  26    0.10    2.59
   0   0 -26    0.31    2.23
   0   0  27    2.21    2.88
   0   0  27    5.25    2.53
   0   0 -27    4.17    3.95
   0   1   0   -0.15    1.84
   0  -1   0   -0.18    1.61
   0  -1   0    0.59    1.69
   0   1   0    0.21    2.27
   0   1  -1 5348.82   37.45
   0  -1  -1 5338.43   32.03
   0  -1   2  193.39    6.63
   0   1   2  199.36    6.93
   0   1  -2  192.41    7.37
   0  -1  -2  202.42    6.86
   0  -1   3  611.60   11.32
   0   1  -3  598.66   12.77
   0   1  -3  643.34   13.93
   0  -1  -3  567.59    9.50
   0   1   3  591.08    7.39
   0  -1  -3  655.07   13.11
   0   1   3  607.72   12.36
   0  -1   4 1433.31   23.71
   0   1  -4 1501.78   20.69
   0  -1  -4 1384.41   19.53
   0  -1   4 1413.47   17.01
   0   1   4 1454.28   13.34
   0   1   4 1473.28   20.32
   0   1   5  546.42    9.38
   0  -1  -5  605.90   13.69
   0   1  -5  607.53   13.60
   0  -1  -5  552.50   11.42
   0   1   5  607.66   13.78
   0  -1   5  565.83   10.90
   0  -1   6 1392.70   17.76
   0   1  -6 1450.97   25.13
   0   1   6 1468.90   19.13
   0  -1  -6 1309.44   21.12
   0  -1   6 1307.43   21.69
   0   1  -6 1471.84   20.97
   0   1  -6 1566.66   26.42
   0   1   6 1435.07   21.87
   0   1   6 1382.74   16.25
   0  -1  -6 1428.48   18.36
   0   1   7  568.93   11.44
   0  -1   7  499.90   14.99
   0   1   7  606.17   15.06
   0  -1   7  573.11   12.01
   0  -1  -7  463.03    6.82
   0   1  -7  622.02   17.95
   0   1  -7  623.23   14.27
   0   1   7  603.29   13.28
   0  -1  -7  487.67   14.10
   0   1  -7  626.51   18.24
   0   1  -8  868.81   18.31
   0   1  -8  839.30   21.93
   0  -1  -8  842.11   19.30
   0   1   8  912.22   19.37
   0   1   8  923.04   17.31
   0  -1   8  930.67   15.71
   0  -1   8  816.54   19.86
   0   1  -8  941.39   22.97
   0   1   8  881.29   15.94
   0   1  -9  408.10   16.45
   0   1   9  381.45   11.46
   0  -1   9  368.28   14.21
   0  -1   9  371.98   10.51
   0  -1  -9  341.79   13.46
   0   1   9  379.06   12.09
   0   1   9  373.01   13.44
   0   1  -9  394.66   16.42
   0   1  -9  382.39    9.54
   0   1 -10  427.89   10.61
   0   1  10  383.57   12.38
   0   1  10  384.99   12.95
   0   1 -10  380.91   17.55
   0   1 -10  375.08   17.05
   0  -1 -10  355.96   14.60
   0   1  10  331.03   13.61
   0  -1  10  378.74   15.14
   0  -1  10  426.18   11.89
   0  -1  11   72.38    7.69
   0   1  11   66.68    6.33
   0  -1  11   63.02    5.51
   0   1 -11   74.32    5.29
   0   1 -11   58.32    8.23
   0  -1 -11   58.38    7.03
   0   1  11   50.74    5.62
   0   1 -11   67.32    8.24
   0   1  11   69.84    7.13
   0   1  12   11.10    3.84
   0   1 -12    9.35    4.78
   0   1 -12   10.72    4.67
   0   1  12   13.19    4.47
   0  -1  12   14.38    3.50
   0  -1 -12    8.21    4.56
   0   1  12   11.47    3.92
   0  -1 -12   11.39    4.16
   0   1  12   11.77    3.80
   0  -1  12   10.65    4.78
   0   1 -13  652.27   25.36
   0   1  13  529.11   17.75
   0  -1  13  556.79   21.60
   0   1 -13  628.09   26.31
   0   1  13  557.78   18.13
   0   1  13  585.49   19.88
   0  -1 -13  593.79   20.10
   0  -1  13  555.03   17.32
   0   1  13  603.88   21.64
   0  -1  14   75.09    9.80
   0   1 -14   69.18   10.69
   0  -1 -14   50.39    8.61
   0  -1 -14   78.83    8.93
   0   1  14   81.43    8.88
   0   1  14   62.54    7.44
   0   1 -14   65.78    9.35
   0  -1  14   63.21    7.29
   0   1 -14   80.40   10.77
   0   1 -15   30.36    5.08
   0   1 -15   28.20    7.14
   0  -1 -15   18.82    4.55
   0  -1 -15   34.17    6.63
   0  -1 -15   28.07    4.15
   0   1  15   20.48    4.02
   0   1 -15   29.92    8.05
   0   1  15   24.27    6.50
   0  -1  15   28.11    6.96
   0   1 -15   25.02    4.18
   0   1 -15   26.99    7.43
   0  -1  15   20.22    5.31
   0   1 -16   91.61   11.78
   0   1 -16   74.91   10.56
   0   1 -16  115.22   14.52
   0   1 -16   99.19    9.11
   0  -1 -16   95.54   10.78
   0   1  16   96.35   10.84
   0  -1  16   92.78   13.08
   0   1  16  101.29    8.25
   0  -1 -16  103.87    7.73
   0   1 -16  105.44    9.85
   0  -1 -16  108.05    9.56
   0  -1  16   99.97    8.35
   0  -1 -16  115.30    8.70
   0   1 -16   97.57    8.51
   0  -1 -16   98.41   12.39
   0   1 -17   30.25    7.20
   0  -1 -17   28.98    8.53
   0   1  17   28.37    5.28
   0   1 -17   28.38    6.21
   0   1  17   25.83    7.15
   0   1  17   27.96    4.69
   0   1 -17   23.22    8.19
   0  -1 -17   34.61    7.18
   0  -1 -17   24.73    6.95
   0  -1 -17   26.08    4.60
   0  -1 -17   26.19    6.08
   0  -1  17   29.14    5.45
   0  -1  17   14.02    7.85
   0   1 -17   25.52    8.78
   0   1 -17   17.96    4.86
   0   1 -18  199.19   13.36
   0   1 -18  202.86   21.75
   0  -1 -18  202.72   11.76
   0  -1 -18  177.28   15.76
   0   1 -18  174.16   11.05
   0  -1  18  132.93   15.58
   0   1 -18  180.74   11.40
   0  -1 -18  219.32   12.46
   0  -1 -18  166.85   10.33
   0  -1 -18  189.78   18.86
   0   1  18  174.71   15.69
   0   1  18  195.87    9.59
   0   1  18  172.83   10.58
   0  -1  18  187.46   10.64
   0  -1  18   97.79   17.45
   0   1  19   16.82    4.21
   0  -1  19   16.61    5.54
   0   1  19   17.43    4.72
   0   1  19    8.89    7.63
   0  -1 -19   12.47    4.85
   0   1  19   18.38    4.37
   0  -1 -19   13.29    9.11
   0   1 -19    5.71    3.97
   0  -1 -19    6.55    4.49
   0  -1  19   15.96    4.41
   0  -1 -19   10.76    3.76
   0   1 -19   13.66    5.05
   0  -1  19   15.63    7.79
   0  -1  20   71.23    8.46
   0  -1 -20   71.44   13.10
   0   1 -20   51.66    7.43
   0   1  20   67.30    7.47
   0  -1 -20   43.29    6.62
   0  -1  20   42.27   11.07
   0  -1 -20   50.03    7.01
   0  -1 -20   55.39    8.11
   0   1  20   72.67    7.72
   0  -1  20   61.93    7.15
   0   1 -20   68.71    8.81
   0   1  20   63.83    6.50
   0   1 -21   15.26    5.02
   0  -1 -21   17.29    4.24
   0  -1 -21   14.91    5.23
   0   1  21   15.06    4.55
   0  -1 -21    8.42    4.48
   0   1 -21   12.09    5.02
   0  -1  21   15.14    5.21
   0   1  21   16.44    4.61
   0   1  21   16.05    4.15
   0  -1  21   16.58    4.57
   0   1 -22   26.20    8.61
   0   1  22   44.65    6.29
   0  -1  22   28.43    7.65
   0   1 -22   34.23    6.37
   0   1 -22   46.30    7.01
   0  -1 -22   29.95    6.46
   0   1  22   46.35    5.48
   0  -1 -22   34.85    5.91
   0  -1 -22   42.23    6.37
   0   1  22   52.74    6.43
   0  -1  22   51.38    7.37
   0  -1  22   43.21    5.99
   0  -1 -23   86.85    8.25
   0  -1 -23  116.96    8.86
   0   1  23  108.48    8.86
   0  -1 -23  134.74    9.51
   0  -1  23   74.94   10.91
   0   1 -23   86.33    8.74
   0   1 -23  120.07    9.87
   0  -1  23  133.02   10.17
   0   1  23  134.79    8.77
   0   1  23  100.18    9.36
   0   1 -23   60.03   11.80
   0   1  23  118.38    7.51
   0   1  24   38.30    6.44
   0  -1 -24   50.75    6.31
   0   1  24   58.82    6.34
   0   1  24   54.95    6.83
   0  -1  24   40.04    7.76
   0  -1 -24   51.44    5.94
   0   1 -24   25.50    8.50
   0   1 -24   46.96    7.12
   0  -1  24   56.71    7.23
   0  -1 -25   10.40    3.39
   0   1  25   10.18    3.25
   0   1 -25    2.46    4.47
   0  -1  25   12.55    3.91
   0  -1  25    6.00    4.29
   0   1 -25   11.29    4.02
   0   1  25   10.35    3.71
   0   1  25    4.25    3.61
   0   1 -26    2.43    2.94
   0  -1 -26   -2.13    2.25
   0   1  26   -0.41    2.64
   0  -1  26   -2.74    2.74
   0   1 -26   -0.63    2.75
   0  -1  26    2.16    2.25
   0   1  27   15.61    2.99
   0  -1  27    9.83    3.66
   0  -1 -27   17.11    3.51
   0  -1  27   18.27    3.67
   0  -2   0   40.07    4.54
   0   2   0   43.36    4.92
   0  -2   0   37.20    4.44
   0  -2   0   46.57    6.15
   0   2   0   43.69    5.86
   0   2  -1  667.79   19.46
   0  -2   1  663.80   16.38
   0  -2   1  662.60   17.02
   0  -2  -1  644.86   17.45
   0  -2  -1  683.57   19.95
   0  -2   1  722.14   21.68
   0  -2  -1  649.95   16.29
   0   2   1  683.03   20.33
   0   2   1  715.75   17.28
   0  -2  -2  145.83    8.51
   0   2   2  156.39   10.45
   0   2   2  152.55    8.29
   0  -2   2  167.41   11.34
   0  -2   2  157.48    8.34
   0  -2  -2  149.71    8.22
   0  -2   2  171.83   11.54
   0   2  -2  162.39    9.82
   0  -2  -3  537.36   15.82
   0  -2   3  572.95   20.57
   0  -2   3  592.56   20.57
   0  -2   3  533.41   14.72
   0   2   3  544.72   15.35
   0   2   3  553.13    7.74
   0   2  -3  550.10   17.14
   0   2   3  553.39   19.12
   0  -2  -3  527.68   15.65
   0   2   3  595.30   12.36
   0   2  -3  574.72   16.87
   0   2  -4  474.63   15.84
   0   2   4  443.48    7.98
   0   2  -4  514.01   17.26
   0  -2  -4  447.68   12.10
   0  -2  -4  513.03   16.45
   0  -2   4  538.00   20.12
   0   2   4  534.88   12.60
   0  -2   4  498.10   14.15
   0   2   4  471.26   14.43
   0  -2  -4  484.89   11.96
   0  -2  -4  484.98   15.22
   0  -2   4  491.13   19.94
   0   2   5  455.16   12.30
   0  -2   5  449.12   18.85
   0  -2  -5  397.37   11.29
   0  -2   5  474.72   19.16
   0  -2  -5  453.90   15.61
   0  -2  -5  414.44   14.56
   0   2   5  410.79   13.84
   0   2  -5  430.91   15.28
   0   2   5  438.57    8.83
   0  -2  -5  349.68   12.71
   0  -2  -5  433.19   11.12
   0   2  -5  453.19   16.91
   0  -2   5  407.59   12.74
   0   2  -6  125.00    9.89
   0   2   6  127.58    5.56
   0   2  -6  117.89    8.43
   0  -2  -6  138.60    9.61
   0  -2   6  127.76   10.72
   0  -2   6  135.75   11.39
   0  -2  -6  133.28    6.98
   0  -2  -6  115.78    7.45
   0   2   6  123.25    8.09
   0   2   6  136.52    7.50
   0  -2  -6  118.51    9.01
   0  -2   6  117.47    6.89
   0  -2   7  162.37    8.39
   0  -2  -7  156.29    8.50
   0  -2  -7  167.22   10.79
   0   2   7  164.28    9.43
   0   2   7  174.37    8.72
   0  -2   7  176.38   12.98
   0  -2   7  166.98   12.45
   0   2  -7  176.86   11.60
   0   2  -7  172.76   10.16
   0  -2  -8  601.85   20.86
   0  -2   8  614.02   15.87
   0  -2   8  649.69   24.07
   0   2   8  575.90   17.91
   0  -2  -8  575.45   11.14
   0   2   8  639.58   14.24
   0   2   8  651.71   17.03
   0  -2   8  594.59   23.62
   0   2  -8  572.54   21.56
   0   2  -8  632.94   19.03
   0  -2  -8  651.53   16.74
   0  -2   9  232.41   15.52
   0  -2  -9  220.35   13.64
   0   2   9  241.04    9.62
   0   2  -9  233.03   14.57
   0  -2   9  224.58   10.14
   0   2   9  236.06   11.21
   0  -2   9  229.37   15.46
   0   2  -9  220.17   11.89
   0   2   9  225.29   11.73
   0  -2  -9  284.85   11.68
   0   2 -10  372.16   15.97
   0   2 -10  425.17   20.76
   0   2  10  381.57   15.70
   0  -2  10  365.84   20.11
   0   2  10  393.87   14.82
   0  -2 -10  384.04   18.48
   0  -2  10  391.60   19.78
   0  -2  10  390.00   13.66
   0   2  11   30.49    5.35
   0   2 -11   26.98    7.19
   0  -2  11   23.82    4.64
   0  -2 -11   27.55    6.92
   0   2  11   22.54    4.59
   0  -2  11   25.27    6.98
   0  -2  11   30.26    6.71
   0   2  12    8.14    4.01
   0   2  12    5.77    4.13
   0   2 -12    9.06    5.56
   0  -2  12    9.46    6.07
   0  -2  12    6.58    3.48
   0  -2  12   15.33    5.35
   0   2  12   12.59    4.28
   0  -2 -12   13.38    6.06
   0   2  13   58.97    7.81
   0   2  13   49.17    7.11
   0  -2  13   46.71    9.35
   0  -2 -13   41.49    8.30
   0   2 -13   54.37    6.51
   0  -2  13   52.26    9.32
   0  -2  13   41.89    6.18
   0   2  13   49.10    6.72
   0   2  13   50.68    6.16
   0   2 -13   51.14    9.32
   0   2 -14  119.95   13.12
   0   2 -14  120.82   14.32
   0  -2 -14  124.33   11.70
   0   2 -14  107.72    8.54
   0  -2 -14  139.16    8.09
   0  -2  14  117.50   13.89
   0   2  14  124.56   10.06
   0  -2 -14  126.40   14.19
   0  -2  14  144.96    9.74
   0   2  14  143.32    9.58
   0  -2  14  125.22   13.98
   0   2 -14  130.70   10.39
   0   2  14  124.33    7.33
   0  -2 -14  178.35    9.36
   0  -2  14   92.23    9.24
   0  -2 -15  570.96   15.75
   0   2 -15  565.16   27.28
   0   2 -15  567.65   20.22
   0  -2  15  582.54   19.47
   0  -2  15  498.83   27.78
   0  -2  15  513.11   27.63
   0   2 -15  619.31   26.11
   0  -2  15  404.28   18.81
   0   2 -15  395.02   16.88
   0  -2 -15  494.34   26.56
   0  -2 -15  636.10   17.50
   0   2  15  592.85   18.61
   0  -2 -15  600.70   23.64
   0  -2  16  120.81   15.39
   0  -2 -16  134.98    8.60
   0   2 -16  103.45    9.47
   0  -2  16  148.16   10.68
   0   2 -16  126.95   13.93
   0  -2 -16  134.40   13.00
   0  -2  16   90.64   11.51
   0   2 -16  150.25   11.15
   0  -2 -16  116.93    9.15
   0   2  16  153.78    9.61
   0  -2  16  115.42   15.12
   0   2 -16  129.67   15.81
   0   2  17   21.14    4.94
   0  -2  17   14.89    6.42
   0  -2 -17   16.26    4.95
   0   2 -17   24.46   10.11
   0   2 -17   16.30    6.86
   0  -2  17   20.42    7.87
   0  -2  17   21.74    5.02
   0   2 -17   18.70    5.22
   0  -2 -17   24.13    4.79
   0  -2 -17   28.47    7.82
   0   2 -17   27.03    5.77
   0   2 -18   45.28   10.63
   0   2 -18   76.77    9.33
   0   2 -18   66.19    7.59
   0  -2  18   72.70   10.57
   0   2 -18   60.02   11.15
   0   2  18   81.58    6.80
   0   2 -18   86.96    9.27
   0   2  18   82.56    8.20
   0  -2 -18   77.72   11.06
   0  -2 -18   79.97    7.43
   0  -2  18   65.08   12.98
   0  -2  18   84.08    8.85
   0  -2 -18   58.84    7.91
   0  -2  19  129.25   10.85
   0  -2  19  139.70   13.35
   0  -2 -19  107.81    9.24
   0  -2 -19  117.55   10.23
   0   2  19  148.77   10.01
   0  -2  19   91.07   14.68
   0   2 -19  123.37   11.57
   0  -2 -19  129.55   14.56
   0   2 -19  138.54   11.79
   0   2  19  146.29   10.33
   0   2  19  137.36    8.45
   0   2 -19   92.12   13.92
   0  -2 -20   13.77   10.09
   0  -2 -20    8.44    4.41
   0  -2 -20   16.84    3.91
   0   2 -20   14.35    4.94
   0  -2  20   10.21    7.78
   0   2  20   11.81    4.18
   0   2  20   13.49    3.82
   0   2  20   14.63    4.20
   0   2 -20   12.67    6.80
   0   2 -20   13.61    5.07
   0  -2  20    9.15    5.33
   0  -2  20   10.61    4.76
   0  -2  21   13.14   12.69
   0   2  21   12.38    4.00
   0  -2  21   11.03    4.55
   0   2  21    7.84    3.41
   0  -2 -21    8.14    3.82
   0   2 -21    3.94    5.43
   0   2  21   12.91    4.09
   0  -2 -21    6.01    3.92
   0   2 -21    6.49    4.09
   0  -2  21    6.22    5.12
   0   2 -21    8.06    4.31
   0  -2  22   30.45    5.45
   0   2  22   30.27    4.93
   0   2  22   30.27    4.35
   0  -2 -22   20.09    4.97
   0   2 -22   15.36    6.40
   0  -2  22   22.84    6.26
   0  -2 -22   25.63    4.69
   0   2  22   26.55    4.84
   0   2 -22   27.38    6.07
   0   2  23   44.76    5.57
   0  -2  23   44.33    6.02
   0   2 -23   31.22    7.45
   0   2  23   38.85    5.25
   0   2  23   39.18    5.54
   0  -2  23   20.69    6.54
   0  -2 -23   36.34    5.42
   0  -2 -23   33.39    5.22
   0   2  23   39.10    4.54
   0   2 -23   33.35    6.37
   0  -2  24   22.16    4.50
   0   2 -24   21.45    4.80
   0  -2  24   13.70    4.88
   0   2  24   19.62    4.07
   0  -2  24   23.63    4.39
   0   2 -24   19.02    5.58
   0  -2 -24   18.74    4.18
   0  -2 -24   18.38    3.83
   0   2  24   23.33    4.06
   0   2  24   28.47    4.23
   0   2  25   27.89    4.50
   0   2  25   40.57    4.40
   0  -2  25   30.25    4.62
   0  -2  25   35.52    4.54
   0   2 -25   22.47    4.62
   0  -2 -25   28.34    4.11
   0   2 -25   17.00    5.08
   0  -2 -25   17.78    4.46
   0  -2  25   19.33    4.85
   0  -2  26   19.30    4.66
   0  -2 -26   19.32    3.98
   0   2 -26   11.58    4.05
   0  -3   0    0.75    3.07
   0  -3   0    1.17    3.76
   0   3   0    0.85    4.42
   0  -3   0   -0.20    3.12
   0  -3   1  139.74   11.30
   0  -3  -1  146.30   10.81
   0  -3   1  208.61   12.08
   0   3  -1  195.95   14.13
   0  -3  -1  178.99   11.29
   0   3   1  198.08   14.41
   0  -3   1  194.73   14.36
   0   3  -2 1002.24   29.83
   0  -3   2  985.58   24.38
   0  -3   2 1024.33   32.38
   0  -3   2  991.86   25.33
   0  -3  -2  932.35   25.18
   0  -3  -2  999.80   26.56
   0   3   2  993.50   31.67
   0  -3  -3  698.00   25.10
   0   3   3  720.79   27.82
   0   3  -3  761.94   25.41
   0  -3  -3  739.26   18.85
   0  -3   3  699.27   22.45
   0   3   3  788.53   22.81
   0   3   3  668.52   16.30
   0  -3   3  739.45   20.88
   0  -3   3  787.38   28.80
   0  -3  -3  732.22   23.48
   0   3   4  243.74   17.36
   0  -3  -4  267.76   15.58
   0  -3   4  264.60   12.63
   0   3   4  208.85    9.75
   0   3  -4  260.81   15.22
   0  -3   4  274.47   17.86
   0  -3  -4  257.63   14.80
   0  -3   4  228.29   14.01
   0   3   4  276.29   13.66
   0  -3  -5  202.24   12.33
   0  -3   5  240.61   12.42
   0  -3   5  268.03   18.06
   0  -3  -5  266.89   15.72
   0  -3  -5  271.41   15.08
   0   3   5  231.77   17.45
   0   3   5  254.81   13.18
   0   3   5  223.55   10.54
   0  -3   5  267.14   18.02
   0   3  -5  237.60   14.47
   0  -3  -6  191.42   11.74
   0  -3  -6  211.80   14.39
   0  -3   6  198.93   16.53
   0  -3  -6  215.93   14.36
   0   3   6  205.87   12.16
   0  -3   6  230.51   17.05
   0  -3   6  193.79   10.95
   0   3  -6  186.00   13.08
   0   3   6  187.33   16.19
   0   3   7   96.24    8.11
   0  -3  -7  101.58   10.13
   0  -3   7   92.88    7.92
   0  -3   7   89.28   12.22
   0   3   7   85.79   12.01
   0   3   7  108.06    9.09
   0   3  -7   97.95    9.84
   0  -3  -7   85.72    8.34
   0  -3   7  108.27   12.79
   0  -3  -7   98.73   10.86
   0  -3  -8   58.90    8.47
   0  -3   8   40.02    9.24
   0  -3   8   43.25    6.14
   0  -3  -8   55.15    6.73
   0   3   8   49.68    6.58
   0   3   8   48.88    9.61
   0   3  -8   40.42    6.89
   0  -3   8   58.27    9.88
   0  -3  -9  480.52   22.61
   0   3  -9  351.03   17.97
   0  -3   9  462.43   17.16
   0  -3  -9  428.61   18.24
   0   3   9  426.85   25.34
   0  -3   9  517.63   26.74
   0   3   9  474.15   17.95
   0  -3   9  418.15   24.54
   0  -3 -10  231.01   16.59
   0   3 -10  129.69   12.03
   0  -3  10  217.87   18.32
   0   3  10  230.36    9.96
   0  -3  10  177.15   16.94
   0  -3  10  188.63   11.86
   0   3  10  166.46   18.09
   0  -3 -10  248.22   13.93
   0  -3 -10  235.20    8.42
   0  -3 -10  239.37    9.68
   0   3  10  208.58   12.79
   0   3  10  247.47   12.21
   0  -3  11   14.34    4.67
   0  -3 -11   28.02    3.96
   0  -3 -11   11.73    3.99
   0   3 -11   14.75    6.08
   0  -3  11    8.50    5.56
   0   3 -11   18.21    5.10
   0  -3  11   20.04    5.34
   0   3  11   21.05    4.77
   0   3 -11    9.81    4.79
   0   3  11   16.20    4.20
   0  -3 -11   21.99    7.16
   0  -3 -11   15.03    2.90
   0  -3 -11   21.86    4.11
   0   3 -11   19.46    5.03
   0   3  11   14.36    4.94
   0  -3  11   11.77    6.93
   0  -3  12  149.00   12.95
   0   3 -12  185.35   12.19
   0  -3  12  125.18   15.29
   0   3  12  177.05   10.45
   0  -3 -12   71.44    8.77
   0  -3  12   85.75    9.64
   0  -3  12   89.62   13.29
   0   3 -12  176.24   13.12
   0   3  12  156.35    8.78
   0  -3 -12  169.69   15.76
   0  -3 -12  172.53    8.25
   0  -3 -12  139.95    7.34
   0   3 -12  141.22   13.69
   0  -3 -12  156.18    8.89
   0   3 -12  150.78   11.28
   0  -3 -13  106.22    8.37
   0   3 -13  180.52   12.93
   0   3 -13  180.26   12.35
   0  -3  13  133.08   12.12
   0  -3  13   99.12   10.65
   0   3 -13  135.48   10.75
   0  -3  13  132.35   15.65
   0   3 -13  136.81   13.41
   0  -3 -13  137.06    8.38
   0  -3  13   82.11   12.96
   0   3  13  118.63    8.72
   0   3 -13  142.59   16.71
   0  -3 -13  149.02   17.20
   0   3  13  158.14   10.06
   0  -3  14   70.50   10.05
   0   3 -14  165.69   13.08
   0  -3  14  113.71   15.68
   0   3 -14  170.73   11.42
   0  -3  14  133.25    9.76
   0  -3  14  137.70   12.14
   0   3  14  140.20    8.74
   0   3 -14  123.06   12.66
   0   3 -14  141.93   17.48
   0  -3 -14  131.81   18.60
   0  -3 -14  133.49    9.27
   0   3 -14  140.16   11.08
   0  -3  14   94.47   14.17
   0  -3 -14  148.76    8.44
   0   3  14  164.84   10.25
   0  -3  15  177.21   11.21
   0   3 -15  187.29   12.21
   0  -3  15   90.54   14.58
   0  -3  15  166.13   13.77
   0  -3 -15  182.49   19.36
   0   3  15  200.55   11.24
   0   3  15  157.20    9.81
   0   3 -15  143.62   17.46
   0  -3 -15  169.86   14.89
   0   3 -15  150.20   14.68
   0  -3  15  163.03   17.95
   0  -3 -15  183.81   10.85
   0  -3 -15  168.97    9.14
   0   3 -15  234.44   15.05
   0   3 -16  108.74   10.14
   0   3  16  115.42    9.57
   0   3 -16  104.92   11.21
   0  -3 -16  104.67   11.76
   0   3 -16   86.29   12.16
   0   3  16   99.35    7.74
   0  -3  16   83.05   11.06
   0  -3  16   59.22   12.69
   0  -3  16  103.28   15.28
   0  -3 -16  110.72    8.90
   0  -3 -16   70.28    7.04
   0  -3  16  107.43    9.29
   0  -3  17    7.02    5.62
   0   3 -17   17.54    5.02
   0   3  17   11.69    4.09
   0   3 -17    8.78    5.22
   0  -3  17   11.79    4.94
   0   3  17   14.51    4.18
   0   3  17    9.27    3.81
   0  -3 -17   10.12    7.10
   0   3 -17    5.89    5.70
   0  -3 -17   10.24    3.59
   0   3  17   10.69    3.71
   0  -3 -17   10.73    4.20
   0  -3  17    5.03    6.29
   0   3 -18    8.35    5.01
   0   3  18   14.02    3.92
   0   3 -18    7.15    4.25
   0  -3  18    6.08    4.14
   0  -3  18    3.28    5.63
   0   3 -18    4.47    5.29
   0  -3  18    8.30    4.89
   0   3  18    6.98    3.38
   0   3  18    2.38    3.05
   0  -3 -18   13.82    9.96
   0  -3 -18    7.60    3.44
   0   3  18    9.81    3.90
   0  -3 -18    6.81    4.10
   0   3  19   39.47    4.96
   0  -3  19   39.82    5.78
   0  -3 -19   23.79    5.72
   0  -3  19   35.06    7.32
   0  -3 -19   33.59    5.43
   0   3 -19   38.88    6.83
   0   3  19   31.47    5.22
   0   3 -19   47.89    7.30
   0  -3 -19   28.59    5.95
   0  -3  19   33.13   11.46
   0   3 -19   32.36    7.70
   0   3  19   40.51    6.07
   0   3  20  139.10    7.90
   0   3 -20  161.01   11.30
   0  -3  20  142.94    9.46
   0   3 -20  112.28   12.34
   0  -3 -20   85.29    8.89
   0   3  20  159.65   10.00
   0   3 -20  116.87   10.81
   0  -3  20  125.56   11.32
   0  -3 -20  131.78    8.78
   0   3  20  121.73    8.39
   0  -3  21   62.39    6.46
   0   3  21   64.57    6.50
   0   3 -21   65.95    7.62
   0   3  21   54.58    5.61
   0  -3  21   48.33    7.50
   0  -3 -21   57.12    6.02
   0   3 -21   47.32    8.04
   0   3  21   63.25    5.42
   0  -3 -21   39.59    6.13
   0   3 -21   51.31    7.26
   0  -3  21   61.85    7.30
   0   3  22    2.00    2.59
   0   3 -22    4.86    3.14
   0  -3 -22    9.09    2.95
   0   3 -22    2.14    3.59
   0  -3 -22    1.14    2.81
   0   3  22    3.32    2.42
   0   3 -22    5.96    3.36
   0  -3  22   -0.12    3.06
   0   3  22    1.40    2.60
   0  -3  22    2.80    2.98
   0  -3  23    6.83    3.48
   0  -3 -23   14.06    3.19
   0   3 -23    6.66    3.47
   0   3  23   13.28    2.71
   0   3 -23   10.36    3.96
   0  -3 -23    8.29    2.83
   0  -3  23   13.36    3.31
   0   3  23   14.56    3.19
   0  -3 -24    3.58    2.88
   0   3  24   11.91    2.96
   0  -3 -24   10.04    3.05
   0   3 -24    4.41    2.89
   0  -3  24   13.42    3.69
   0   3 -24    0.55    2.39
   0  -3  24    8.36    3.62
   0   4   0  713.44   17.12
   0  -4   0  692.57   20.94
   0  -4   0  523.94   20.61
   0  -4   0  718.76   26.49
   0   4   0  734.63   21.55
   0   4   0  577.83   28.28
   0   4   0  739.35   20.19
   0  -4   0  735.89   21.32
   0  -4  -1   10.18    4.92
   0  -4  -1   20.79    5.16
   0  -4   1   -1.31    7.00
   0   4   1   40.55    6.07
   0  -4  -1   24.64    5.34
   0  -4   1    8.39    4.93
   0   4   1   52.74    6.14
   0   4   1  117.36    7.63
   0   4  -1    9.85    5.09
   0   4  -1    7.00    3.89
   0   4  -1   14.31    8.10
   0   4   1   75.44    6.45
   0  -4   1   14.62    5.95
   0  -4   1    3.29    4.70
   0   4  -1   -2.58    4.91
   0   4   1   49.84    9.29
   0   4  -2  548.49   17.98
   0   4  -2  536.72   15.05
   0  -4  -2  460.48   17.81
   0  -4  -2  393.68   23.88
   0   4   2  445.49   13.13
   0   4   2  503.78   14.08
   0   4  -2  540.67   19.14
   0   4   2  477.39   26.84
   0  -4   2  477.48   22.80
   0  -4   2  486.41   17.80
   0  -4  -2  491.34   16.06
   0   4   2  562.49   19.09
   0   4   2  440.41   16.37
   0  -4   2  460.90   19.37
   0  -4  -2  503.19   17.50
   0   4   2  506.00   14.83
   0  -4  -2  335.27   17.10
   0  -4   2  546.06   19.08
   0  -4   2  530.12   19.27
   0   4  -2  491.41   25.01
   0   4  -3   54.50    5.23
   0  -4  -3   50.68    5.69
   0  -4  -3   53.88    9.63
   0  -4  -3   48.33    7.09
   0  -4  -3   52.07    6.53
   0  -4   3   63.51    6.59
   0   4  -3   66.62    7.79
   0  -4  -3   53.27    6.14
   0   4  -3   49.20    7.41
   0   4   3   41.60    5.52
   0   4   3   37.04    5.45
   0   4  -3   58.07    9.41
   0  -4   3   58.79    7.81
   0  -4   3   52.34    8.94
   0   4   3   40.48    6.37
   0   4   3   52.52    6.33
   0  -4  -3   30.72    6.75
   0   4   3   48.19   11.00
   0   4  -3   66.04    7.24
   0   4   3   65.29    7.51
   0  -4   3   41.44    6.48
   0   4  -3   54.66    6.25
   0   4  -4   29.36    5.29
   0   4   4   31.44    5.93
   0   4  -4   28.27    4.51
   0  -4   4   25.70    5.29
   0  -4  -4   30.82    5.90
   0   4  -4   31.03    6.06
   0   4   4   26.13    8.04
   0  -4  -4   29.56    5.27
   0  -4   4   19.94    7.12
   0  -4  -4   34.98    6.14
   0  -4   4   24.44    7.40
   0  -4  -4   24.13    4.93
   0  -4   4   34.21    5.94
   0  -4  -4   23.90    7.85
   0   4   4   22.52    4.87
   0  -4   4   36.51    7.01
   0   4   4   26.78    4.86
   0   4  -4   22.80    6.76
   0   4  -4   26.33    6.33
   0   4  -4   32.97    6.57
   0  -4  -4   28.39    5.95
   0   4   4   30.47    4.78
   0   4   4   22.29    4.30
   0   4   5   -2.97    5.44
   0  -4   5   -0.38    4.94
   0  -4  -5    0.19    3.18
   0   4  -5   -0.41    2.85
   0  -4   5   -0.01    5.09
   0  -4  -5    0.47    3.31
   0  -4   5    1.06    4.23
   0   4  -5    6.93    4.80
   0   4  -5    1.74    4.16
   0   4   5    0.77    3.51
   0   4  -5   -0.20    5.03
   0  -4   5    0.60    5.27
   0   4  -5    0.99    4.35
   0   4   5   -6.92    4.51
   0   4   5   -0.83    3.44
   0  -4  -5   -1.36    5.74
   0   4   5    1.61    3.17
   0  -4  -5    0.56    4.26
   0   4  -5   -0.93    5.00
   0  -4   5   -0.84    5.30
   0  -4  -5   -1.33    3.89
   0  -4   6   -1.41    4.37
   0   4  -6  -12.97    5.80
   0  -4  -6    4.18    4.31
   0   4  -6    3.41    4.17
   0   4   6    3.07    3.82
   0   4  -6    2.57    3.43
   0   4  -6   -0.68    5.30
   0   4   6    1.75    2.75
   0  -4  -6    1.22    3.41
   0  -4  -6    1.47    3.41
   0  -4   6    2.55    5.34
   0   4  -6   -2.24    4.29
   0  -4   6    3.08    4.45
   0   4  -6    6.21    5.85
   0  -4  -6    3.94    3.44
   0   4   6    2.92    3.34
   0  -4  -6   -0.21    5.22
   0   4   6    4.33    7.22
   0  -4   7   20.24    7.54
   0   4  -7   28.41    7.05
   0   4   7    8.13   10.62
   0   4   7   22.21    4.23
   0  -4   7   26.17    6.28
   0   4  -7   13.76    6.48
   0   4   7   24.77    4.51
   0  -4   7   12.81    6.04
   0   4   7   22.86    5.02
   0  -4  -7   17.61    4.58
   0  -4  -7   25.26    5.76
   0   4  -7   27.92    6.15
   0   4  -7   20.48    6.58
   0   4  -7   29.09    5.90
   0   4  -7   27.50    5.09
   0  -4  -7   34.84    4.76
   0  -4  -7   26.88    5.92
   0  -4  -7   23.43    3.64
   0   4  -8   63.90    8.66
   0   4  -8   68.53    8.15
   0   4  -8   41.34    8.63
   0   4   8   59.04    6.01
   0  -4   8   59.63    7.80
   0  -4  -8   55.95    6.88
   0   4  -8   61.62    8.54
   0  -4  -8   49.56    7.51
   0  -4  -8   48.57    5.89
   0   4  -8   60.18    7.48
   0   4   8   49.13   15.25
   0  -4  -8   63.81    5.60
   0   4   8   59.72    6.51
   0  -4  -8   55.00    4.87
   0  -4   8   41.65   10.11
   0  -4   8   36.47    8.30
   0  -4  -9  138.84    7.42
   0   4  -9  111.62   11.05
   0   4   9  107.50    8.41
   0  -4   9   93.76   13.45
   0  -4  -9  141.25    8.50
   0  -4  -9   92.96    8.58
   0   4  -9  117.89   10.54
   0   4  -9   81.81   12.75
   0   4   9  100.21    7.88
   0  -4  -9  110.83    6.66
   0   4  -9  138.14   10.42
   0  -4  -9   86.06    9.84
   0  -4   9  130.11   10.39
   0   4  -9  120.62   10.04
   0  -4   9   58.76    9.31
   0   4   9   81.73   18.02
   0   4   9  118.46    8.64
   0  -4 -10  350.87   11.18
   0  -4  10  214.64   14.83
   0   4  10  353.39   13.92
   0   4  10  328.38   13.96
   0   4 -10  320.73   18.07
   0  -4 -10  233.45   16.02
   0  -4  10  258.64   21.49
   0  -4 -10  372.13   11.76
   0  -4 -10  377.85   13.22
   0   4 -10  314.49   16.21
   0   4 -10  320.38   16.50
   0  -4 -10  237.96   13.70
   0   4  10  229.71   25.45
   0   4 -10  320.62   15.50
   0  -4  10  349.52   16.43
   0   4  10  384.71   13.65
   0   4 -10  252.30   21.43
   0   4  11    0.35    4.17
   0   4 -11    0.54    4.80
   0  -4 -11    2.37    2.86
   0  -4 -11    6.29    2.47
   0  -4 -11    1.77    1.75
   0   4 -11    1.77    3.47
   0  -4  11  -12.25    6.90
   0   4 -11    0.31    3.31
   0  -4 -11    0.31    2.69
   0   4  11    3.49    2.65
   0   4  11   -0.02    3.08
   0  -4  11    0.04    4.10
   0   4 -11    3.95    4.08
   0   4 -11    4.64    4.12
   0  -4 -12   34.09    5.11
   0  -4 -12   13.22    3.15
   0  -4  12   13.18    6.98
   0  -4 -12   11.91    4.83
   0   4 -12   20.13    6.31
   0   4 -12   28.32    6.34
   0  -4  12   27.52    6.07
   0   4  12   23.27    4.73
   0   4 -12   22.55    5.23
   0  -4 -12   17.11    3.43
   0   4  12   25.13    4.56
   0   4 -12   27.36    5.87
   0  -4  13   25.34    7.95
   0   4  13   42.60    5.97
   0   4 -13   32.62    6.59
   0  -4 -13   29.51    4.38
   0   4  13   46.60    6.27
   0  -4  13   43.68    7.16
   0   4 -13   28.58    7.43
   0   4 -13   42.59    7.61
   0  -4 -13   31.67    5.53
   0   4 -13   58.30    7.34
   0  -4 -14   60.69   12.04
   0   4  14   57.16    6.61
   0   4 -14   66.84    7.47
   0  -4  14   56.78    8.03
   0   4 -14   38.63    8.50
   0   4  14   69.90    5.70
   0   4 -14   66.33    8.97
   0   4  14   64.86    6.98
   0  -4 -14   48.06    5.25
   0   4 -14   48.57    7.64
   0  -4  14   46.33   10.74
   0  -4 -14   43.81    6.30
   0   4 -15   28.32    6.41
   0   4 -15   24.27    6.30
   0  -4 -15   17.12    4.69
   0   4  15   24.32    4.86
   0  -4 -15   25.74    4.28
   0   4  15   26.58    4.21
   0   4 -15   22.84    5.87
   0  -4  15   24.40    5.33
   0  -4 -15   33.86   10.04
   0   4  15   27.23    4.96
   0  -4  15   27.54    5.90
   0   4 -15   16.49    5.05
   0   4 -16   65.40    8.36
   0   4 -16   94.22    9.63
   0   4 -16   62.19    9.20
   0   4  16   64.36    7.14
   0  -4 -16   77.15    6.55
   0  -4 -16   68.31    7.47
   0   4 -16   88.93    8.11
   0  -4  16   74.68    8.11
   0   4  16   82.46    7.64
   0   4  16   78.57    5.70
   0  -4  16   86.20    8.65
   0  -4  17    6.93    4.15
   0   4  17    2.52    2.88
   0   4 -17   -0.52    3.90
   0   4 -17    3.30    3.49
   0   4  17    4.44    3.25
   0   4  17    4.85    2.84
   0   4 -17    6.10    4.00
   0  -4 -17    1.69    3.23
   0  -4 -17   10.64    3.06
   0  -4  17    9.52    3.71
   0  -4  18    3.64    3.37
   0   4  18   -1.68    2.92
   0   4  18   -1.23    2.83
   0  -4  18    2.49    2.98
   0  -4 -18    5.49    2.67
   0   4 -18    1.90    3.23
   0   4 -18    2.26    3.33
   0   4  18    1.13    2.56
   0  -4 -18    0.62    3.06
   0   4 -18    3.57    3.21
   0   4  19  141.74    6.63
   0   4 -19  111.47    9.60
   0  -4 -19  111.14    8.60
   0   4  19  162.91    9.15
   0  -4  19  133.65    8.78
   0   4 -19   97.48    9.64
   0   4 -19  150.65   10.91
   0  -4  19  160.09   10.24
   0  -4 -19  150.38    7.79
   0   4  19  144.85    7.92
   0  -4  20   73.78    7.00
   0   4 -20   52.98    6.45
   0   4  20   75.00    6.47
   0  -4  20   62.19    5.49
   0  -4  20   64.21    5.83
   0   4 -20   56.45    6.60
   0   4 -20   78.60    7.48
   0  -4 -20   39.40    5.65
   0   4  20   73.65    5.09
   0   4  20   78.00    4.59
   0  -4 -20   81.82    5.51
   0  -4 -21   17.19    3.12
   0  -4 -21    7.35    2.88
   0  -4  21   19.16    4.07
   0   4 -21   19.76    4.60
   0   4  21   17.83    3.41
   0  -4  21   14.82    3.59
   0  -4 -22    6.30    3.09
   0  -4  22   11.32    3.47
   0  -4  22    2.01    2.42
   0  -5   0    9.66    5.35
   0   5   0   15.92    5.12
   0  -5   0   11.08    4.04
   0  -5   0    2.58    6.97
   0  -5   0   10.61    4.66
   0   5   0   15.73    5.07
   0  -5   0   10.60    4.76
   0  -5   1  241.31   11.70
   0  -5   1  345.18   16.36
   0  -5  -1  270.88   21.80
   0   5  -1  400.39   16.38
   0   5  -1  331.47   13.41
   0  -5   1  321.48   16.23
   0   5  -1  324.43   15.31
   0   5   1  354.43   15.68
   0  -5  -1  361.06   15.89
   0  -5  -1  344.28   14.24
   0  -5   1  348.50   14.78
   0  -5  -1  355.37   16.21
   0   5   1  407.01   16.47
   0   5   1  383.21   13.99
   0  -5   1  252.77   21.00
   0  -5  -1  269.18   11.77
   0  -5  -1  283.95   18.93
   0  -5   2  318.72   15.91
   0   5  -2  357.88   15.94
   0  -5   2  343.16   16.13
   0  -5  -2  288.74   18.83
   0  -5  -2  231.34   19.61
   0   5   2  375.43   14.04
   0  -5  -2  269.87   11.62
   0   5   2  416.26   16.99
   0   5  -2  294.64   12.35
   0  -5  -2  351.66   14.40
   0   5   2  270.17   14.68
   0   5  -2  363.86   15.66
   0   5   2  199.57    9.93
   0  -5  -2  329.16   15.21
   0  -5  -3   48.88    6.69
   0  -5  -3   32.35    5.08
   0  -5   3   42.65    6.61
   0  -5  -3   49.41    6.03
   0   5   3   11.44    6.10
   0   5  -3   51.35    6.59
   0   5   3   57.61    7.28
   0   5   3   33.91    6.49
   0   5  -3   20.59    4.21
   0  -5   3   45.21    6.66
   0  -5  -3   31.55    7.51
   0   5   3   19.60    4.69
   0   5  -3   39.10    6.30
   0  -5  -3   20.47    8.48
   0   5  -4   -0.28    3.77
   0  -5   4    2.11    3.33
   0  -5  -4    1.09    2.66
   0  -5  -4   -0.41    5.64
   0  -5  -4   -0.19    3.61
   0  -5  -4    0.18    2.82
   0   5   4    0.37    2.97
   0  -5   4   -1.49    3.60
   0   5  -4    3.49    2.66
   0   5   4    1.66    3.84
   0  -5  -4   -0.94    4.57
   0   5  -4    0.88    3.63
   0   5   4   -5.55    4.23
   0   5  -5   38.30    6.35
   0   5  -5   26.05    4.31
   0  -5  -5   21.57    3.33
   0  -5  -5   28.96    5.32
   0  -5  -5   22.47    5.70
   0  -5  -5   26.63    5.04
   0   5   5   29.57    5.25
   0  -5   5   34.50    6.12
   0   5  -5   32.11    5.76
   0   5   5   21.09    4.46
   0  -5   5   28.91    5.87
   0  -5  -5   32.50    4.95
   0  -5   5   30.53    6.06
   0  -5   6   23.47    5.12
   0   5  -6   22.55    5.40
   0  -5  -6   20.97    4.85
   0   5   6   25.29    4.96
   0  -5  -6   26.44    4.66
   0   5   6   26.78    4.61
   0  -5   6   28.56    5.62
   0  -5   6   20.71    5.64
   0  -5  -6   25.84    5.18
   0  -5  -6   15.89    3.18
   0   5  -6   24.25    4.18
   0   5  -6   22.16    5.41
   0   5  -7   55.34    7.47
   0  -5  -7   41.05    6.19
   0  -5   7   62.67    7.24
   0  -5  -7   39.85    7.19
   0   5  -7   53.02    7.12
   0   5   7   46.09    5.97
   0  -5   7   52.83    7.70
   0   5  -7   60.79    7.52
   0   5  -7   32.05    4.74
   0  -5  -7   43.26    4.37
   0  -5  -7   59.90    6.27
   0   5   7   50.52    6.46
   0  -5   7   53.07    7.34
   0   5  -8    3.06    3.53
   0  -5   8    2.07    3.17
   0   5  -8    2.51    3.59
   0  -5  -8    6.26    4.12
   0  -5   8   -0.40    3.41
   0  -5  -8    1.60    1.87
   0   5   8    1.19    3.18
   0  -5  -8   -3.02    3.11
   0  -5   8    0.68    3.83
   0   5  -8    1.40    2.17
   0   5  -8    1.39    3.29
   0   5   8   -0.78    3.06
   0  -5  -8   -1.03    2.98
   0   5  -9   67.07    7.88
   0   5   9   60.55    6.68
   0  -5   9   51.74    7.86
   0  -5  -9   53.81    6.62
   0  -5  -9   54.16    5.08
   0   5   9   60.53    6.63
   0  -5  -9   52.99    5.99
   0  -5   9   73.00    7.93
   0   5  -9   65.96    7.95
   0   5  -9   65.19    8.20
   0  -5   9   65.15    7.50
   0  -5  10   30.32    6.25
   0   5  10   32.12    5.43
   0   5 -10   32.96    5.92
   0   5 -10   35.76    6.34
   0   5 -10   42.87    6.43
   0  -5  10   35.29    6.19
   0  -5 -10   26.78    5.36
   0   5  10   43.01    5.64
   0  -5 -10   20.93    3.95
   0  -5 -10   43.45    5.50
   0  -5  10   44.90    6.47
   0  -5  11   40.19    6.71
   0  -5 -11   41.62    5.83
   0   5 -11   46.28    6.55
   0  -5 -11   25.02    5.24
   0   5  11   41.09    5.69
   0   5 -11   38.15    6.56
   0   5  11   44.81    5.24
   0   5 -11   38.95    6.23
   0  -5  11   45.27    6.24
   0  -5  11   29.59    5.83
   0   5  12   20.51    4.22
   0  -5  12   11.14    4.27
   0   5 -12   21.08    5.19
   0   5 -12   10.01    4.18
   0  -5 -12   11.77    4.05
   0   5 -12   19.98    5.01
   0  -5  12   21.50    4.74
   0  -5  12   23.05    4.88
   0   5 -13   52.03    6.95
   0   5 -13   44.54    6.26
   0  -5  13   50.52    6.33
   0  -5  13   48.24    6.20
   0   5 -13   60.28    6.95
   0  -5  13   37.75    6.13
   0   5  13   41.19    5.47
   0   5  13   47.46    5.54
   0  -5 -13   32.64    5.43
   0   5  14   22.39    4.34
   0  -5  14   30.46    4.88
   0   5  14   28.23    4.14
   0   5 -14   27.66    4.93
   0   5 -14   23.34    4.69
   0  -5  14   28.23    4.79
   0  -5  14   19.15    4.82
   0   5 -14   22.50    5.14
   0  -5 -14   15.88    4.23
   0  -5 -15   54.52    6.22
   0  -5  15   71.08    6.71
   0   5  15   59.69    5.99
   0   5 -15   81.78    6.99
   0   5 -15   54.82    6.27
   0   5 -15   71.44    7.78
   0   5  15   71.53    5.83
   0  -5  15   58.17    6.71
   0  -5  15   68.93    6.85
   0   5 -16   15.00    3.55
   0  -5  16   11.83    3.15
   0  -5  16   10.14    3.49
   0  -5 -16    6.02    3.39
   0   5  16   12.50    3.37
   0   5 -16   12.44    3.20
   0  -5  16   16.71    3.59
   0   5  16   13.38    3.12
   0  -5  17    9.23    2.83
   0   5  17    8.46    2.48
   0  -5  17    5.18    2.77
   0  -5 -17    3.74    2.74
   0   5  17   11.58    2.84
   0  -5  17    8.47    2.61
   0  -5  18   24.74    4.35
   0  -5 -18   23.89    4.29
   0  -5  18   44.88    3.79
   0   5  18   36.23    4.04
   0   5  18   50.51    4.46
   0  -5  18   44.36    4.71
   0  -5 -19    2.76    2.30
   0  -5  19    4.23    2.39
   0  -5  19    3.08    2.00
   0   6   0   -4.41    5.69
   0  -6   0   25.99    4.61
   0   6   0    5.86    5.67
   0  -6   0   10.07    4.43
   0  -6   0   22.41    4.49
   0   6   1  223.72   10.72
   0   6  -1  115.81    8.18
   0  -6  -1  164.43    9.46
   0  -6   1  174.60    8.83
   0  -6   1  166.15    7.78
   0  -6  -1  202.36    8.69
   0   6  -1  145.02    9.72
   0  -6  -1  208.68    7.26
   0  -6  -1  174.90    8.96
   0  -6   1  141.35    8.82
   0   6  -2  342.73   14.59
   0   6  -2  234.67   10.88
   0  -6   2  394.80   11.09
   0  -6  -2  396.43   13.21
   0  -6  -2  338.54   12.57
   0  -6  -2  367.62    9.17
   0   6   2  314.23   12.09
   0  -6  -2  427.63   11.94
   0  -6   2  368.13   12.41
   0  -6   2  314.61   13.14
   0  -6   3   10.77    3.40
   0  -6   3   17.86    3.67
   0  -6  -3   18.36    3.58
   0  -6  -3   14.97    3.79
   0   6   3    7.99    4.77
   0   6  -3    2.53    3.67
   0   6  -3   -5.47    5.91
   0  -6  -3   33.96    3.21
   0  -6   3    7.69    3.36
   0   6  -3   16.89    4.08
   0  -6  -4  111.72    6.69
   0  -6   4   91.90    7.32
   0  -6   4  104.16    7.68
   0  -6  -4  108.26    5.13
   0  -6   4   91.75    5.76
   0   6  -4   66.16    6.32
   0  -6   4   97.74    6.69
   0   6   4   73.53    6.76
   0   6  -4  131.84    7.78
   0  -6  -4   79.16    6.50
   0   6   4   42.60    5.36
   0   6  -4   89.02    8.03
   0  -6  -5  205.25    6.86
   0   6   5  123.85    7.57
   0  -6   5  193.46    7.72
   0   6  -5  253.11   10.22
   0  -6   5  167.08    9.82
   0  -6   5  171.08    8.64
   0  -6  -5  239.42    9.22
   0  -6  -5  173.18    8.86
   0   6  -5  202.32   11.27
   0   6   5  167.82    9.03
   0  -6   5  165.66    9.75
   0   6  -5  161.07    8.50
   0   6  -6   90.35    6.33
   0  -6   6   58.62    6.17
   0   6   6   33.88    4.77
   0   6  -6   53.01    6.52
   0  -6   6   62.51    6.03
   0  -6  -6   77.77    5.71
   0  -6   6   64.79    4.67
   0   6   6   41.21    5.33
   0  -6  -6   51.69    5.25
   0  -6   6   57.76    5.27
   0  -6  -6   63.79    4.07
   0   6  -6   47.62    5.29
   0  -6  -7   19.52    3.43
   0  -6   7   25.97    4.32
   0   6   7   18.20    3.70
   0   6   7   20.07    3.66
   0  -6  -7   18.58    2.57
   0  -6  -7   19.63    3.74
   0  -6   7   20.78    3.46
   0  -6   7   26.01    4.05
   0   6  -7   13.60    3.47
   0  -6   7   17.11    3.38
   0   6  -7   21.50    4.48
   0  -6  -8   14.54    3.08
   0   6  -8   20.69    4.42
   0  -6   8   17.07    3.17
   0  -6   8   23.04    3.93
   0  -6   8   20.29    3.48
   0  -6  -8   17.06    3.57
   0  -6   8   25.54    4.21
   0   6   8   13.73    3.62
   0   6  -8   31.04    3.79
   0   6   8   18.29    3.29
   0  -6  -9   33.42    4.48
   0  -6   9   51.77    5.19
   0   6  -9   54.34    4.61
   0  -6   9   47.96    5.12
   0  -6   9   41.19    4.44
   0   6   9   45.97    4.32
   0   6  -9   41.19    5.80
   0  -6   9   24.09    3.73
   0   6   9   27.26    4.54
   0  -6 -10    8.27    3.09
   0   6  10   16.86    2.45
   0  -6  10   19.31    3.47
   0   6  10    8.26    3.15
   0  -6  10   16.80    3.21
   0  -6  10    7.35    2.25
   0  -6  10   13.31    2.88
   0   6 -10   18.12    4.12
   0  -6  11   -0.18    1.51
   0  -6 -11    0.85    2.17
   0  -6  11    2.42    2.15
   0   6  11    6.63    2.44
   0   6 -11    4.42    2.51
   0  -6  11    3.18    1.83
   0  -6  11    3.73    2.04
   0   6  11   -0.03    2.26
   0   6  12    4.95    2.32
   0  -6 -12    3.72    2.28
   0  -6  12    3.05    2.43
   0  -6  12    5.40    2.34
   0   6 -12    6.37    2.80
   0  -6  12    1.19    1.88
   0  -6  12    7.08    2.09
   0  -6  13   12.87    2.74
   0  -6 -13    4.79    2.66
   0   6 -13   10.98    3.14
   0   6  13    4.56    2.54
   0  -6  13    7.51    1.93
   0  -6  13    8.21    2.32
   0  -6 -14    1.92    1.66
   0  -6  14    2.13    1.48
   0   6  14    1.23    1.84
   0   7   0    4.82    1.87
   0   7   1   13.72    2.37
   0   7   2    1.48    1.49
   1   0 -27    6.08    5.14
  -1   0  27   14.47    5.31
  -1   0  26    1.91    2.29
  -1   0  26    4.06    2.82
   1   0 -26    0.28    2.87
  -1   0  26    3.14    3.06
   1   0 -25    0.47    4.01
  -1   0  25    0.44    3.50
  -1   0  25    3.23    2.92
   1   0 -25    3.50    3.05
   1   0 -24    8.38    4.07
   1   0 -24   15.61    5.12
  -1   0  24   14.63    4.05
  -1   0  23   18.61    4.69
   1   0 -23   11.44    4.43
   1   0 -23   20.42    5.08
   1   0 -23   18.93    5.41
  -1   0  23   24.84    3.93
   1   0 -22  148.18   11.29
  -1   0  22  145.59   10.51
   1   0 -22   97.64    9.62
   1   0 -22   92.25    9.73
  -1   0  22  144.73    8.53
   1   0 -21  314.96   16.27
   1   0 -21  318.70   15.55
  -1   0  21  373.85   13.29
  -1   0  21  358.34   24.58
   1   0 -21  303.19   16.12
   1   0 -20  357.02   15.46
  -1   0  20  344.20   23.36
  -1   0  20  360.31   12.81
   1   0 -20  303.21   15.87
   1   0 -20  286.53   15.64
  -1   0  19   38.37    4.86
   1   0 -19   44.90    7.29
   1   0 -19   31.62    6.08
   1   0 -19   37.12    5.38
  -1   0  19   30.53    8.65
   1   0 -18    3.22    3.70
  -1   0  18    6.15    3.50
  -1   0  18    1.95    5.20
  -1   0  18    3.01    4.18
   1   0 -18    8.67    4.74
   1   0 -18    3.26    2.95
   1   0 -17  122.16    9.76
   1   0 -17   97.27    8.33
  -1   0  17  109.90   12.44
   1   0 -17  123.24   11.67
  -1   0  17  110.64   10.86
  -1   0  16  219.14   12.73
  -1   0  16  204.17   13.50
   1   0 -16  241.08   20.76
  -1   0  16  232.05   15.95
   1   0 -16  233.01   12.90
   1   0 -16  214.33   10.85
   1   0 -16  209.49   12.44
  -1   0  15    8.09    4.09
  -1   0  15    4.45    4.65
  -1   0  15    9.98    4.38
   1   0 -15    7.44    6.18
   1   0 -14    5.46    4.71
  -1   0  14    7.82    3.80
   1   0 -14    7.04    5.74
  -1   0  14   10.22    3.57
  -1   0  14    4.76    3.96
  -1   0  13  154.50    8.68
  -1   0  13  140.13    9.64
  -1   0  13  132.27    8.16
   1   0 -13  166.34   11.31
   1   0 -13  158.06   14.06
   1   0 -12    3.05    5.01
  -1   0  12    5.93    2.47
  -1   0  12    7.04    3.10
   1   0 -12    5.47    3.38
  -1   0  12    5.68    3.41
  -1   0  12    8.79    2.85
  -1   0  11 1270.81   19.18
  -1   0  11 1280.19   22.15
  -1   0  11 1259.16   20.72
  -1   0  10  649.98   15.01
   1   0 -10  674.25   17.30
   1   0 -10  713.28   22.85
  -1   0  10  621.75   14.13
   1   0 -10  711.34   18.94
  -1   0  10  739.47   13.05
  -1   0   9  919.20   13.27
   1   0  -9  914.24   24.28
  -1   0   9  845.33   15.45
   1   0  -9  850.10   17.78
  -1   0   9  830.56   15.70
   1   0  -8   37.91    5.74
  -1   0   8   30.69    3.47
   1   0  -8   29.87    4.38
  -1   0   8   35.62    2.77
   1   0  -8   33.56    4.07
   1   0  -7   24.31    3.26
  -1   0   7   16.43    2.36
  -1   0   7   28.29    2.33
   1   0  -7   27.26    4.06
   1   0  -7   30.50    5.17
  -1   0   7   29.19    3.40
   1   0  -6 2789.23   32.43
   1   0  -6 2990.51   25.63
  -1   0   6 2729.81   25.55
  -1   0   6 2789.97   17.80
  -1   0   5 9430.65   31.18
   1   0  -5 9348.27   51.22
  -1   0   4 1831.81   14.57
   1   0  -4 2022.93   22.83
   1   0  -3 2347.37   23.97
   1   0  -3 2100.78   17.88
  -1   0   2  196.66    5.66
   1   0  -2  208.65    6.12
   1   0  -1  418.80    8.89
   1   0  -1  434.72    7.12
   1   0   0  515.89   10.04
   1   0   0  505.88    7.38
  -1   0   0  489.11    8.01
  -1   0  -1 3545.21   27.16
  -1   0  -1 3706.12   23.48
  -1   0  -2   14.26    1.87
  -1   0  -2   13.90    2.06
   1   0   2   12.58    1.46
   1   0   3 2229.10   23.54
  -1   0  -3 2280.15   18.22
  -1   0  -4 2098.49   21.54
  -1   0  -4 1978.14   17.77
  -1   0  -5   92.09    5.68
   1   0   5   69.94    5.16
  -1   0  -6    0.83    2.06
  -1   0  -6    2.55    2.26
   1   0   6    0.89    2.17
  -1   0  -7   76.38    5.75
  -1   0  -7   76.19    5.71
   1   0   7   67.29    5.68
  -1   0  -8 2607.98   31.44
   1   0   8 2702.50   35.06
   1   0   9  306.49   12.92
  -1   0  -9  292.54   11.98
  -1   0  -9  320.58   11.36
  -1   0 -10  929.66   20.16
  -1   0 -10  833.21   22.03
  -1   0 -10  986.27   21.88
   1   0  10  889.07   22.99
  -1   0 -11 2164.54   32.68
  -1   0 -11 2240.70   34.60
  -1   0 -12  243.92   12.55
  -1   0 -12  218.69   12.30
   1   0  12  240.03   14.32
  -1   0 -13   65.77    7.62
   1   0  13   56.47    8.30
  -1   0 -13   38.85    6.82
  -1   0 -14   16.99    5.08
  -1   0 -14    7.62    4.85
   1   0  14   11.90    5.54
   1   0  15   57.38   10.44
   1   0  15   80.65    7.41
   1   0  15   65.84    5.73
  -1   0 -15   94.72    8.50
  -1   0 -15   85.16    6.63
  -1   0 -15   45.45    8.50
  -1   0 -15   82.28    9.51
  -1   0 -15   76.61    7.04
  -1   0 -16   49.02    7.62
  -1   0 -16   46.24    8.66
   1   0  16   45.36    6.47
  -1   0 -16   54.43    6.44
   1   0  16   29.09    8.94
   1   0  16   47.48    7.05
  -1   0 -16   56.61    7.53
  -1   0 -16   52.64    8.41
   1   0  16   44.10    5.58
  -1   0 -17   25.60    5.76
   1   0  17   20.32   12.01
   1   0  17   20.00    4.16
  -1   0 -17   28.21    8.92
  -1   0 -17   18.69    4.24
   1   0  17   23.76    5.76
   1   0  17   24.58    5.03
  -1   0 -17   26.87    6.07
  -1   0 -18   10.45    3.91
   1   0  18    6.99    3.30
  -1   0 -18    0.71    6.41
   1   0  18    9.46    4.04
  -1   0 -18   10.82    4.58
   1   0  18   -4.79   11.48
   1   0  18    7.57    3.77
  -1   0 -19   -0.42    3.76
   1   0  19    1.53    3.44
  -1   0 -19    3.84    5.30
  -1   0 -19    2.05    3.18
   1   0  19    0.57    3.30
   1   0  19   -2.20    4.69
   1   0  20    7.28    3.84
  -1   0 -20    5.30    3.94
  -1   0 -20    7.46    4.48
   1   0  20    6.86    4.89
   1   0  20    7.62    4.12
   1   0  21   15.58    5.90
  -1   0 -21   18.41    5.01
  -1   0 -21   21.12    5.55
   1   0  21   17.16    5.08
  -1   0 -21    6.17   12.81
   1   0  21   17.26    4.65
  -1   0 -22   -0.71    2.77
   1   0  22    0.51    3.64
   1   0  22   -0.89    3.44
  -1   0 -22    0.53    3.30
  -1   0 -23   24.67    4.68
   1   0  23   15.39    5.07
  -1   0 -23   22.28    5.13
   1   0  23   22.04    5.17
  -1   0 -24   15.64    3.66
   1   0  24   13.16    4.23
   1   0  24   13.25    4.08
  -1   0 -24   18.24    4.41
   1   0  25   28.26    4.76
  -1   0 -25   36.44    4.90
   1   0  25   31.62    5.00
  -1   0 -25   23.85    5.77
   1   0  26    6.22    2.76
  -1   0 -26   10.10    3.61
  -1  -1  27    4.99    2.70
  -1   1  27    3.45    3.06
   1  -1 -27    0.36    3.55
   1   1 -27   -0.93    3.32
  -1   1  27    5.42    2.54
  -1  -1  27   -1.92    3.46
  -1   1  26    7.73    3.27
  -1   1  26    2.85    3.63
  -1  -1  26    5.73    3.78
   1  -1 -26    5.53    2.77
   1   1 -26    1.11    2.93
  -1   1  26    5.96    2.65
   1   1 -26    3.75    3.59
  -1  -1  26    6.97    2.85
  -1   1  25   60.44    6.41
  -1  -1  25   67.74    7.08
  -1  -1  25   28.40    7.58
   1  -1 -25   49.90    6.13
   1   1 -25   25.80    7.79
  -1   1  25   78.04    5.47
   1   1 -25   53.82    6.14
   1  -1 -25   33.45    5.11
  -1  -1  24   10.17    3.79
   1  -1 -24    5.40    3.57
  -1   1  24   12.15    3.26
   1  -1 -24    5.77    3.21
   1   1 -24   10.57    4.39
  -1   1  24    9.94    3.66
  -1  -1  24    8.18    3.59
   1   1 -24    0.16    4.52
   1   1 -23   35.58    6.62
   1  -1 -23   25.06    5.17
  -1  -1  23   38.29    5.29
   1   1 -23   20.12    7.16
  -1   1  23   37.85    4.95
  -1   1  23   49.88    5.90
  -1   1  23   37.18    5.76
   1  -1 -23   37.76    5.36
  -1  -1  23   33.77    6.28
  -1  -1  22   27.07    6.07
  -1   1  22   17.97   11.38
   1   1 -22   20.77    5.89
  -1   1  22   22.73    5.23
   1   1 -22   16.94    7.01
   1  -1 -22   16.38    5.31
   1   1 -22   19.98    5.25
  -1   1  22   25.89    4.80
  -1  -1  22    9.65   11.43
  -1   1  22   24.39    5.12
  -1  -1  22   22.38    5.07
   1  -1 -22   22.34    4.83
  -1  -1  21   11.01    4.33
   1  -1 -21    9.86    3.54
  -1   1  21    9.49    3.90
  -1   1  21    8.43    6.45
   1   1 -21    6.17    4.46
   1  -1 -21    9.97    4.54
  -1  -1  21    4.30    8.86
   1   1 -21    9.14    4.65
  -1   1  21   12.26    4.30
  -1  -1  20  117.45    9.47
   1  -1 -20  105.88    9.01
   1  -1 -20   96.40    9.92
  -1   1  20  103.25   13.60
   1   1 -20   89.99    9.42
  -1   1  20  126.88    8.44
   1   1 -20  122.99   11.39
  -1   1  20  112.46    9.17
   1  -1 -19  135.50   10.49
  -1   1  19  103.55   11.86
   1  -1 -19  124.65    9.31
  -1   1  19  116.83   13.78
   1   1 -19   98.22    9.63
  -1  -1  19  139.27    9.69
  -1  -1  19   96.66   18.76
  -1   1  19  120.92    9.61
  -1  -1  19  141.45   15.27
   1   1 -19  109.10   10.47
   1   1 -18    4.94    3.73
   1   1 -18    1.98    3.52
   1  -1 -18    5.31    3.57
  -1   1  18    1.74    4.01
  -1   1  18   10.06    5.87
  -1  -1  18    6.39    5.26
   1   1 -18    1.80    3.04
  -1   1  18    3.31    4.55
  -1   1  18    6.93    3.52
   1  -1 -18    4.67    3.01
   1  -1 -17  110.63    8.16
  -1   1  17  110.02    8.81
   1   1 -17   97.50   12.15
   1   1 -17   84.97    9.29
  -1   1  17   75.88    9.31
  -1  -1  17   97.77   12.42
  -1   1  17   97.71   11.30
   1  -1 -17   96.82    8.62
   1   1 -17   88.64    8.32
   1   1 -17  108.60   13.26
  -1   1  17   88.90   10.25
   1   1 -17  106.81    9.87
  -1   1  16   71.73    8.77
   1   1 -16   71.23    8.06
   1   1 -16   68.75   10.34
   1   1 -16   81.89    9.63
   1   1 -16   72.12   11.71
   1   1 -16   67.52    7.51
   1  -1 -16   63.73    6.91
  -1  -1  16   46.55    7.40
  -1   1  16   65.42    7.90
   1  -1 -16   83.49    8.10
  -1  -1  16   81.49   10.49
   1   1 -15  146.04    9.88
  -1   1  15  155.59   10.82
   1   1 -15  165.89   11.40
  -1   1  15  153.36   11.22
  -1  -1  15  165.65   13.55
   1  -1 -15  174.38   10.27
  -1  -1  15  137.89   10.83
  -1  -1  15  129.75    9.70
   1  -1 -15  163.36    8.65
   1   1 -15  136.86    8.59
   1   1 -15  161.89   14.76
   1  -1 -15  145.48   12.38
  -1   1  14   67.22    7.13
   1  -1 -14   54.99    8.08
   1   1 -14   66.84    9.78
  -1  -1  14   69.92    8.76
   1  -1 -14   71.55   10.79
  -1  -1  14   47.75    6.12
  -1   1  14   71.81    7.58
  -1  -1  14   62.96    7.33
  -1   1  13    5.63    3.08
  -1  -1  13    8.15    3.13
   1  -1 -13    3.56    4.85
   1  -1 -13    3.88    3.99
  -1  -1  13    5.92    3.70
  -1   1  13    6.48    3.32
  -1  -1  13    7.75    4.79
  -1   1  13    5.51    3.58
   1   1 -13    4.78    4.25
  -1   1  12  752.71   18.65
   1   1 -12  824.49   26.11
  -1   1  12  766.53   19.05
  -1  -1  12  701.73   18.92
  -1  -1  12  741.23   17.13
   1  -1 -12  756.09   22.44
   1  -1 -12  740.22   21.54
  -1  -1  12  801.53   22.97
   1  -1 -11  502.26   16.63
   1   1 -11  546.37   20.93
   1  -1 -11  556.64   14.29
  -1  -1  11  521.85   13.82
   1  -1 -11  542.46   19.90
   1  -1 -11  488.21   17.21
  -1   1  11  478.93   14.49
  -1  -1  11  516.58   17.50
  -1   1  11  441.13   13.63
  -1  -1  11  482.63   14.84
   1  -1 -10  410.08   14.10
   1  -1 -10  530.52   12.60
   1   1 -10  536.10   18.84
  -1  -1  10  529.02   13.34
  -1   1  10  521.56   13.66
  -1   1  10  461.47   13.65
  -1  -1  10  503.73   14.05
   1  -1 -10  540.09   18.34
   1  -1 -10  404.09   12.07
   1  -1 -10  495.77   16.60
   1  -1  -9  683.83   18.41
  -1   1   9  731.10   18.52
  -1  -1   9  684.25   14.77
   1  -1  -9  639.43   18.48
   1   1  -9  671.02   20.45
  -1   1   9  650.19   15.23
   1  -1  -9  648.84   13.51
  -1   1   9  599.83   13.80
   1  -1  -9  629.99   16.07
  -1  -1   9  624.65   14.32
   1  -1  -8  411.00   10.96
   1  -1  -8  431.75   11.06
  -1  -1   8  426.43   11.07
  -1   1   8  482.82   14.83
   1  -1  -8  476.37   14.69
  -1  -1   8  451.57   11.93
  -1  -1   8  423.51   10.69
  -1   1   8  428.30   11.95
   1  -1  -8  434.46   13.86
   1  -1  -8  435.13   12.36
   1   1  -8  445.60   15.95
   1  -1  -7 1294.89   22.86
   1  -1  -7 1338.03   19.64
  -1  -1   7 1283.16   16.78
   1   1  -7 1330.67   25.65
   1  -1  -7 1336.22   18.77
  -1  -1   7 1320.59   20.31
   1   1  -6 2873.44   34.41
  -1   1   6 2922.01   29.29
   1  -1  -6 2731.02   31.58
   1  -1  -6 2780.08   24.96
  -1   1   6 2604.61   32.49
   1  -1  -6 2819.23   25.89
  -1  -1   6 2937.82   31.30
   1  -1  -6 2757.34   26.16
  -1  -1   6 2857.52   22.25
  -1  -1   5  932.04   12.39
  -1  -1   5 1006.99   18.86
   1  -1  -5  939.99   14.52
  -1   1   5 1005.09   16.58
   1  -1  -5 1008.04   14.12
  -1  -1   5  935.70   11.90
   1   1  -5  976.31   19.00
   1  -1  -4  704.48   12.22
  -1  -1   4  665.62   15.48
  -1   1   4  656.05   12.99
   1   1  -4  700.58   17.12
  -1   1   3 1297.70   23.45
   1   1  -3 1691.82   11.20
   1   1  -3 1717.17   25.90
  -1  -1   3 1334.40   13.25
  -1   1   3 1659.26   27.22
   1  -1  -3 1544.26   17.05
   1   1  -2  601.76   13.07
   1  -1  -2  598.60    5.00
  -1   1   2  600.58   16.24
   1   1  -2  570.80    6.71
  -1  -1   2  602.30    9.90
   1   1  -1 2238.84   16.56
   1   1  -1 2547.19   31.75
   1  -1  -1 2392.86   12.73
  -1  -1   1 2893.55   32.61
   1   1  -1 2421.90   25.43
  -1  -1   1 2927.76   22.71
  -1   1   1 2532.94   32.42
  -1  -1   0 3928.65   27.56
  -1  -1   0 3662.10   35.26
   1   1   0 3164.49   28.11
  -1   1   0 3368.63   37.40
   1   1   0 3603.97   38.46
   1   1   1 4987.64   46.52
  -1   1  -1 4597.96   43.58
   1  -1   1 4501.10   23.11
   1   1   1 4529.54   33.66
  -1  -1  -1 5322.44   34.15
   1   1   2 8475.43   46.28
  -1   1  -2 8159.93   58.07
  -1   1  -2 9999.00   49.52
  -1   1  -2 9653.86   43.32
  -1  -1  -2 9394.72   48.59
   1  -1   2 8753.90   35.32
   1   1   2 8902.73   63.65
  -1   1  -3 7890.77   38.71
  -1  -1  -3 6906.72   50.92
  -1   1  -3 7054.89   55.14
   1  -1   3 7627.88   35.56
   1   1   3 7702.13   60.81
  -1  -1  -3 7125.20   44.40
  -1   1  -3 8557.05   46.76
  -1   1  -4 4657.55   45.18
  -1   1  -4 5401.84   37.88
   1   1   4 5060.18   49.85
  -1   1  -4 4726.80   29.98
  -1  -1  -4 4543.13   40.21
  -1  -1  -4 4696.69   42.12
  -1   1  -4 4500.35   40.41
   1  -1   4 5117.49   31.16
  -1  -1  -4 4915.43   39.17
  -1  -1  -5  217.36    9.20
  -1  -1  -5  241.23    9.86
   1  -1   5  246.60    7.48
  -1   1  -5  245.86    7.07
  -1   1  -5  238.34    9.29
  -1   1  -5  223.89   10.51
   1   1   5  236.20   11.74
  -1  -1  -5  237.87    9.99
   1  -1   6   61.51    4.31
  -1  -1  -6   55.34    5.17
   1   1   6   54.23    6.33
  -1  -1  -6   58.69    5.67
  -1  -1  -6   58.17    4.09
  -1   1  -6   55.48    3.72
   1  -1   6   57.66    6.78
  -1   1  -6   60.01    5.77
  -1   1  -6   51.51    5.73
  -1  -1  -7  543.47   12.30
  -1  -1  -7  733.90   18.52
  -1   1  -7  631.10   10.76
   1  -1   7  719.58   14.75
   1   1   7  652.52   20.12
   1  -1   7  634.75   20.66
   1  -1   7  594.86   17.31
  -1   1  -7  658.47   18.10
  -1  -1  -7  506.87    9.58
  -1   1  -7  659.29   18.30
  -1   1  -8  589.83   17.82
   1  -1   8  575.31   14.19
   1  -1   8  536.89   19.87
   1   1   8  529.97   16.80
  -1  -1  -8  616.42   17.75
   1  -1   8  467.35   15.86
  -1  -1  -8  562.82   13.16
   1   1   8  570.50   19.68
  -1  -1  -8  405.29    8.54
  -1  -1  -9  313.57   13.93
   1  -1   9  339.16   11.64
   1  -1   9  303.10   15.75
   1   1   9  306.60   15.18
  -1  -1  -9  314.27   10.54
  -1   1  -9  317.50   14.05
   1   1   9  316.87   14.42
  -1  -1 -10  208.99   12.45
   1   1  10  181.55   12.78
  -1  -1 -10  235.67   10.27
   1  -1  10  186.80   12.87
  -1   1 -10  259.85   11.72
   1  -1  10  149.72   10.09
   1  -1  10  224.37   10.47
   1   1  10  228.50   12.63
   1  -1  11  499.64   16.78
  -1   1 -11  537.82   17.29
  -1  -1 -11  537.70   20.37
   1   1  11  489.06   21.37
   1  -1  11  433.76   19.90
  -1  -1 -11  473.40   16.03
  -1  -1 -12  123.18   12.08
   1  -1  12   96.23   10.53
   1  -1  12  132.94   10.16
  -1   1 -12  108.62    8.76
  -1  -1 -12  125.61   10.45
   1   1  12  141.42   12.76
  -1  -1 -13  423.34   17.96
   1   1  13  366.06   20.80
  -1   1 -13  324.97   15.20
   1  -1  13  301.45   16.43
  -1   1 -13  455.57   23.00
   1  -1  13  268.14   17.34
  -1  -1 -13  359.55   19.44
   1   1  14   51.46    9.15
   1  -1  14   44.16    5.53
  -1  -1 -14   37.08    7.33
   1   1  14   55.20    5.98
   1   1  14   58.10    5.16
  -1   1 -14   46.00    8.83
  -1  -1 -14   58.87    6.73
   1   1  14   62.81    6.30
   1  -1  14   56.23    9.79
  -1  -1 -14   58.44    7.96
   1  -1  14   39.74    7.72
  -1  -1 -14   69.19    5.46
  -1   1 -14   53.84    9.52
   1  -1  14   56.07    6.56
  -1   1 -14   67.67    6.96
  -1   1 -14   54.80    6.77
   1  -1  15  130.66   10.42
   1  -1  15  113.44    8.73
   1   1  15  137.69    9.71
  -1  -1 -15  125.07   11.74
  -1   1 -15  139.96   10.52
  -1  -1 -15  136.55   10.75
  -1   1 -15  124.17    8.49
  -1   1 -15  113.80   13.33
  -1  -1 -15  128.45    8.05
   1  -1  15   80.68   11.22
   1   1  15  120.19    7.79
   1   1  15  119.43   13.78
  -1  -1 -15  110.45   12.54
   1   1  15  133.10    9.55
   1  -1  16  160.62   10.77
   1   1  16  150.38   10.25
  -1   1 -16  166.52   11.54
   1  -1  16  139.48    9.44
   1   1  16  123.43   16.21
  -1  -1 -16  162.30   11.65
   1  -1  16  148.07   13.37
  -1   1 -16  141.59    9.63
  -1  -1 -16  149.18   13.28
   1  -1  16   76.96   14.45
  -1   1 -16  151.43   17.20
  -1   1 -16  126.77   13.72
   1   1  16  136.14    8.21
   1   1  16  138.29    9.95
  -1  -1 -16  109.64   14.82
  -1  -1 -16  129.13    8.68
  -1   1 -17  293.00   15.03
   1  -1  17  266.45   14.50
  -1   1 -17  240.45   19.71
  -1  -1 -17  302.58   14.48
  -1   1 -17  248.52   22.32
   1   1  17  237.81   12.17
  -1   1 -17  242.18   12.50
   1   1  17  219.70   10.20
   1  -1  17  129.98   18.22
  -1  -1 -17  189.70   11.13
   1  -1  17  233.79   12.01
   1  -1  17  263.57   17.15
  -1  -1 -17  243.54   17.58
   1   1  17  259.30   13.25
   1   1  18  101.33    8.76
   1  -1  18   91.31    7.94
   1   1  18   89.45    6.96
   1  -1  18  103.78    9.37
  -1   1 -18  100.68   15.50
   1  -1  18  107.63   11.22
  -1   1 -18   89.57   12.85
  -1   1 -18  105.65    9.96
  -1  -1 -18   85.45    8.86
  -1   1 -18   77.03    7.86
   1   1  18   87.84    8.51
  -1  -1 -18   89.33    7.91
  -1  -1 -18   82.51   11.57
  -1   1 -19  256.02   14.38
  -1  -1 -19  203.98   20.53
   1   1  19  198.08    9.97
   1   1  19  200.16   12.92
  -1  -1 -19  178.24   11.38
  -1  -1 -19  184.80   17.01
  -1   1 -19  178.20   11.82
  -1  -1 -19  243.44   14.19
  -1   1 -19  183.68   18.17
  -1   1 -19  220.52   22.12
   1  -1  19  240.48   15.98
   1   1  19  221.89   12.25
   1   1  19  206.89   11.99
   1  -1  19  221.28   13.38
  -1   1 -20  104.09   10.11
   1   1  20   87.30    8.76
   1  -1  20   99.53    9.47
   1   1  20   87.65    6.98
  -1  -1 -20   89.32   16.74
  -1  -1 -20  116.56   10.10
   1  -1  20   70.07   10.69
   1   1  20   91.68    8.62
  -1  -1 -20   99.66    8.57
  -1   1 -20   80.26    8.24
   1   1  20   86.77    8.52
  -1   1 -20  108.54   17.78
  -1  -1 -21    6.00    3.72
   1  -1  21   -2.09    4.24
  -1   1 -21    1.66    3.99
  -1  -1 -21    2.64    8.27
   1   1  21    5.33    3.33
  -1   1 -21   -5.35   12.04
  -1   1 -21   -1.12    5.16
  -1   1 -21    5.20    3.89
  -1  -1 -21    6.34    4.15
   1  -1  21    1.65    3.57
   1   1  21    2.40    3.08
   1   1  21   -0.44    3.48
  -1   1 -22   30.19    7.89
  -1  -1 -22   53.25    7.23
   1  -1  22   43.48    6.73
  -1   1 -22   48.98    6.40
   1  -1  22   34.05    7.27
   1   1  22   43.66    6.28
  -1  -1 -22   41.10    5.94
   1   1  22   41.89    5.75
  -1   1 -22   51.81    7.20
   1   1  22   55.63    6.32
  -1   1 -23    9.16    5.45
  -1  -1 -23   12.17    4.09
  -1   1 -23   10.59    4.09
   1  -1  23   13.51    4.31
   1   1  23   12.54    4.16
   1  -1  23   11.58    4.68
  -1  -1 -23   17.51    4.46
  -1   1 -23   17.31    5.10
   1   1  23   23.05    4.17
  -1  -1 -24    7.88    3.48
  -1   1 -24    7.51    3.83
   1  -1  24    6.80    3.89
   1  -1  24    4.20    3.33
   1   1  24    6.76    3.13
  -1  -1 -24    0.36    2.89
  -1   1 -24    3.19    3.71
   1  -1  25    2.79    2.68
  -1  -1 -25    3.75    2.18
  -1   1 -25    3.00    2.92
  -1  -1 -25    6.57    3.66
   1   1  25    2.85    2.73
   1  -1  25    4.66    2.66
  -1  -1 -26    5.99    3.21
  -1   1 -26   17.18    4.11
   1  -1  26   23.68    3.96
  -1  -1 -26   17.74    3.93
   1  -1  26   18.00    3.33
   1  -1  26   13.76    4.01
  -1  -2  26    2.61    2.30
   1  -2 -26    2.37    2.33
  -1   2  26    3.16    2.64
   1   2 -26    4.09    3.05
  -1  -2  26    2.69    3.17
  -1   2  26    6.69    2.81
   1   2 -26    0.12    3.23
  -1  -2  25    5.61    3.19
  -1   2  25    6.34    2.87
  -1   2  25    4.45    2.65
  -1  -2  25    4.80    3.24
   1  -2 -25    3.15    2.00
  -1   2  25    5.77    2.85
  -1   2  25    4.86    2.17
   1  -2 -25    4.84    2.99
   1   2 -25    5.01    2.91
   1   2 -25    4.53    3.12
  -1   2  24   66.19    6.55
   1   2 -24   56.77    7.22
   1  -2 -24   33.47    5.53
  -1   2  24   79.75    5.83
  -1   2  24   85.60    6.52
   1   2 -24   30.04    8.17
  -1  -2  24   38.98    8.01
  -1  -2  24   71.60    6.36
   1  -2 -24   71.93    6.07
  -1   2  23    5.51    3.33
  -1   2  23    6.27    3.03
  -1  -2  23    4.82    4.06
   1  -2 -23    3.99    3.14
   1  -2 -23    1.57    3.24
  -1   2  23    8.15    3.36
  -1  -2  23    7.81    3.45
   1   2 -23    2.92    4.32
   1   2 -23    7.71    4.03
  -1  -2  22   17.54    4.40
  -1  -2  22   11.34    5.43
   1  -2 -22    7.69    3.99
   1   2 -22   14.05    5.03
   1  -2 -22   11.55    4.30
  -1  -2  22   -3.64   10.20
  -1   2  22   14.02    4.28
  -1   2  22   11.51    4.06
   1   2 -22    9.41    5.36
  -1   2  22   14.47    3.72
   1  -2 -21    4.68    3.78
  -1   2  21    5.23    3.60
  -1   2  21    5.72    3.45
   1   2 -21    5.84    4.59
   1  -2 -21    3.59    3.07
  -1  -2  21    5.83    9.82
   1   2 -21    0.98    4.84
  -1  -2  21    1.84    3.78
  -1   2  20   25.31    5.36
   1   2 -20   16.44    7.25
  -1  -2  20   19.15    5.18
   1  -2 -20   15.49    5.07
   1  -2 -20   19.44    4.68
   1   2 -20   23.84    6.24
  -1  -2  20    8.01    7.86
   1   2 -19   86.42    9.19
  -1   2  19   66.84    7.40
  -1  -2  19   66.92    7.82
   1  -2 -19   48.82    6.63
   1   2 -19   61.47    9.80
   1   2 -19   44.49   10.25
  -1   2  19   51.18    9.29
   1  -2 -19   46.20    7.32
   1   2 -19   61.75    8.56
  -1  -2  19   37.12   10.48
  -1  -2  19   52.62   12.34
  -1  -2  18   28.21   14.11
   1   2 -18   27.45    8.07
  -1   2  18   25.93    6.40
   1   2 -18   23.64    6.10
   1  -2 -18   23.42    5.54
  -1  -2  18   28.15    5.58
  -1   2  18   34.49    5.88
   1   2 -18   33.96    6.68
   1  -2 -18   21.78    4.39
  -1   2  18   30.21    7.09
   1   2 -18   29.59    7.83
   1   2 -18   14.28    9.39
  -1   2  18   31.90    8.03
  -1  -2  18   25.27    9.30
  -1  -2  17  246.56   13.19
   1   2 -17  344.84   17.92
  -1   2  17  223.03   15.03
   1   2 -17  253.47   14.59
  -1  -2  17  226.83   22.82
   1  -2 -17  219.03   17.72
   1   2 -17  271.71   18.72
   1  -2 -17  303.19   13.63
   1   2 -17  243.10   15.84
   1   2 -17  267.96   23.59
  -1   2  17  206.21   15.23
  -1   2  17  302.39   13.30
  -1  -2  17  215.54   20.85
  -1  -2  17  154.96   14.38
  -1   2  17  229.65   16.40
   1  -2 -17  262.11   12.04
   1   2 -16   48.55    8.55
  -1   2  16   31.28    6.62
  -1  -2  16   36.90    6.40
   1   2 -16   34.70    6.27
   1   2 -16   40.99    7.96
   1  -2 -16   29.49    5.40
   1   2 -16   32.11    7.98
   1  -2 -16   32.51    4.99
   1   2 -16   28.38   11.76
   1  -2 -16   31.08    7.62
  -1  -2  16   27.71    9.44
  -1  -2  16   30.09    8.96
  -1   2  16   28.59    6.60
  -1  -2  16   15.60    7.49
   1   2 -15   18.46    7.48
   1  -2 -15   22.66    5.40
  -1   2  15   26.59    5.65
   1  -2 -15   39.39    7.37
  -1  -2  15   11.99    5.32
   1   2 -15   26.28    6.26
   1   2 -15   31.22    8.89
   1  -2 -15   26.08    4.98
   1   2 -15   39.21    8.59
  -1  -2  15   29.94    8.76
   1  -2 -15   26.36    7.29
   1   2 -15   18.81    7.23
  -1   2  15   23.26    5.91
   1  -2 -14    9.32    4.57
  -1  -2  14    6.97    5.77
  -1   2  14    8.69    4.21
   1   2 -14    6.03    5.18
   1   2 -14   10.29    5.15
   1  -2 -14    7.31    3.44
   1  -2 -14    9.05    5.10
   1   2 -14   16.77    6.20
  -1   2  14    4.99    2.95
   1   2 -14    5.64    6.27
  -1  -2  14    7.48    3.58
  -1  -2  14    8.62    6.16
   1  -2 -14   10.18    4.17
   1   2 -14    9.89    6.18
  -1   2  14    8.80    4.09
   1   2 -13    9.32    3.87
  -1  -2  13   15.24    4.37
   1   2 -13   15.48    4.11
   1   2 -13    8.20    5.69
   1  -2 -13   17.32    5.35
  -1  -2  13   23.83    6.61
  -1  -2  13   15.73    6.60
   1  -2 -13   22.44    3.71
  -1   2  13   17.46    4.59
  -1   2  13   22.08    5.11
   1  -2 -12   92.75    9.07
  -1   2  12   90.04    7.34
  -1  -2  12   76.63    7.57
   1  -2 -12   62.48    9.23
   1   2 -12   92.62   11.28
  -1  -2  12   83.52   11.88
  -1  -2  12   85.51    9.47
  -1   2  12   85.55    7.79
  -1  -2  11   20.30    4.40
  -1  -2  11   13.06    6.36
   1   2 -11   22.58    6.51
   1  -2 -11   18.99    5.12
   1  -2 -11   16.38    6.13
  -1   2  11   18.61    4.00
  -1   2  11   20.24    4.33
  -1  -2  11   26.26    5.90
   1  -2 -10   79.43    5.98
  -1  -2  10   83.57    8.26
  -1   2  10   87.48    6.44
   1  -2 -10   79.01    9.36
  -1  -2  10   82.35   10.78
   1  -2 -10   87.72    7.78
  -1   2  10   82.24    7.05
  -1  -2  10   76.58    7.38
   1   2 -10   78.97   10.25
   1  -2  -9  200.79    8.68
  -1  -2   9  199.36   10.86
   1   2  -9  219.03   14.90
  -1   2   9  205.28    8.81
  -1  -2   9  211.33   15.50
  -1   2   9  179.46    9.53
   1  -2  -9  194.82   13.47
  -1  -2   9  198.27   11.42
  -1  -2   8  435.20   15.53
   1  -2  -8  532.29   19.88
   1   2  -8  588.12   21.36
  -1  -2   8  508.76   16.89
   1  -2  -8  429.29   12.28
  -1  -2   8  516.34   22.72
  -1   2   8  500.03   14.57
   1   2  -7  358.16   10.95
  -1   2   7  310.83   17.00
  -1  -2   7  331.40   13.05
   1  -2  -7  388.84   12.83
   1   2  -7  349.34   15.99
  -1  -2   7  369.92   14.68
  -1  -2   7  346.79   18.44
  -1   2   7  411.83   15.80
  -1   2   7  351.53   11.81
  -1   2   6  594.39   22.47
  -1  -2   6  711.55   20.63
   1   2  -6  725.51   21.39
  -1  -2   6  599.56   16.36
   1  -2  -6  697.09   21.53
   1   2  -6  660.57   14.45
   1  -2  -6  622.14   15.90
  -1  -2   6  674.02   24.46
  -1   2   6  800.86   21.10
  -1   2   6  634.71   14.94
  -1  -2   5 1411.63   28.98
   1   2  -5 1293.43   19.81
  -1   2   5 1563.35   29.05
   1  -2  -5 1223.04   21.75
   1  -2  -5 1375.55   29.15
   1   2  -5 1350.26   27.98
  -1  -2   5 1396.85   33.38
  -1   2   5 1194.47   31.18
   1  -2  -5 1109.83   15.24
  -1  -2   5 1270.71   31.00
  -1  -2   5 1171.31   20.69
  -1  -2   4  456.28   19.12
   1  -2  -4  393.51    8.98
  -1  -2   4  403.47   15.98
   1   2  -4  379.65   10.99
  -1   2   4  458.05   15.71
  -1  -2   4  410.92   17.55
  -1   2   4  362.09   17.21
   1   2  -4  406.33   14.51
   1  -2  -4  370.49   15.33
   1  -2  -4  354.07   11.95
   1  -2  -3  319.63    8.54
  -1   2   3  332.48    9.70
   1   2  -3  302.54   10.02
  -1   2   3  368.67   14.08
  -1  -2   3  366.89   16.94
  -1  -2   3  320.83   10.77
   1  -2  -3  270.68   10.64
   1   2  -3  320.17   12.26
  -1   2   3  309.09   15.67
  -1  -2   3  354.04   16.09
   1   2  -3  343.82   15.16
   1  -2  -3  315.63   14.04
   1   2  -2  200.79   11.69
  -1  -2   2  186.65    8.50
   1  -2  -2  194.13   11.21
   1  -2  -2  191.52    6.63
  -1  -2   2  214.81   12.72
  -1  -2   2  188.93   12.50
  -1   2   2  179.59   11.99
  -1  -2   2  204.71   13.73
  -1   2   2  198.36    7.32
   1   2  -2  175.21    8.13
  -1   2   2  222.81   11.07
   1   2  -2  188.01    9.05
  -1  -2   1   38.02    4.32
  -1  -2   1   44.42    6.96
  -1  -2   1   40.24    6.11
  -1   2   1   37.80    3.36
  -1  -2   1   42.53    6.49
  -1   2   1   39.69    6.37
   1   2  -1   37.45    4.23
   1   2  -1   38.14    4.54
   1  -2  -1   41.52    3.69
  -1   2   1   42.12    5.67
   1   2  -1   38.54    5.88
   1   2   0  537.85   15.63
  -1  -2   0  626.61   16.30
  -1  -2   0  612.83   21.19
   1   2   0  615.91   19.79
  -1  -2   0  609.38   18.43
  -1   2   0  580.44   21.00
   1   2   0  541.26   13.97
  -1  -2   0  634.83   21.99
  -1   2   0  634.20   17.36
   1  -2   0  628.55   12.14
  -1   2   0  609.99   15.14
  -1   2  -1  629.15   16.82
   1   2   1  558.21   13.71
  -1   2  -1  582.36   20.86
   1  -2   1  617.88   12.38
  -1  -2  -1  637.69   16.73
   1   2   1  609.24   20.02
  -1  -2  -1  566.71   19.99
  -1   2  -1  647.76   16.43
  -1  -2  -1  591.45   20.56
   1   2   1  564.00   16.96
  -1   2  -2 1087.24   22.26
  -1   2  -2 1021.67   21.09
  -1   2  -2  970.14   26.69
   1  -2   2 1031.45   16.18
  -1  -2  -2 1050.80   22.04
   1   2   2  900.58   16.90
  -1  -2  -2  966.49   25.36
   1  -2   2  981.76   23.71
  -1  -2  -2  926.52   24.98
   1   2   2 1018.95   26.23
  -1   2  -3  402.51   17.44
  -1  -2  -3  398.84   15.43
  -1   2  -3  365.81   12.82
   1   2   3  425.61   17.50
  -1  -2  -3  438.26   15.01
   1  -2   3  415.01   10.94
   1   2   3  413.05   11.20
  -1  -2  -3  384.54   16.12
   1  -2   3  422.65   16.38
  -1   2  -3  446.92   15.09
   1  -2   4 2772.20   28.38
  -1   2  -4 2718.60   44.14
  -1  -2  -4 2728.88   38.73
  -1   2  -4 2601.72   37.06
  -1  -2  -4 2954.48   39.26
  -1   2  -4 2857.20   39.43
   1   2   4 2787.35   44.57
   1  -2   4 2720.14   41.56
  -1  -2  -4 2558.14   40.51
  -1   2  -4 2313.82   31.40
  -1   2  -5  305.40   13.83
  -1  -2  -5  360.71   14.59
  -1   2  -5  333.72   16.17
  -1  -2  -5  313.18   13.36
   1   2   5  344.59   16.47
  -1  -2  -5  322.82   13.93
   1  -2   5  337.41   10.46
   1  -2   5  313.70   15.47
  -1   2  -5  321.13   14.17
   1   2   6  498.04   20.25
  -1  -2  -6  386.69   14.58
  -1   2  -6  503.13   18.18
   1  -2   6  476.11   13.06
   1  -2   6  489.58   21.21
  -1  -2  -6  470.59   17.94
  -1  -2  -6  429.71   14.54
  -1   2  -6  475.84   18.15
  -1  -2  -6  514.91   17.13
   1  -2   6  451.31   18.82
  -1   2  -6  503.51   19.69
  -1  -2  -7   34.61    4.55
  -1  -2  -7   35.62    6.27
  -1   2  -7   32.65    6.14
   1  -2   7   39.33    7.37
   1   2   7   45.51    7.16
  -1   2  -7   36.30    6.47
  -1   2  -7   34.10    6.45
   1  -2   7   30.80    4.27
  -1  -2  -7   32.31    5.02
   1  -2   7   29.40    6.14
  -1   2  -8  122.76   10.89
  -1  -2  -8  154.72    8.68
  -1   2  -8  120.46   11.14
   1  -2   8  146.74    8.18
   1  -2   8  113.41   10.67
   1   2   8  138.58   12.10
  -1  -2  -8  150.27   11.53
   1  -2   8  118.12   11.70
  -1   2  -8  133.09   11.21
  -1  -2  -9  213.09   14.67
   1  -2   9  245.10   10.69
   1   2   9  233.74   15.93
   1  -2   9  189.31   14.56
  -1   2  -9  209.02   14.05
  -1   2  -9  211.24   14.73
  -1   2  -9  222.88   14.93
   1  -2   9  168.41   13.31
  -1  -2  -9  257.22   11.33
   1  -2  10   48.57    8.63
  -1   2 -10   65.74    8.92
  -1  -2 -10   77.58   10.01
   1  -2  10   73.59   10.23
   1  -2  10   75.30    6.90
   1   2  10   72.80   10.25
  -1   2 -10   72.24    9.91
  -1   2 -10   85.86   10.15
  -1   2 -11   18.76    6.07
   1   2  11   16.64    6.52
   1  -2  11   16.18    4.35
  -1  -2 -11   17.66    6.31
   1  -2  11   21.43    6.90
  -1   2 -11   13.73    5.47
  -1   2 -11   19.87    7.27
   1  -2  12   74.43    8.65
  -1  -2 -12   78.95    5.35
   1  -2  12   62.28    7.63
   1   2  12   75.21    7.22
   1   2  12   74.58   11.31
  -1  -2 -12   77.30   10.57
  -1   2 -12   69.08   10.80
  -1   2 -12   74.93   10.24
   1  -2  12   74.93   11.06
  -1  -2 -12   79.13    5.85
  -1  -2 -13   18.54    7.73
   1  -2  13   23.41    6.63
   1   2  13   23.58    3.94
   1  -2  13   17.10    7.29
   1   2  13   22.70    4.48
  -1   2 -13   25.97    6.95
   1   2  13   15.94    7.46
   1  -2  13   15.77    5.19
  -1  -2 -13   21.86    4.03
   1   2  13   31.62    4.74
   1   2  13   26.99    5.40
  -1  -2 -13   23.63    3.97
  -1  -2 -13   24.65    5.22
   1  -2  13   24.41    5.63
  -1   2 -13   27.00    5.70
  -1   2 -13   20.91    4.97
  -1   2 -13   17.44    6.83
  -1   2 -14  229.27   17.43
   1   2  14  280.47   13.38
  -1  -2 -14  319.61   13.19
  -1   2 -14  268.10   19.53
   1   2  14  222.39   11.62
  -1   2 -14  272.57   14.55
   1  -2  14  304.42   17.19
   1   2  14  265.87   10.95
  -1  -2 -14  304.93   14.50
  -1  -2 -14  225.30   20.27
   1  -2  14  247.68   19.39
   1  -2  14  277.30   14.36
  -1   2 -14  298.08   16.09
  -1   2 -14  276.51   22.15
   1  -2  14  187.41   15.07
  -1  -2 -14  242.04   10.97
   1   2  14  279.16   13.11
   1   2  15  241.52   12.36
  -1  -2 -15  192.67   20.38
  -1  -2 -15  201.35   11.22
   1   2  15  218.41   10.02
  -1   2 -15  253.98   13.74
  -1  -2 -15  250.76   13.20
   1   2  15  214.45   10.79
  -1  -2 -15  217.80   16.01
   1  -2  15  151.67   15.23
   1  -2  15  258.40   16.10
   1   2  15  227.49   12.35
  -1  -2 -15  231.61   10.60
  -1   2 -15  218.00   18.91
  -1   2 -15  232.97   21.09
   1  -2  15  207.78   18.26
   1  -2  15  241.87   13.26
  -1   2 -15  202.41   16.45
   1   2  16  280.64   13.27
   1  -2  16  225.89   19.80
   1  -2  16  276.37   14.23
   1   2  16  270.01   13.31
   1   2  16  251.79   10.75
  -1   2 -16  286.85   15.10
  -1  -2 -16  280.03   11.83
  -1   2 -16  227.83   21.00
  -1  -2 -16  292.40   14.33
  -1  -2 -16  210.46   23.25
  -1   2 -16  244.05   23.53
  -1  -2 -16  247.20   17.72
  -1  -2 -16  275.30   12.84
   1  -2  16  178.18   16.13
   1  -2  16  271.53   17.16
  -1   2 -16  235.12   17.12
  -1   2 -17  189.19   15.21
   1  -2  17  166.87   17.44
   1   2  17  162.36   10.40
  -1  -2 -17  179.38   15.74
   1  -2  17  225.60   15.35
   1   2  17  187.59    9.57
  -1   2 -17  205.54   13.59
  -1  -2 -17  180.47   10.35
  -1  -2 -17  171.43   11.32
  -1   2 -17  181.22   18.53
   1  -2  17  215.46   12.86
  -1  -2 -17  146.15   10.92
  -1   2 -17  200.36   21.91
   1   2  17  222.42   12.09
  -1  -2 -18  251.37   13.59
   1  -2  18  306.06   15.72
   1   2  18  318.50   14.19
  -1  -2 -18  266.00   19.55
  -1   2 -18  315.79   16.67
   1   2  18  281.80   11.71
   1  -2  18  330.21   18.79
  -1  -2 -18  240.73   13.30
  -1   2 -18  263.53   22.16
  -1  -2 -18  265.28   13.07
  -1   2 -18  237.57   18.15
   1   2  18  333.77   14.98
   1   2  19   18.73    4.71
  -1   2 -19   18.20    6.88
   1   2  19   19.74    4.95
  -1   2 -19   30.26    6.05
   1   2  19   18.29    4.15
   1   2  19   16.97    4.64
  -1  -2 -19   18.59    4.96
   1  -2  19   20.70    6.18
  -1  -2 -19   15.38    4.31
  -1  -2 -19   17.80    8.77
   1  -2  19   23.21    5.36
  -1  -2 -19   15.17    5.33
  -1  -2 -20   47.86    6.74
   1   2  20   55.02    6.47
  -1   2 -20   55.64    7.90
  -1  -2 -20   45.70   10.01
   1  -2  20   48.32    8.28
  -1  -2 -20   56.07    7.03
   1  -2  20   50.31    6.90
   1   2  20   48.62    6.63
   1  -2  20   55.17    7.47
  -1  -2 -20   56.33    6.64
  -1   2 -20   36.96    8.27
   1   2  20   53.97    5.60
   1   2  20   51.64    6.58
   1   2  21   42.57    5.67
   1  -2  21   47.27    6.23
  -1   2 -21   54.97    7.29
   1  -2  21   51.59    6.84
  -1  -2 -21   57.49    6.73
  -1   2 -21   35.84    7.77
  -1   2 -21   54.85    7.46
   1  -2  21   38.19    7.76
  -1  -2 -21   54.50    6.28
   1   2  21   42.18    5.77
   1   2  21   54.83    6.36
   1  -2  22    5.68    4.18
  -1   2 -22    3.21    3.79
   1  -2  22    8.55    3.69
   1   2  22    3.51    3.16
   1  -2  22    7.58    3.16
  -1   2 -22    1.63    3.37
  -1  -2 -22    5.42    3.24
  -1   2 -23    6.88    2.99
  -1   2 -23    5.77    3.68
  -1  -2 -23    9.90    3.19
   1   2  23    6.80    2.94
   1  -2  23    4.34    3.41
   1  -2  23    7.31    3.20
   1  -2  24   19.35    3.96
  -1  -2 -24   12.63    3.64
   1  -2  24   11.62    4.17
  -1   2 -24   11.92    3.92
   1   2  24   16.81    3.30
   1  -2  25    8.98    3.66
  -1  -2 -25   11.46    3.30
   1   2  25   16.14    2.84
  -1   2 -25    9.06    3.44
  -1  -3  25   24.32    3.47
  -1   3  24    1.23    2.15
  -1   3  24   -0.36    2.56
  -1   3  24    2.57    2.09
  -1  -3  24    2.03    3.06
  -1  -3  24    3.98    2.56
   1  -3 -24   -0.57    2.15
   1   3 -24   -0.77    2.87
  -1  -3  23    4.10    2.88
  -1   3  23   12.42    3.12
  -1   3  23    6.89    2.68
   1  -3 -23   13.28    2.70
   1  -3 -23    4.93    2.92
  -1   3  23   12.24    2.89
  -1  -3  23    8.09    3.57
   1   3 -23    6.63    3.97
   1   3 -23    7.00    3.50
  -1   3  22   23.36    4.26
   1   3 -22   25.01    4.85
   1  -3 -22   10.37    4.20
   1   3 -22   11.47    5.46
  -1   3  22   28.74    4.03
   1  -3 -22   27.85    3.61
  -1  -3  22   22.53    4.71
  -1   3  22   26.61    4.67
   1   3 -21   52.99    7.25
  -1   3  21   60.78    5.69
  -1  -3  21   52.96    7.20
   1   3 -21   26.27    7.93
   1  -3 -21   58.46    5.83
   1  -3 -21   34.81    5.95
  -1   3  21   57.26    6.61
  -1   3  21   58.06    6.05
   1   3 -20  210.41   12.92
  -1  -3  20  139.17   11.81
  -1   3  20  198.52    9.27
   1  -3 -20  128.57   10.31
   1   3 -20   98.29   13.60
   1   3 -20  174.71   12.21
  -1  -3  20   86.78   17.35
  -1   3  20  176.66   10.16
  -1   3  20  221.42   11.23
   1  -3 -20  154.98    9.47
  -1  -3  19   95.23   17.18
   1   3 -19  196.06   15.26
  -1   3  19  221.35   11.89
   1   3 -19  202.09   13.75
  -1  -3  19  166.85   12.76
   1  -3 -19  173.02   11.16
   1   3 -19  185.57   12.58
   1  -3 -19  150.45    9.52
  -1  -3  19   56.84   16.46
   1   3 -18  110.44   10.63
   1  -3 -18   75.36    8.19
   1  -3 -18   53.73    6.28
  -1   3  18   94.26    7.88
  -1  -3  18   38.23   12.70
  -1  -3  18   73.62    9.88
   1   3 -18   90.48   11.73
  -1  -3  18   65.76   13.65
   1   3 -18   95.19    9.77
  -1   3  18  108.23    9.08
   1   3 -17   17.70    6.94
   1   3 -17   20.68    5.47
   1   3 -17   24.99    6.01
   1  -3 -17   12.80    4.67
  -1   3  17   22.15    4.31
  -1  -3  17   14.70    5.96
   1  -3 -17    9.68    3.54
  -1  -3  17   21.96    7.73
   1  -3 -17   21.63    9.14
  -1   3  17   27.15    5.26
   1   3 -16  153.98   11.77
  -1  -3  16  135.15   12.46
   1   3 -16  132.90   12.54
   1  -3 -16  104.61    7.90
  -1   3  16  176.08    9.16
   1  -3 -16  146.24   10.28
  -1  -3  16  135.37   17.91
  -1   3  16  104.87   11.76
   1  -3 -16  139.59   13.63
  -1   3  16  185.83   11.54
   1   3 -16  119.39   14.10
  -1  -3  15  313.21   17.27
   1  -3 -15  396.15   15.15
  -1  -3  15  313.00   25.24
   1   3 -15  333.04   17.02
   1   3 -15  315.24   19.76
   1  -3 -15  312.88   19.38
   1  -3 -15  240.14   14.62
   1   3 -15  351.52   26.35
   1  -3 -15  344.18   13.15
  -1   3  15  358.29   13.17
   1   3 -15  412.62   19.27
  -1   3  15  296.62   17.73
  -1  -3  14  114.23   12.58
   1   3 -14  285.42   16.19
  -1   3  14  215.11   14.75
  -1   3  14  266.79   10.88
   1  -3 -14  249.80   10.83
   1  -3 -14  241.65   16.42
  -1   3  14  136.12   18.05
   1  -3 -14  207.22   11.16
  -1  -3  14  214.72   21.64
   1   3 -14  244.30   22.58
  -1  -3  14  185.73   19.58
   1   3 -14  185.74   15.41
   1   3 -14  191.18   13.04
  -1  -3  14  211.39   14.39
  -1  -3  13   71.29   12.75
   1   3 -13  110.18   10.62
  -1   3  13   85.99    7.03
   1   3 -13   96.39    9.50
   1  -3 -13   64.83    8.35
  -1   3  13   99.19    7.20
  -1  -3  13   62.99   10.38
  -1   3  13   87.38    9.49
  -1  -3  13   94.37   14.18
  -1   3  13   63.85   14.69
   1   3 -13   97.45   14.77
   1  -3 -13   90.68    9.97
   1  -3 -13   94.19    7.98
   1   3 -13   90.84   11.20
  -1  -3  12   46.85    8.38
   1   3 -12   80.00    9.89
   1   3 -12   69.39    8.34
  -1  -3  12   50.68    9.92
  -1   3  12   52.61   12.68
   1  -3 -12   48.49    7.21
   1   3 -12   69.66   10.77
  -1  -3  12   71.07   11.91
  -1   3  12   73.51    6.40
  -1   3  12   54.25    5.76
  -1   3  12   58.84    7.68
   1  -3 -12   70.85    8.92
   1   3 -12   58.93   10.20
   1  -3 -12   68.95    6.55
   1   3 -11  117.78   10.66
   1   3 -11  115.53   10.97
  -1   3  11  103.20    6.87
  -1  -3  11   81.71    9.81
   1  -3 -11   95.48    7.62
   1   3 -11  111.54   10.02
   1  -3 -11  107.39    9.94
  -1   3  11  128.86    7.64
  -1   3  11   76.22   13.20
   1   3 -11  104.69   12.53
  -1  -3  11   89.37   12.79
  -1  -3  11  113.85   14.75
   1  -3 -11   81.87    7.82
  -1   3  11  101.04    9.15
   1   3 -11   92.50   11.90
  -1  -3  10   19.93    7.93
  -1  -3  10   29.46    5.94
   1   3 -10   33.55    5.47
  -1  -3  10   32.82    9.35
  -1   3  10   25.84    7.53
  -1   3  10   30.07    4.27
   1   3 -10   32.39    6.56
   1   3 -10   31.54    6.99
  -1   3  10   28.55    4.02
   1  -3 -10   41.40    4.77
  -1   3  10   30.17    5.57
   1   3 -10   29.52    6.77
   1  -3 -10   16.78    4.76
   1   3  -9   56.26    8.30
   1  -3  -9   45.42    5.79
  -1   3   9   69.42    5.60
   1   3  -9   47.95    8.83
  -1   3   9   45.78    9.20
  -1   3   9   50.03    6.28
  -1  -3   9   44.38    9.71
   1  -3  -9   51.52    6.15
   1   3  -9   67.12    7.84
  -1  -3   9   44.67    7.06
  -1   3   8  229.83   19.08
   1   3  -8  269.58   17.51
  -1  -3   8  273.04   15.87
  -1  -3   8  202.54   18.75
  -1   3   8  261.12   12.19
   1  -3  -8  250.72   13.60
  -1  -3   8  266.00   19.58
  -1   3   7   60.96   10.38
   1  -3  -7   66.07    9.03
  -1  -3   7   75.44    8.70
   1  -3  -7   63.06    7.03
  -1   3   7   67.87    6.51
  -1  -3   7   61.03   10.02
   1   3  -7   59.39    8.40
  -1  -3   7   54.46   10.59
  -1   3   6  466.68   25.05
  -1  -3   6  556.06   21.58
  -1   3   6  489.89   15.27
  -1  -3   6  515.25   25.26
   1  -3  -6  541.81   22.85
   1   3  -6  548.03   22.27
   1  -3  -6  526.70   18.20
  -1  -3   6  483.83   26.65
  -1  -3   5  237.03   14.65
   1  -3  -5  198.55   11.50
  -1  -3   5  206.41   17.59
   1  -3  -5  217.47   14.87
   1   3  -5  221.14   13.45
  -1  -3   5  178.42   15.39
  -1  -3   5  235.44   17.19
  -1   3   5  187.82   16.03
  -1   3   4  141.55   13.80
  -1  -3   4  166.86   12.57
  -1  -3   4  140.13   13.41
   1   3  -4  146.32   10.86
   1  -3  -4  130.73    9.49
   1   3  -4  146.85    9.53
  -1  -3   4  152.24   14.99
  -1  -3   4  165.29   14.41
   1  -3  -4  148.52   12.69
  -1   3   4  140.78    7.84
   1   3  -3  282.46   13.20
  -1  -3   3  326.61   17.22
   1  -3  -3  297.27   17.08
   1   3  -3  282.31   13.87
  -1   3   3  283.69   18.80
   1  -3  -3  251.22   13.25
  -1  -3   3  324.40   20.72
  -1  -3   3  292.44   18.59
  -1  -3   3  297.91   18.24
  -1   3   3  287.67   10.37
   1   3  -2   86.36    7.88
  -1  -3   2   88.70    9.74
   1  -3  -2   68.72    9.83
  -1   3   2   84.26    5.85
   1  -3  -2   91.14    6.61
  -1  -3   2  100.86   11.79
  -1  -3   2   94.33   10.86
  -1   3   2  100.40   11.78
   1   3  -2   71.18    7.28
   1   3  -1  364.79   18.70
  -1  -3   1  352.73   20.37
   1  -3  -1  372.12   11.91
   1   3  -1  313.67   13.58
  -1  -3   1  372.38   19.92
  -1   3   1  357.23   20.70
  -1  -3   1  349.25   19.78
  -1  -3   1  357.02   15.66
   1   3  -1  322.07   15.13
  -1  -3   0  208.78   15.62
   1   3   0  221.80   14.40
  -1  -3   0  202.94   14.95
   1   3   0  178.11   11.95
  -1  -3   0  199.55   12.00
   1   3   0  204.73   10.74
  -1   3   0  198.17   15.62
   1  -3   0  202.01    9.17
   1   3   1  198.01   13.06
  -1  -3  -1  230.19   16.34
  -1  -3  -1  225.47   13.02
   1  -3   1  212.05    9.49
   1   3   1  236.30   14.97
  -1   3  -1  223.58   16.48
   1   3   1  218.06   10.52
  -1  -3  -1  219.24   15.38
  -1   3  -2    5.17    4.78
  -1   3  -2    7.78    3.73
  -1  -3  -2    7.19    4.44
   1   3   2    3.72    4.16
  -1  -3  -2    8.32    4.27
   1  -3   2    2.81    5.27
   1   3   2    2.48    4.85
   1  -3   3  678.54   17.02
  -1  -3  -3  771.63   24.18
  -1   3  -3  733.58   28.84
   1   3   3  658.96   25.43
  -1   3  -3  677.55   22.70
  -1  -3  -3  720.73   23.71
   1   3   3  737.62   26.28
  -1  -3  -3  739.43   24.59
  -1  -3  -3  744.24   26.82
  -1   3  -4  462.96   23.06
   1   3   4  461.76   21.41
   1  -3   4  432.99   14.05
  -1   3  -4  429.26   18.96
   1   3   4  416.59   21.15
  -1  -3  -4  466.43   19.68
  -1  -3  -4  503.95   20.11
  -1  -3  -4  474.14   19.18
   1  -3   4  470.18   21.41
  -1   3  -5  211.68   14.28
  -1  -3  -5  244.12   14.87
   1   3   5  197.01   15.89
   1  -3   5  204.58   10.12
   1   3   5  224.15   15.50
  -1  -3  -5  254.87   14.35
  -1   3  -5  237.85   16.87
   1  -3   5  218.06   15.02
  -1  -3  -5  262.03   14.67
   1   3   6   77.06   10.36
  -1  -3  -6   76.34    9.20
  -1   3  -6   69.42    9.85
  -1  -3  -6   72.06    7.93
  -1   3  -6   66.16    8.73
  -1  -3  -6   77.73    8.14
  -1  -3  -6   72.08    7.80
   1   3   6   48.80    9.35
   1  -3   6   52.36    8.61
   1  -3   6   61.01    6.13
   1  -3   7   26.31    6.99
  -1   3  -7   31.75    6.81
  -1  -3  -7   37.65    6.04
  -1  -3  -7   35.77    5.95
   1   3   7   34.50    8.08
  -1  -3  -7   42.28    7.65
   1  -3   7   21.93    4.27
   1   3   7   30.97    8.18
  -1   3  -7   25.28    6.46
  -1   3  -8   74.98   10.41
   1   3   8   78.75   11.29
   1  -3   8   59.38    6.64
  -1  -3  -8   83.29   10.58
  -1  -3  -8   83.20    8.69
  -1   3  -8   83.12   10.62
   1  -3   8   64.26    9.57
  -1   3  -9  177.82   15.09
  -1  -3  -9  170.72   12.29
  -1  -3  -9  253.10   10.14
   1   3   9  170.87   10.19
  -1   3  -9  162.80   15.62
  -1  -3  -9  183.82   15.96
   1  -3   9  153.41   14.44
   1   3   9  176.61   15.73
   1   3   9  204.86   11.26
  -1   3  -9  229.53   12.55
   1  -3   9  198.01   12.83
  -1  -3  -9  169.49    8.13
  -1   3  -9  231.46   10.62
   1  -3   9  148.79   10.30
  -1  -3  -9  220.89    8.52
   1  -3   9  211.09   12.62
   1  -3  10    4.69    3.52
  -1   3 -10   10.08    6.11
   1   3  10   17.22    4.52
  -1  -3 -10   13.95    3.79
   1  -3  10   14.34    4.94
   1   3  10   14.96    7.69
  -1   3 -10    9.33    5.21
  -1  -3 -10   18.97    7.12
   1  -3  10   11.19    5.32
   1  -3  10   13.42    5.65
   1   3  10   11.68    4.49
  -1   3 -10    8.98    4.02
  -1  -3 -10   16.96    3.93
  -1   3 -10   13.58    4.52
  -1  -3 -10   13.88    3.09
  -1  -3 -10    7.83    3.86
  -1   3 -10   22.58    5.60
   1   3  10    5.94    3.72
  -1  -3 -11   13.86    3.75
   1  -3  11    7.99    5.68
  -1  -3 -11   22.56    4.38
   1  -3  11   13.19    5.62
  -1   3 -11   14.71    5.63
   1   3  11   10.49    4.25
  -1   3 -11   12.24    6.58
  -1   3 -11   11.84    5.94
  -1  -3 -11   13.79    7.95
  -1   3 -11   11.26    5.02
   1  -3  11    3.38    4.23
   1   3  11   12.20    4.85
  -1  -3 -11   13.79    3.02
   1  -3  11   14.37    6.42
   1   3  12  248.30   12.56
   1  -3  12  216.08   12.73
  -1  -3 -12  192.89   10.62
   1  -3  12  127.18   12.52
  -1  -3 -12  196.22   20.48
  -1  -3 -12  225.84   10.17
  -1  -3 -12  245.91    9.63
   1  -3  12  212.23   13.05
   1  -3  12  205.08   14.96
  -1   3 -12  139.24   17.13
  -1   3 -12  282.96   14.75
   1   3  12  212.34   10.89
  -1   3 -12  170.49   17.40
  -1   3 -12  212.40   12.77
   1  -3  13   39.47    6.06
  -1  -3 -13   41.34    5.30
   1   3  13   43.97    5.20
  -1   3 -13   32.37    8.89
   1  -3  13   35.77    7.00
  -1  -3 -13   30.39   11.87
   1  -3  13   16.91    7.37
   1  -3  13   39.66    6.74
  -1  -3 -13   32.38    4.21
  -1   3 -13   42.86    6.55
   1   3  13   39.34    5.62
  -1   3 -13   39.34    6.26
   1   3  13   46.09    6.28
  -1  -3 -13   32.70    4.75
   1   3  14   26.66    4.41
  -1  -3 -14   15.82    4.57
   1   3  14   21.28    4.57
   1  -3  14   20.88    5.00
  -1   3 -14   25.12    5.69
  -1   3 -14   17.45    7.22
  -1  -3 -14   26.90    4.42
   1  -3  14   29.10    6.03
   1   3  14   27.16    5.15
  -1   3 -14   22.40    5.41
   1  -3  14   23.72    5.94
  -1   3 -15   63.89   11.84
   1  -3  15   75.11    8.09
  -1  -3 -15   50.92    6.70
  -1   3 -15   73.65    8.82
  -1  -3 -15   69.75    6.59
   1   3  15   65.45    7.19
   1  -3  15   77.38    9.67
   1  -3  15   61.83    8.26
   1   3  15   76.30    8.28
  -1   3 -15   60.68    7.43
   1   3  15   55.00    5.56
  -1  -3 -16    7.90    4.10
   1   3  16   10.78    3.92
   1   3  16   11.86    4.28
  -1   3 -16   14.10    5.46
   1  -3  16   18.12    5.34
   1  -3  16   11.86    4.73
  -1  -3 -16   10.60    3.63
   1   3  16   13.86    4.76
   1  -3  16   10.08    5.39
  -1   3 -16   10.00    4.32
  -1  -3 -16   18.84    7.41
  -1  -3 -17  275.62   11.80
   1  -3  17  240.31   15.35
  -1  -3 -17  195.26   18.29
   1  -3  17  217.00   13.07
  -1  -3 -17  152.38   11.25
  -1   3 -17  240.93   14.36
   1   3  17  213.07    9.79
   1   3  17  201.91   10.93
   1  -3  17  239.27   14.06
   1   3  17  246.97   13.23
   1   3  18   12.11    4.14
  -1  -3 -18   14.53    7.83
   1   3  18   12.64    3.92
  -1   3 -18   17.05    5.65
   1  -3  18    7.26    4.32
  -1  -3 -18    8.88    4.39
   1   3  18   15.17    3.86
   1   3  18   10.46    3.39
   1  -3  18   13.27    5.17
  -1   3 -18   11.49    4.96
   1  -3  18   10.77    4.58
  -1  -3 -18   12.91    3.78
  -1   3 -19   45.05    7.31
   1  -3  19   42.16    6.08
   1  -3  19   34.17    6.78
  -1   3 -19   34.35    6.52
  -1  -3 -19   37.50    5.61
  -1  -3 -19   39.55    5.31
   1   3  19   39.87    4.62
   1  -3  19   41.39    6.19
   1   3  19   41.29    5.90
   1   3  20   58.89    6.52
   1  -3  20   39.64    7.19
  -1  -3 -20   46.53    6.09
  -1  -3 -20   56.82    6.10
  -1   3 -20   55.61    7.29
  -1   3 -20   60.08    7.88
   1  -3  20   60.45    6.73
   1   3  21   18.46    4.20
  -1   3 -21   17.21    4.53
  -1  -3 -21   16.42    3.87
   1  -3  21   21.11    4.32
  -1   3 -21   17.11    4.98
   1  -3  21   13.31    4.67
  -1  -3 -21   10.48    3.83
   1   3  22   24.15    3.97
  -1   3 -22   23.52    4.25
  -1   3 -22   19.86    4.56
   1  -3  22   21.86    3.86
   1  -3  22   17.57    4.71
  -1  -3 -22   24.71    3.97
  -1  -3 -23   29.18    3.98
   1  -3  23   23.16    4.50
  -1   3 -23   19.30    4.29
   1   3  23   28.21    4.00
  -1   3 -23   19.40    4.46
   1  -3  23   27.53    3.62
   1   3  24    3.58    1.75
  -1   3 -24    0.20    1.58
  -1  -3 -24    1.37    2.36
   1  -3  24    4.07    2.28
   1   4 -22    0.64    2.98
  -1  -4  22    5.77    2.53
   1  -4 -22    3.50    2.57
  -1   4  22    7.53    2.10
  -1   4  22    6.37    2.54
  -1   4  21   14.20    3.24
  -1  -4  21   12.39    3.23
   1  -4 -21    7.90    2.96
  -1   4  21   15.36    2.80
   1   4 -21    6.83    3.25
   1   4 -20    4.98    3.19
   1  -4 -20    1.63    2.76
  -1   4  20    4.99    2.45
  -1   4  20    5.60    2.71
  -1  -4  20    2.82    2.77
  -1   4  20    6.64    2.76
  -1   4  19  140.11    6.94
   1  -4 -19   66.21    7.92
  -1   4  19  129.92    7.21
  -1  -4  19  138.24    9.52
  -1   4  19  139.86    8.79
   1   4 -19   64.71   10.03
   1   4 -18   17.53    5.92
   1  -4 -18   16.77    4.69
  -1   4  18   27.86    4.26
  -1  -4  18   30.23    5.27
  -1   4  18   32.32    4.07
  -1   4  18   25.99    4.89
   1   4 -17   40.34    6.34
   1  -4 -17   23.86    5.43
  -1   4  17   49.79    5.51
  -1  -4  17   43.33    6.70
   1   4 -17   47.99    7.50
   1   4 -17   37.21    7.67
  -1   4  17   50.41    6.29
   1   4 -16   34.80    6.76
   1   4 -16   27.84    6.28
  -1   4  16   28.98    4.86
  -1  -4  16   12.65   10.95
   1  -4 -16   24.68    5.33
   1   4 -16   23.55    6.81
  -1   4  16   35.47    5.41
  -1  -4  16   34.09    6.29
   1   4 -15   31.11    7.71
   1   4 -15   43.26    7.48
   1  -4 -15   19.09    5.81
   1  -4 -15   38.95    6.05
  -1   4  15   40.74    5.38
   1   4 -15   42.14    6.86
  -1  -4  15   23.93   11.46
  -1   4  15   42.88    6.33
   1   4 -14   96.73   10.30
   1   4 -14   98.92    9.71
   1  -4 -14   81.15    7.85
  -1   4  14  101.84    7.66
  -1   4  14  112.67    8.68
  -1  -4  14   44.27   12.01
   1   4 -14   78.73    8.76
  -1  -4  14   82.83   13.46
   1   4 -14   62.19   10.16
   1   4 -13  204.99   13.96
   1   4 -13  190.59   12.51
   1  -4 -13  182.19   10.72
  -1   4  13  188.83   10.23
   1  -4 -13  107.44   10.77
  -1  -4  13   92.91   15.36
  -1   4  13  222.90   11.74
   1   4 -13  158.70   11.79
  -1  -4  13  124.54   16.76
   1   4 -13  152.32   14.41
   1   4 -12   14.92    6.01
  -1   4  12   17.60    4.21
   1  -4 -12    9.38    3.85
  -1  -4  12    8.73    5.91
  -1   4  12   17.31    3.90
   1   4 -12   18.57    5.32
   1   4 -12   14.14    5.26
  -1  -4  12   17.92    7.76
   1   4 -12   12.88    4.57
  -1   4  12   10.08    5.28
   1  -4 -12   12.08    4.19
   1   4 -11   97.60   10.31
   1   4 -11   93.76   13.57
  -1   4  11   79.96    6.91
   1  -4 -11   90.25    8.21
   1  -4 -11   97.26    7.70
   1   4 -11   82.83   10.65
  -1   4  11   96.71    7.58
   1   4 -11   86.59    8.94
  -1  -4  11   82.22   13.55
  -1  -4  11   60.73   13.10
  -1   4  11   68.19    9.33
   1  -4 -10   94.35    7.78
   1   4 -10  123.86   11.25
  -1   4  10   88.51   15.91
   1  -4 -10   98.29    8.35
  -1   4  10  110.18    8.03
  -1   4  10  109.03    7.44
   1   4 -10   98.89   15.22
  -1  -4  10   73.34   10.94
  -1  -4  10   63.33   13.60
   1   4 -10  132.47   10.80
  -1   4  10   85.83    9.60
   1   4 -10  117.66   11.94
   1   4  -9  105.80    9.83
   1   4  -9  115.36   10.29
  -1   4   9   84.58    6.98
   1  -4  -9   84.27    7.92
  -1   4   9  100.26    7.35
  -1  -4   9   74.07   10.50
  -1   4   9   84.26   15.56
  -1  -4   9   67.52   13.11
   1   4  -9   77.21   13.42
  -1   4   9   96.45    7.66
  -1  -4   9   99.99    9.22
   1  -4  -9   94.38    7.43
  -1   4   9   74.19    8.57
   1   4  -9  100.49   11.08
   1   4  -8   38.23    6.49
   1  -4  -8   24.41    6.39
   1   4  -8   33.34    6.31
  -1  -4   8   21.15    8.32
  -1   4   8   33.65    4.49
   1  -4  -8   35.97    4.89
   1  -4  -8   26.40    5.19
  -1   4   8   41.30    4.95
  -1  -4   8   34.18    6.51
   1   4  -8   37.50    8.76
  -1   4   8   24.21    4.68
   1   4  -8   31.24    6.64
  -1   4   8   32.70   12.98
  -1  -4   8   29.04    8.81
  -1   4   8   27.49    5.61
   1   4  -7   83.48    8.77
  -1   4   7   71.28   15.11
  -1   4   7   83.52    6.98
   1   4  -7   74.68   10.92
   1  -4  -7   90.27    6.66
   1  -4  -7   64.39   10.62
   1  -4  -7   64.14    8.81
  -1   4   7   61.58    7.19
   1   4  -7   82.33    8.69
  -1  -4   7   53.07   11.40
  -1  -4   7   78.82    9.30
   1  -4  -7   68.61    7.37
  -1   4   7   77.42    6.62
  -1   4   7   82.33    6.50
  -1  -4   7   65.61   10.32
   1   4  -7   88.36    9.97
   1   4  -6   51.80    7.45
   1  -4  -6   32.92    6.51
  -1   4   6   45.32    5.08
  -1   4   6   44.14   12.57
   1  -4  -6   36.22    5.41
   1  -4  -6   50.66    5.27
  -1  -4   6   41.53    9.10
   1   4  -6   51.86    8.43
  -1   4   6   49.51    5.71
   1  -4  -6   46.94    6.40
  -1  -4   6   46.65    8.79
   1  -4  -6   36.34    8.35
  -1  -4   6   43.77   10.15
  -1   4   6   47.39    5.82
   1   4  -6   48.52    6.42
   1   4  -6   47.06    7.16
   1  -4  -6   38.82    7.47
   1   4  -6   47.27    8.25
  -1   4   5  294.04   10.77
   1   4  -5  327.91   15.31
   1  -4  -5  290.83   12.11
  -1  -4   5  287.81   18.69
   1  -4  -5  249.07   20.38
  -1   4   5  309.90   12.32
   1  -4  -5  301.79   13.99
  -1  -4   5  277.74   22.37
  -1   4   5  297.04   11.96
   1   4  -5  286.64   18.31
  -1   4   5  273.44   23.78
   1   4  -5  318.61   13.20
   1   4  -5  332.55   15.50
   1  -4  -5  243.29   15.27
   1  -4  -5  277.82   14.52
   1  -4  -5  313.56   11.47
  -1   4   5  338.54   11.85
   1   4  -5  318.34   17.36
   1  -4  -4   60.11    8.38
  -1  -4   4   80.76    9.50
  -1   4   4   75.40    6.46
   1  -4  -4   74.26    6.35
  -1  -4   4   77.92   10.84
  -1   4   4   92.75    6.91
   1  -4  -4   67.93   10.98
   1  -4  -4   82.94    8.12
  -1   4   4   77.91   13.67
   1   4  -4   63.28    9.49
   1   4  -4   75.18    7.30
  -1  -4   4   67.79   11.09
  -1   4   4   88.84    7.11
  -1   4   4   88.50    6.59
   1   4  -4   80.31    8.48
  -1  -4   4   73.03   11.88
   1  -4  -4   85.54    9.08
   1  -4  -4   73.37    6.79
   1   4  -4   87.13    9.77
  -1   4   3  247.50   12.42
  -1  -4   3  253.76   17.25
  -1   4   3  292.24   11.20
   1  -4  -3  230.45   10.24
  -1   4   3  293.57   11.21
   1  -4  -3  259.31   13.66
  -1  -4   3  236.37   19.96
  -1  -4   3  228.57   18.93
   1   4  -3  193.41   10.67
   1   4  -3  258.19   13.77
  -1  -4   3  252.41   14.29
   1   4  -3  286.74   15.37
  -1   4   3  257.76   21.84
  -1   4   3  289.73   11.69
  -1   4   3  312.64   11.26
   1  -4  -3  200.80   14.52
   1  -4  -3  196.03   17.93
   1  -4  -3  201.06   12.89
   1  -4  -3  223.20   10.96
  -1   4   2  824.26   17.53
  -1   4   2  840.15   17.58
   1  -4  -2  644.53   16.22
  -1   4   2  744.87   16.64
  -1  -4   2  709.25   31.85
   1  -4  -2  696.71   21.31
   1  -4  -2  667.42   30.40
  -1  -4   2  762.98   23.16
  -1  -4   2  709.00   28.56
   1  -4  -2  618.40   24.10
   1   4  -2  730.85   19.30
   1  -4  -2  755.08   22.07
  -1   4   2  826.90   18.82
  -1   4   2  716.84   34.74
  -1   4   2  762.03   20.75
   1   4  -2  760.63   22.63
   1  -4  -2  762.58   23.54
   1  -4  -2  686.52   17.96
  -1  -4   2  718.68   33.46
   1   4  -2  802.09   24.34
  -1   4   1  330.47   12.33
  -1  -4   1  342.95   15.63
  -1  -4   1  326.96   20.37
   1   4  -1  349.98   16.37
  -1   4   1  341.74   11.39
   1  -4  -1  345.98   14.94
  -1  -4   1  338.06   22.05
  -1   4   1  337.56   11.19
   1  -4  -1  280.70   10.61
   1  -4  -1  318.87   14.64
  -1   4   1  314.86   23.23
   1   4  -1  392.94   15.41
  -1  -4   1  344.43   15.54
  -1   4   1  344.73   14.15
   1  -4  -1  312.28   15.46
   1  -4  -1  283.52   11.87
  -1   4   1  342.94   11.64
   1  -4  -1  227.91   19.75
   1   4  -1  354.48   16.45
  -1   4   0   96.54   13.54
  -1  -4   0   96.90    9.70
   1  -4   0   97.78    8.91
  -1   4   0   94.48    6.61
   1  -4   0   95.15    8.75
  -1  -4   0  119.12    8.99
   1   4   0  117.79   10.02
   1  -4   0   80.20   11.87
  -1  -4   0  105.57   11.78
  -1  -4   0  109.62   12.86
  -1   4   0   93.02    7.54
   1  -4   0   91.02    7.47
  -1   4   0   91.98    8.20
  -1   4   0  101.85    7.00
   1   4   0  115.99    9.99
   1   4   1  267.00   11.58
   1   4   1  220.66   12.14
   1  -4   1  192.70   12.40
  -1   4  -1  221.03    9.28
  -1   4  -1  249.85   11.24
   1   4   1  216.33   10.86
  -1  -4  -1  243.75   13.33
  -1  -4  -1  215.49   11.87
   1  -4   1  229.07   13.08
  -1  -4  -1  218.99   16.73
  -1   4  -1  211.32   19.28
  -1   4  -1  233.38   12.40
  -1   4  -1  230.81    9.78
  -1  -4  -1  223.92   17.53
   1   4   1  247.21   13.81
  -1   4  -2  225.73   19.52
   1  -4   2  172.79   10.51
   1   4   2  188.93   12.74
   1  -4   2  207.23   12.64
  -1   4  -2  214.64    9.13
   1  -4   2  234.92   13.36
  -1  -4  -2  239.48   13.56
   1   4   2  213.87   10.94
  -1  -4  -2  243.75   12.76
  -1  -4  -2  241.46   17.93
  -1   4  -2  247.09   12.83
  -1  -4  -2  228.42   18.00
   1  -4   2  255.04   13.12
  -1   4  -2  241.28   11.00
   1   4   2  269.71   14.22
   1   4   2  256.33   12.03
  -1   4  -2  232.81    9.82
  -1  -4  -2  229.96   12.00
  -1  -4  -2  212.25   16.63
  -1   4  -3   90.21    7.33
  -1   4  -3   93.58    6.60
   1   4   3   60.85    7.40
  -1   4  -3   93.60    8.87
  -1  -4  -3   86.82    7.92
   1   4   3   73.79   11.13
   1   4   3   61.70    7.25
   1  -4   3   82.20    8.67
  -1  -4  -3   72.46   11.26
   1   4   3   67.40    8.55
   1  -4   3   44.84    6.20
   1  -4   3   94.93    9.17
  -1  -4  -3   81.32    8.58
  -1  -4  -3   83.80   11.02
  -1   4  -3   73.14   12.26
   1  -4   3   89.44    8.74
  -1  -4  -3   77.27    9.84
   1   4   3   97.08    9.09
  -1  -4  -4   13.60    7.06
   1   4   4   13.07    4.91
  -1   4  -4   10.62    6.04
  -1   4  -4   12.89    5.24
  -1  -4  -4    9.76    5.88
  -1  -4  -4   11.78    4.05
  -1  -4  -4    9.78    5.67
   1   4   4    8.32    4.58
   1   4   4    3.22    6.57
   1   4   4   12.70    5.69
   1  -4   4   10.27    5.27
   1  -4   4    4.42    3.04
   1  -4   4    7.00    5.28
  -1   4  -4    1.56    6.12
  -1   4  -4   12.82    3.77
  -1   4  -4   10.93    4.14
  -1  -4  -4   11.87    4.46
   1  -4   4    8.94    5.20
   1   4   4    7.65    4.46
   1   4   5  122.65   14.95
   1   4   5  160.42   15.68
  -1   4  -5  186.89   12.25
  -1   4  -5  159.25   17.38
  -1  -4  -5  174.05    9.87
   1   4   5  141.24   10.03
   1  -4   5  173.21   12.78
  -1  -4  -5  144.85   12.60
  -1  -4  -5  160.41   15.80
   1  -4   5  184.52   11.87
   1  -4   5  175.90   11.81
  -1   4  -5  192.29    8.81
  -1   4  -5  209.29   12.45
  -1  -4  -5  172.99   10.22
   1  -4   5   91.22    9.00
  -1   4  -5  193.31   10.06
   1   4   5  155.32   10.14
   1   4   5  204.27   12.74
  -1   4  -6    2.73    3.57
  -1   4  -6    4.20    3.26
   1  -4   6   -1.12    4.85
  -1  -4  -6    3.07    7.93
  -1   4  -6    4.92    5.23
   1   4   6   -1.43    8.21
  -1  -4  -6    5.95    3.51
   1   4   6    2.53    3.82
   1   4   6    3.57    3.47
  -1  -4  -6    4.62    4.18
  -1   4  -6   15.49    9.28
   1  -4   6    4.49    4.04
   1  -4   6    3.16    4.11
   1   4   6    8.97    7.67
   1  -4   6    3.07    4.17
  -1  -4  -6    0.69    3.31
  -1   4  -6    1.87    3.61
   1  -4   7   39.48    6.75
  -1  -4  -7   38.93   11.61
  -1   4  -7   41.17    6.88
   1  -4   7   36.70    6.76
  -1   4  -7   36.54    6.02
  -1  -4  -7   43.00    5.63
   1   4   7   36.26    5.46
  -1   4  -7   41.44    5.05
  -1   4  -7   38.10   11.49
   1   4   7   37.07    5.55
  -1   4  -7   39.38    5.39
   1  -4   7   40.16    6.38
  -1  -4  -7   32.89    6.83
   1   4   7   20.94   13.28
   1  -4   7   11.68    6.37
  -1  -4  -7   33.27    5.37
   1  -4   8    7.22    4.14
  -1  -4  -8    8.51    2.76
   1  -4   8    9.71    4.37
  -1   4  -8   11.99    4.44
  -1   4  -8    8.63    8.94
   1   4   8    9.34    3.74
  -1  -4  -8   11.62    8.00
   1  -4   8    6.48    6.13
  -1   4  -8    9.14    3.56
   1   4   8    7.70    3.42
   1  -4   8   13.10    4.25
  -1  -4  -8    7.80    4.45
  -1  -4  -8   11.93    3.51
  -1  -4  -8   10.18    3.10
  -1   4  -8   10.54    3.80
   1   4   8    8.76   16.30
  -1   4  -9  152.60    8.15
  -1   4  -9   99.80   14.22
   1   4   9   83.58   18.99
  -1   4  -9  114.58   10.25
  -1  -4  -9  162.08    9.21
   1   4   9  141.82    9.52
  -1  -4  -9  126.64    7.74
   1  -4   9  114.00   10.51
   1  -4   9  138.81   10.74
  -1  -4  -9   95.75   12.51
   1   4   9  125.38    8.62
   1  -4   9   47.41    8.11
   1  -4   9  134.57   10.41
  -1   4  -9  141.88   10.88
  -1  -4  -9   69.17    9.28
  -1  -4  -9  121.87    7.62
   1   4   9  105.88    8.55
  -1  -4 -10   27.05    4.26
  -1   4 -10   36.13    6.64
   1   4  10   27.22    5.41
   1  -4  10   37.80    6.34
  -1  -4 -10   42.42    5.30
   1  -4  10   36.26    6.39
   1   4  10   29.75    5.29
  -1  -4 -10   23.52    6.06
  -1   4 -10   31.79    5.84
  -1  -4 -10   32.42    4.25
   1   4  10   36.24    5.77
  -1   4 -11  211.87   13.49
  -1   4 -11  288.54   15.86
   1  -4  11  252.49   14.79
   1   4  11  271.58   12.75
  -1  -4 -11  358.12   13.21
   1   4  11  241.68   11.42
   1  -4  11  271.59   14.67
  -1  -4 -11  223.11   10.24
  -1  -4 -11  293.01   10.94
   1   4  11  168.29   10.80
   1   4  12   19.48    5.02
   1   4  12   16.43    4.52
  -1   4 -12   21.35    6.04
  -1  -4 -12   28.01    4.98
   1   4  12   22.59    5.03
   1  -4  12   19.84    5.90
   1  -4  12   24.28    5.82
  -1  -4 -12   31.92    4.49
  -1  -4 -12   21.25    3.73
  -1   4 -12   28.37    5.81
  -1  -4 -13  142.65    9.41
  -1   4 -13  130.34   11.88
   1   4  13  109.83    9.16
   1  -4  13   94.91   10.34
  -1  -4 -13  103.54    7.26
  -1   4 -13  155.82   11.31
  -1  -4 -13  143.32    8.45
   1  -4  13  127.25   10.48
   1   4  13  119.67    9.59
  -1  -4 -14   34.09    5.77
  -1   4 -14   45.15    7.21
   1   4  14   42.48    6.15
   1  -4  14   60.03    7.60
   1  -4  14   50.05    6.64
  -1   4 -14   57.13    8.22
  -1   4 -14   64.72    7.58
  -1  -4 -14   57.92    5.90
   1  -4  14   43.88    7.11
   1   4  14   51.78    6.47
   1  -4  15   10.46    4.36
  -1   4 -15   14.42    4.96
  -1  -4 -15    4.41    3.48
   1  -4  15   14.23    4.71
   1   4  15   11.36    3.95
  -1   4 -15   16.48    4.72
   1  -4  15    9.39    3.55
   1   4  15   13.41    4.14
  -1  -4 -15   17.94    5.22
  -1  -4 -15   13.56    3.51
  -1   4 -15    8.82    4.37
  -1   4 -16   31.47    6.30
  -1  -4 -16   37.54    4.76
   1  -4  16   39.90    5.84
   1   4  16   27.09    5.05
  -1   4 -16   36.15    5.79
  -1  -4 -16   22.11    4.89
   1   4  16   29.72    5.23
   1  -4  16   22.22    5.42
  -1   4 -16   37.66    5.92
   1  -4  17    9.89    3.87
   1   4  17    6.95    3.60
  -1   4 -17   13.35    4.53
  -1  -4 -17    7.85    3.47
  -1   4 -17   12.02    3.75
   1  -4  17    4.94    3.24
   1   4  17    7.37    3.23
  -1  -4 -17    9.34    3.27
  -1   4 -17   10.53    3.77
   1  -4  17   11.54    3.87
  -1   4 -18   32.78    6.09
   1  -4  18   37.78    5.43
   1   4  18   32.54    4.59
   1  -4  18   30.32    5.20
   1  -4  18   17.43    4.26
  -1  -4 -18   24.85    4.64
  -1  -4 -18   47.38    4.88
   1   4  18   32.38    4.92
  -1   4 -18   34.52    5.35
   1   4  19   55.98    4.71
   1  -4  19   58.07    6.07
   1  -4  19   46.29    5.73
  -1   4 -19   61.00    7.01
  -1  -4 -19   46.04    5.25
  -1   4 -19   47.07    5.65
  -1  -4 -19   53.60    5.33
   1   4  19   50.48    5.55
   1   4  20    7.05    2.65
   1  -4  20    9.09    2.68
  -1   4 -20    7.19    3.17
  -1   4 -20    7.55    3.46
   1  -4  20    0.38    2.64
   1  -4  20    7.05    2.57
  -1  -4 -20    7.29    2.48
  -1  -4 -20    4.92    2.78
   1  -4  21   13.90    3.42
  -1   4 -21   11.13    3.51
   1   4  21   13.14    3.00
   1  -4  21    8.78    3.06
  -1  -4 -21    8.14    2.80
  -1  -5  19   11.37    2.02
  -1  -5  19   10.83    2.23
   1  -5 -19    5.97    2.79
  -1  -5  19    7.15    2.46
   1   5 -18    5.34    2.88
  -1   5  18   10.39    2.73
   1  -5 -18    3.20    2.70
  -1   5  18    9.02    2.79
  -1  -5  18    3.99    2.25
  -1  -5  18   10.09    2.50
  -1  -5  18    9.08    2.83
  -1   5  17    6.77    2.69
   1  -5 -17    0.35    2.43
  -1   5  17    7.03    2.48
  -1  -5  17    2.80    2.29
  -1  -5  17    5.94    2.40
  -1  -5  17    4.73    2.35
   1   5 -17    2.03    2.47
  -1  -5  16   30.34    4.31
   1  -5 -16   15.06    4.07
  -1   5  16   29.88    4.28
  -1  -5  16   19.80    4.22
  -1  -5  16   24.96    4.51
  -1   5  16   38.67    4.18
   1   5 -16   19.21    4.68
   1   5 -15   13.96    3.92
  -1   5  15   13.83    3.11
   1  -5 -15    2.65    3.23
  -1   5  15   12.10    3.24
  -1  -5  15    9.80    3.29
  -1  -5  15   14.29    3.36
   1  -5 -14    3.66    4.01
  -1  -5  14   22.56    4.60
   1  -5 -14   16.55    4.44
  -1   5  14   27.36    4.71
   1   5 -14   39.02    5.48
  -1  -5  14   38.74    5.06
  -1   5  14   41.27    4.83
   1   5 -14   23.94    5.56
   1   5 -13    9.79    4.13
  -1   5  13   15.27    3.71
   1  -5 -13    6.23    3.59
  -1   5  13   11.07    3.46
  -1  -5  13   14.21    3.81
  -1  -5  13    8.42    3.45
   1   5 -13   14.21    4.49
   1   5 -12    7.20    3.91
   1  -5 -12    5.04    3.41
   1  -5 -12    6.32    3.52
  -1  -5  12    9.27    3.65
  -1   5  12    7.55    3.25
  -1   5  12   10.70    3.58
  -1  -5  12    9.86    3.51
   1   5 -12   12.32    4.55
  -1  -5  11    5.94    3.71
  -1  -5  11    7.29    3.31
   1   5 -11    7.34    4.13
   1  -5 -11    4.75    3.43
  -1   5  11    9.83    3.43
   1  -5 -11    5.79    3.54
  -1  -5  11   -6.39    8.01
   1   5 -11    7.25    4.20
   1  -5 -10   52.39    6.22
  -1   5  10   88.22    7.05
  -1  -5  10   70.77    7.25
  -1  -5  10   65.08    7.96
  -1   5  10   85.74    7.30
   1   5 -10   75.79    8.64
   1  -5 -10   61.99    7.50
  -1  -5  10   55.44   13.49
   1   5 -10   87.10    9.29
  -1   5   9   54.36    6.31
   1  -5  -9   46.94    5.85
   1   5  -9   61.98    8.28
   1  -5  -9   50.40    6.74
  -1   5   9   60.35    6.20
  -1  -5   9   54.07    7.31
  -1  -5   9   59.50    6.85
   1   5  -9   58.76    8.01
  -1  -5   9   47.32   12.36
  -1   5   8   38.33    5.77
   1  -5  -8   34.97    5.26
   1  -5  -8   42.94    5.94
  -1   5   8   42.63    5.43
  -1  -5   8   38.65    6.68
   1   5  -8   48.32    7.11
  -1  -5   8   45.17    6.05
   1   5  -8   48.04    7.37
   1  -5  -7  517.56   23.61
  -1   5   7  613.84   16.53
  -1  -5   7  360.16   27.29
   1  -5  -7  775.78   17.89
   1  -5  -7  780.17   21.46
  -1  -5   7  625.89   21.12
   1   5  -7  446.27   15.56
  -1   5   7  636.99   17.75
  -1  -5   7  582.98   21.57
   1   5  -7  653.76   22.23
  -1   5   7  729.02   18.10
   1   5  -7  722.07   24.32
   1   5  -6  206.51   13.40
   1  -5  -6  127.41   12.36
   1  -5  -6  206.26    9.74
  -1   5   6  185.10    9.54
   1  -5  -6  173.52   11.14
  -1  -5   6  167.02   11.68
  -1   5   6  163.27    9.60
  -1  -5   6  188.12   12.39
   1   5  -6  203.00   12.99
  -1   5   6  169.59    9.13
   1   5  -6  109.07    8.36
  -1  -5   6  124.70   16.49
  -1   5   5  163.16   10.06
   1   5  -5  164.76   10.14
  -1   5   5  163.43    8.87
   1  -5  -5  177.27    9.14
   1  -5  -5  121.88   14.95
  -1   5   5  181.69    9.44
   1  -5  -5  203.40   12.13
  -1  -5   5  195.18   12.25
   1  -5  -5  138.67   12.63
  -1  -5   5  188.91   12.44
   1   5  -5  203.21   12.94
  -1  -5   5  141.63   16.15
   1   5  -5  207.05   13.14
  -1   5   4    9.24    5.09
  -1   5   4   15.74    4.34
   1  -5  -4   18.73    3.99
  -1   5   4   17.03    4.21
   1  -5  -4   28.75    5.50
   1  -5  -4   18.75    7.04
  -1  -5   4   23.12    5.58
   1   5  -4   12.48    4.44
   1  -5  -4   22.57    6.00
   1  -5  -4   25.25    5.98
  -1  -5   4   14.54    7.48
   1  -5  -4   27.60    4.99
   1   5  -4   20.51    5.79
   1   5  -4   32.46    6.27
  -1  -5   4   22.53    5.06
  -1  -5   3  431.66   17.74
   1   5  -3  447.72   18.47
   1   5  -3  459.85   18.76
   1  -5  -3  269.67   22.76
  -1   5   3  282.17   11.11
   1  -5  -3  431.17   17.20
  -1  -5   3  398.79   16.92
   1  -5  -3  281.52   11.21
   1   5  -3  386.68   14.82
  -1   5   3  382.44   14.16
  -1  -5   3  402.42   24.03
  -1   5   3  366.92   12.60
  -1   5   3  364.56   15.51
   1  -5  -3  424.58   18.03
   1  -5  -3  438.84   14.94
   1  -5  -3  301.59   18.40
   1  -5  -2  121.79   12.14
  -1   5   2  114.52    7.91
   1   5  -2  113.26   10.31
   1  -5  -2   99.07    7.31
  -1   5   2  112.03   10.25
  -1   5   2   76.26    6.56
   1  -5  -2   97.51   14.07
   1  -5  -2  137.64   10.39
  -1  -5   2  131.27   10.15
  -1   5   2  164.71    9.73
   1  -5  -2  116.25   10.53
   1   5  -2   41.67    8.00
   1  -5  -2  141.07    9.06
  -1  -5   2  159.24   15.43
  -1  -5   2  118.80   10.58
   1   5  -2  150.84   11.21
  -1  -5   1  243.26   13.04
  -1   5   1  145.63    8.39
   1  -5  -1  182.74    8.85
  -1  -5   1  270.84   14.00
   1  -5  -1  174.18   18.52
   1  -5  -1  259.23   13.64
  -1   5   1  262.15   11.55
   1  -5  -1  259.02   11.63
   1  -5  -1  218.04   13.30
   1  -5  -1  213.11   15.26
   1   5  -1  263.84   14.56
  -1   5   1  204.73   12.34
  -1  -5   1  194.75   18.31
   1   5  -1  199.98   11.90
  -1  -5   1  235.43   12.60
   1   5  -1  269.64   14.16
  -1   5   0  108.19    7.76
  -1   5   0   95.08    9.28
  -1   5   0   46.41    5.23
   1  -5   0   94.15    6.70
   1  -5   0   75.07   10.08
   1  -5   0  120.75    9.59
  -1  -5   0  128.39    9.54
   1  -5   0   74.25   12.22
  -1  -5   0  135.18   10.02
  -1  -5   0  127.24    9.32
   1   5   0  110.07   10.65
   1  -5   0  106.13    9.96
   1  -5   0  121.81    8.37
   1   5   0  143.20   10.61
   1   5   0  124.32    9.79
  -1   5  -1   25.73    4.41
   1   5   1   39.06    6.67
  -1   5  -1   15.05    3.42
  -1  -5  -1   40.44    6.17
   1  -5   1   21.39    6.96
  -1  -5  -1   28.72    5.10
  -1  -5  -1   36.68    5.74
   1  -5   1   28.13    5.80
   1  -5   1   20.31    5.87
   1  -5   1   25.28    5.20
   1   5   1   28.87    6.49
   1  -5   1   29.64    4.67
  -1   5  -1   27.32    5.49
  -1  -5  -1   33.83    5.43
   1  -5   1   24.88    5.85
   1   5   1   44.03    6.55
   1   5   2    9.38    4.04
   1  -5   2    6.60    3.12
   1  -5   2    6.22    4.85
  -1   5  -2    5.91    2.98
  -1  -5  -2    8.60    3.90
  -1  -5  -2    5.94    3.69
   1   5   2   -0.01    4.16
  -1  -5  -2    8.34    4.23
  -1   5  -2    3.34    2.99
   1  -5   2   11.10    5.69
  -1  -5  -2    8.76    3.63
   1  -5   2    4.75    3.98
   1  -5   2    6.36    3.82
   1   5   2    3.89    4.24
  -1   5  -2    4.11    3.86
   1  -5   2    5.50    4.08
  -1  -5  -3   62.21    8.88
   1  -5   3   44.77    7.85
  -1   5  -3   49.68    5.79
   1   5   3   28.22    5.40
  -1  -5  -3   64.49    6.96
   1  -5   3   65.10    7.56
   1   5   3   43.57    6.97
   1  -5   3   46.80   10.13
  -1   5  -3   56.67    7.45
   1  -5   3   69.04    7.55
  -1  -5  -3   69.66    7.01
  -1  -5  -3   67.53    6.99
   1  -5   3   63.98    6.34
   1   5   3   77.88    8.27
  -1   5  -4  202.73   10.40
   1   5   4  177.16   10.57
  -1  -5  -4  230.89   11.84
   1  -5   4  224.25   13.17
   1  -5   4  157.19   17.67
   1   5   4  193.58   11.17
  -1   5  -4  247.17   13.55
  -1  -5  -4  193.36   15.61
   1  -5   4  182.41   10.18
  -1  -5  -4  213.75   12.14
   1  -5   4  231.27   12.95
  -1  -5  -5   24.24    4.77
   1   5   5   18.97    4.76
   1  -5   5   28.24    5.52
   1  -5   5   25.80    5.18
   1   5   5   15.82    5.00
  -1  -5  -5   18.45    6.03
  -1   5  -5   18.18    3.99
   1  -5   5   16.15    4.17
  -1   5  -5   22.86    5.52
  -1  -5  -5   29.01    5.11
  -1   5  -6    9.73    3.13
   1   5   6    7.11    4.10
  -1   5  -6   11.16    5.05
  -1  -5  -6   10.99    3.83
   1   5   6    7.06    3.73
   1  -5   6    8.76    3.91
  -1  -5  -6   15.15    4.49
  -1  -5  -6    7.72    2.76
  -1   5  -6    9.78    4.20
  -1  -5  -6    9.45    2.99
  -1  -5  -6    9.73    3.88
   1  -5   6    8.97    4.49
   1   5   7   56.59    6.70
  -1   5  -7   59.69    7.79
  -1  -5  -7   79.07    6.91
   1   5   7   58.99    6.91
   1  -5   7   58.86    7.69
   1  -5   7   77.17    7.56
  -1  -5  -7   69.91    5.80
  -1  -5  -7   38.97    7.70
  -1   5  -7   52.11    7.33
  -1  -5  -7   75.99    5.73
  -1   5  -7   57.47    6.07
  -1   5  -8  131.15   10.48
  -1  -5  -8  149.12    9.19
  -1  -5  -8  144.92    8.00
  -1  -5  -8   70.25   10.86
   1   5   8  135.58    9.48
   1  -5   8  139.56   10.65
   1   5   8  108.02    8.68
  -1  -5  -8  183.51    8.14
  -1   5  -8  126.48    7.89
   1  -5   8  151.45   10.22
   1  -5   8  150.92   10.55
  -1   5  -8  129.87   10.50
  -1   5  -9  109.58    9.65
  -1  -5  -9  146.07    8.81
   1   5   9  106.57    8.66
   1  -5   9  121.14    8.99
   1  -5   9  115.25    9.89
  -1   5  -9  125.59    7.53
  -1  -5  -9  134.88    7.39
  -1  -5  -9  149.17    7.56
   1  -5   9  126.12    9.72
  -1   5  -9  107.29    9.42
   1   5   9   92.09    7.90
  -1   5 -10  192.63   12.07
  -1   5 -10  155.68   11.28
  -1  -5 -10  252.34    9.37
  -1  -5 -10  216.24    9.04
   1  -5  10  171.80   10.35
  -1  -5 -10  181.73   10.01
   1   5  10  196.10   10.73
   1  -5  10  174.25   11.60
   1   5  10  146.04    9.00
   1  -5  10  179.94   11.62
   1  -5  11   40.09    5.74
  -1   5 -11   32.03    5.74
  -1  -5 -11   33.05    5.14
   1   5  11   23.63    5.07
   1  -5  11   31.20    5.65
  -1  -5 -11   45.55    4.48
  -1  -5 -11   29.99    4.20
  -1   5 -11   41.09    6.15
   1   5  11   31.70    4.16
   1  -5  11   41.87    5.42
   1  -5  12   14.99    3.91
  -1  -5 -12    9.34    3.57
  -1  -5 -12   21.43    3.25
   1   5  12    9.53    3.76
  -1   5 -12   15.90    4.40
   1   5  12    7.57    2.81
   1  -5  12   15.96    3.80
   1  -5  12   12.89    4.05
  -1   5 -12   12.31    4.25
  -1   5 -13   -1.89    3.12
   1  -5  13   -0.79    2.75
   1   5  13   -3.33    2.91
   1  -5  13    1.94    2.24
   1  -5  13   -0.53    2.74
  -1   5 -13    2.91    3.14
  -1  -5 -13   -2.70    2.40
  -1  -5 -13   -2.03    2.89
   1   5  14   10.21    2.95
  -1   5 -14   15.17    4.09
  -1  -5 -14    8.38    3.31
   1   5  14    9.82    3.24
   1  -5  14    8.75    3.34
  -1   5 -14   14.92    3.86
  -1  -5 -14   18.37    2.80
   1  -5  14   10.94    3.24
   1  -5  14   15.76    3.81
   1  -5  15    1.13    2.50
   1   5  15    1.50    2.10
  -1   5 -15    1.92    2.56
  -1  -5 -15   -0.91    2.35
   1   5  15   -0.16    2.26
  -1  -5 -15    4.11    1.98
  -1   5 -15    0.15    2.27
   1  -5  15    2.59    2.19
   1  -5  16   -1.56    1.98
  -1   5 -16    1.65    2.07
  -1   5 -16   -0.41    2.27
  -1  -5 -16   -2.36    2.32
   1   5  16    1.76    2.07
   1   5  16    0.21    2.54
  -1  -5 -16    1.22    1.54
  -1   5 -17   13.13    3.50
   1  -5  17    9.65    2.91
  -1  -5 -17    9.51    3.12
   1   5  17   11.45    2.73
  -1  -5 -17   13.34    2.99
   1   5  17   11.68    2.73
  -1   5 -17   16.41    3.15
  -1  -5 -18   -1.47    1.43
   1   5  18   -2.43    1.30
  -1   6  14   10.49    2.50
  -1  -6  14   17.60    2.64
   1  -6 -13   17.56    2.92
  -1   6  13   17.61    3.34
  -1  -6  13   20.43    2.90
  -1  -6  13   21.44    3.26
   1   6 -13   22.23    3.08
  -1  -6  12   20.50    3.23
   1  -6 -12   16.43    3.14
  -1   6  12   17.90    3.13
  -1  -6  12   16.43    2.76
   1   6 -12   25.40    3.58
   1  -6 -11   -1.71    2.81
  -1  -6  11   17.60    2.72
   1  -6 -11   12.62    2.91
  -1   6  11   10.93    2.85
  -1  -6  11   15.13    2.58
  -1  -6  11   16.64    3.13
  -1  -6  11    3.85    1.97
   1   6 -11   21.50    3.31
  -1   6  10   16.82    2.65
   1  -6 -10   12.33    2.80
  -1   6  10   12.97    3.05
  -1  -6  10   14.32    2.77
  -1  -6  10   18.12    3.28
  -1  -6  10   16.15    2.56
  -1  -6  10    6.51    2.36
   1   6 -10   20.81    3.34
   1  -6  -9   18.92    3.28
  -1  -6   9   26.25    3.17
  -1   6   9   16.79    2.69
   1  -6  -9   16.74    3.30
  -1   6   9   17.87    3.47
  -1  -6   9   21.42    3.38
  -1  -6   9   20.65    3.86
  -1  -6   9   14.92    3.07
   1   6  -9   29.87    4.25
  -1   6   8   51.28    4.67
   1  -6  -8   45.78    4.33
  -1  -6   8   52.79    4.40
   1  -6  -8   44.68    4.81
  -1   6   8   40.63    4.55
  -1  -6   8   43.06    4.56
  -1  -6   8   45.53    5.06
   1   6  -8   64.47    5.88
  -1  -6   8   32.18    4.31
   1   6  -7    2.33    2.47
  -1  -6   7   -0.29    2.04
  -1   6   7    5.03    2.53
  -1  -6   7    3.76    2.04
   1  -6  -7    3.28    2.52
  -1  -6   7    2.67    2.48
   1  -6  -7    1.59    2.09
  -1  -6   7   -0.02    2.18
  -1   6   7    6.63    2.48
   1  -6  -6   77.39    5.37
  -1  -6   6   98.99    6.39
  -1   6   6   71.08    5.63
   1  -6  -6   95.07    6.75
  -1  -6   6   91.46    6.51
   1   6  -6   67.88    5.51
  -1   6   6   88.33    6.59
  -1  -6   6   95.19    7.07
  -1  -6   6   82.01    6.27
   1  -6  -5   29.31    3.85
  -1  -6   5   42.01    4.48
   1   6  -5   19.62    4.18
  -1   6   5   27.90    4.03
   1  -6  -5   37.54    4.84
  -1  -6   5   38.57    4.39
  -1   6   5   35.63    4.70
  -1  -6   5   37.40    4.51
  -1  -6   5   42.08    5.09
   1   6  -5   56.45    5.81
  -1  -6   4   25.83    3.92
   1  -6  -4   24.55    3.53
   1   6  -4    9.29    3.86
  -1  -6   4   25.59    3.94
  -1   6   4   15.65    3.79
  -1  -6   4   19.93    4.15
  -1  -6   4   23.23    3.73
  -1   6   4   12.60    4.01
   1   6  -4   41.50    5.08
   1  -6  -4   28.52    4.46
  -1   6   3  163.27    8.79
   1  -6  -3  154.54    6.87
  -1  -6   3  160.08    7.92
  -1  -6   3  120.82    8.55
  -1  -6   3  128.10    7.78
   1   6  -3   83.50    7.41
  -1  -6   3  158.43    8.36
   1   6  -3  207.64   10.25
   1  -6  -3  151.60    8.96
   1  -6  -2  173.79    7.24
  -1  -6   2  159.66    8.42
   1  -6  -2  174.25    9.38
  -1  -6   2  142.34    7.81
   1   6  -2   69.90    7.42
  -1  -6   2  160.80    8.49
  -1   6   2  105.18    7.92
  -1   6   2  134.34    8.83
   1   6  -2  216.08   10.48
   1   6  -1   42.32    6.28
  -1  -6   1  125.98    7.19
   1  -6  -1  105.69    8.21
  -1  -6   1   96.15    6.52
  -1  -6   1  114.23    7.25
  -1   6   1  105.70    7.16
  -1   6   1   81.48    7.63
   1   6  -1  150.85    9.04
  -1  -6   0   11.84    3.13
   1  -6   0   10.27    3.38
  -1  -6   0   12.30    3.34
   1   6   0   -1.96    4.75
  -1   6   0   -1.09    3.33
  -1  -6   0   10.27    2.98
  -1   6   0    3.44    3.49
  -1  -6  -1   11.29    3.01
  -1  -6  -1   12.25    3.22
   1   6   1    0.37    4.53
   1  -6   1   10.72    3.14
  -1   6  -1    7.88    3.65
   1  -6   1    8.13    2.68
  -1  -6  -1   12.37    3.08
   1  -6   1   11.44    3.33
  -1   6  -1    2.66    3.03
  -1   6  -2    2.32    2.96
  -1  -6  -2    8.86    2.84
   1  -6   2    7.63    2.98
   1   6   2    0.64    3.77
  -1  -6  -2    7.66    2.23
  -1   6  -2    7.55    3.26
  -1  -6  -2   10.99    2.98
   1  -6   2   12.66    2.84
   1  -6   2    8.63    3.13
  -1   6  -3   28.06    4.84
  -1  -6  -3   49.80    4.72
   1  -6   3   27.86    4.64
  -1   6  -3   20.50    4.29
   1  -6   3   40.25    4.93
  -1  -6  -3   40.43    3.68
   1  -6   3   41.28    4.09
   1   6   3   14.67    4.22
  -1  -6  -4   33.69    4.02
   1  -6   4   24.35    4.35
   1  -6   4   34.03    4.57
   1   6   4   12.42    3.65
   1   6   4   15.58    3.73
  -1   6  -4   21.32    4.22
  -1  -6  -4   35.32    3.51
   1  -6   4   37.84    3.77
  -1   6  -4   23.41    4.63
  -1  -6  -5   35.56    4.32
   1  -6   5   35.76    4.62
   1   6   5   18.39    3.81
   1  -6   5   25.71    4.57
   1   6   5   20.58    3.86
  -1   6  -5   19.60    3.98
  -1   6  -5   27.40    4.87
  -1  -6  -5   41.71    3.66
   1  -6   5   40.11    3.82
  -1   6  -6   33.72    5.34
  -1   6  -6   32.48    4.49
  -1  -6  -6   42.10    4.60
   1   6   6   28.66    4.04
   1  -6   6   46.89    5.12
   1  -6   6   38.16    4.76
   1   6   6   25.10    4.10
   1  -6   6   46.70    3.91
  -1  -6  -6   57.69    4.00
  -1  -6  -7    5.42    1.83
   1  -6   7    7.91    2.63
  -1  -6  -7    5.95    2.54
  -1   6  -7    3.88    2.56
   1   6   7    1.20    2.13
   1  -6   7    3.03    2.35
  -1   6  -7    4.58    2.89
   1  -6   7    5.56    1.83
   1   6   7    2.56    2.29
   1  -6   8    1.62    2.17
  -1  -6  -8    2.32    2.18
   1   6   8   -0.76    2.41
   1   6   8   -0.65    1.91
  -1   6  -8   -0.21    2.55
  -1  -6  -8    0.68    1.44
  -1   6  -8    0.83    2.37
   1  -6   8    0.48    2.02
  -1  -6  -9   16.98    3.39
   1   6   9   11.13    3.31
   1  -6   9   25.46    3.68
  -1   6  -9   14.89    3.95
   1  -6   9   21.02    3.42
   1   6   9   18.85    2.84
  -1  -6 -10   27.97    3.97
   1  -6  10   42.18    4.36
   1   6  10   32.88    3.28
  -1   6 -10   29.31    5.00
   1  -6  10   33.81    4.06
  -1  -6 -11   -0.35    1.77
   1   6  11    0.67    1.85
   1  -6  11    1.00    1.56
  -1   6 -11   -0.35    2.06
   1  -6  11   -0.10    1.51
  -1  -6 -12    8.98    2.86
   1   6  12   11.31    2.95
   1  -6  12   19.30    3.16
   1  -6  12   15.46    3.12
  -1   6 -12   14.17    3.65
   1  -6  13    7.25    1.73
  -1  -6 -13    3.76    2.08
   1   6  13   -0.37    2.01
  -1   6 -13    3.20    2.16
   1  -6  13    7.63    1.79
   2   0 -27    4.82    4.29
  -2   0  27   -1.37    4.15
  -2   0  26   36.75    4.38
  -2   0  26   37.45    5.07
   2   0 -25    7.67    4.55
  -2   0  25   15.03    3.49
   2   0 -24   18.50    6.81
  -2   0  24   50.02    5.99
  -2   0  23    1.13    3.46
  -2   0  23  -12.29    7.45
   2   0 -22   -1.42    3.82
   2   0 -22   10.11    5.57
   2   0 -22    1.35    2.95
  -2   0  22   -0.90    3.42
  -2   0  22   -5.24   10.29
   2   0 -21   14.26    5.12
   2   0 -21    4.00    4.42
  -2   0  21   21.04    4.51
   2   0 -21   17.60    6.80
  -2   0  21   24.63    6.99
   2   0 -20   30.14    6.33
  -2   0  20   59.05    6.01
   2   0 -20   43.85    6.78
  -2   0  20   56.16   10.51
   2   0 -20   51.47    9.02
  -2   0  20   54.40    8.62
   2   0 -19    9.81    4.34
  -2   0  19   15.17    6.00
   2   0 -19   14.64    6.23
   2   0 -19    8.70    4.38
  -2   0  19   13.09    6.83
   2   0 -18   -1.35    3.48
  -2   0  18   -1.55    5.11
   2   0 -18    2.07    3.90
   2   0 -18    1.61    4.71
  -2   0  18   -0.51    4.97
   2   0 -17  219.47   12.52
   2   0 -17  232.40   15.60
   2   0 -17  200.70   11.63
  -2   0  17  249.50   16.64
  -2   0  17  261.07   14.94
   2   0 -16   62.84    7.52
   2   0 -16   52.34    6.74
   2   0 -16   74.24   10.11
  -2   0  16   82.42    9.48
  -2   0  16   86.74    8.59
   2   0 -15    2.80    4.46
  -2   0  15    7.99    4.27
   2   0 -15    3.67    3.80
  -2   0  15    7.83    3.90
   2   0 -15    7.56    5.32
  -2   0  15    2.96    3.97
   2   0 -14  296.83   18.57
  -2   0  14  317.48   13.93
  -2   0  14  310.69   14.89
   2   0 -14  333.86   15.83
   2   0 -13    2.96    4.22
   2   0 -13    9.18    4.98
  -2   0  13    6.35    3.75
  -2   0  13    5.82    3.52
  -2   0  12   16.89    4.23
   2   0 -12   13.29    5.06
   2   0 -12   16.71    5.24
  -2   0  12   23.78    4.59
   2   0 -11  238.30   14.29
  -2   0  11  266.31   11.71
   2   0 -11  242.58   13.61
   2   0 -10 1998.73   37.88
   2   0 -10 2026.93   34.20
  -2   0  10 1984.63   33.60
   2   0  -9   30.89    5.73
   2   0  -9   34.95    5.25
  -2   0   9   26.08    4.71
  -2   0   9   34.00    4.80
  -2   0   8  157.03    8.57
  -2   0   8  194.50    5.39
   2   0  -8  163.50   10.89
   2   0  -8  159.14    8.95
  -2   0   8  167.01    9.41
   2   0  -7  419.17   13.08
  -2   0   7  415.30   12.96
   2   0  -7  393.84   15.48
  -2   0   7  435.40    8.06
   2   0  -6  718.23   20.15
  -2   0   6  707.91   16.14
  -2   0   6  725.14   11.71
   2   0  -5  388.84   10.52
  -2   0   5  413.36   11.34
   2   0  -5  432.49   15.74
  -2   0   4  270.34    8.44
   2   0  -4  255.62    9.31
  -2   0   3 2320.65   22.39
   2   0  -3 2260.01   28.47
   2   0  -2  118.88    7.18
   2   0  -2  112.75    8.16
  -2   0   2  126.05    5.21
  -2   0   2  118.53    8.52
  -2   0   1   16.38    3.19
  -2   0   1   18.05    2.38
   2   0  -1   14.15    3.82
   2   0  -1   21.55    2.80
   2   0  -1   17.13    3.90
  -2   0   1   17.06    3.98
  -2   0   0  106.41    6.60
   2   0   0  116.41    7.60
  -2   0   0  112.75    7.16
  -2   0   0  109.53    8.01
   2   0   0  129.05    5.49
  -2   0   0  119.00    5.92
  -2   0   0  115.33    5.28
  -2   0  -1    3.08    2.93
  -2   0  -1   -5.71    2.09
   2   0   1    4.23    3.01
  -2   0  -1    3.97    1.77
   2   0   1    3.59    1.75
  -2   0  -1    3.27    2.39
  -2   0  -1    3.80    1.84
  -2   0  -2  447.90   13.91
  -2   0  -2  412.74   10.44
   2   0   2  403.22    9.14
  -2   0  -2  452.69   11.72
  -2   0  -2  413.31   12.19
   2   0   2  427.02   14.48
  -2   0  -3 2775.80   31.33
   2   0   3 2661.58   37.05
  -2   0  -3 2555.76   26.76
  -2   0  -3 2868.40   29.79
  -2   0  -4   47.16    4.44
   2   0   4   46.30    3.08
  -2   0  -4   57.93    4.84
   2   0   4   52.49    6.26
  -2   0  -4   51.04    4.99
  -2   0  -5   25.56    3.87
   2   0   5   21.18    2.23
   2   0   5   22.68    4.49
  -2   0  -5   28.57    3.96
   2   0   6  632.78    9.67
   2   0   6  653.20   20.47
  -2   0  -6  766.67   18.88
  -2   0  -6  775.56   17.52
  -2   0  -7 2426.45   34.87
  -2   0  -7 2489.56   32.47
   2   0   8  227.98   14.02
  -2   0  -8  256.81   11.90
  -2   0  -9   81.84    8.33
   2   0   9   80.19    9.30
  -2   0  -9   81.15    8.04
  -2   0 -10   43.71    7.14
   2   0  10   42.74    8.11
  -2   0 -10   30.89    6.90
  -2   0 -11   -1.22    4.56
  -2   0 -11    0.21    4.12
  -2   0 -11   -4.80    5.02
   2   0  11   -0.83    4.41
  -2   0 -12  101.34   12.46
   2   0  12  115.46   13.02
  -2   0 -12   96.01   10.61
   2   0  13    0.90    2.59
  -2   0 -13    0.21    3.66
   2   0  13    1.57    4.02
  -2   0 -13   -1.05    5.54
   2   0  13   -0.04    3.41
   2   0  13   -3.80    5.48
  -2   0 -13   -0.78    5.25
  -2   0 -13    3.25    3.93
  -2   0 -13   -1.37    4.57
   2   0  13   -3.12    5.20
   2   0  14   11.19    5.23
  -2   0 -14    9.33    5.07
   2   0  14    6.13    6.68
  -2   0 -14    9.99    4.67
   2   0  14   12.46    6.01
  -2   0 -14    7.47    8.70
   2   0  14   14.06    7.57
  -2   0 -14   14.45    5.58
  -2   0 -14    4.07    6.19
  -2   0 -14    6.90    5.06
  -2   0 -15   53.33   12.24
   2   0  15   71.74    8.43
  -2   0 -15   73.11    8.60
   2   0  15   75.70   10.52
  -2   0 -15   62.77    9.02
   2   0  15   47.07   13.53
  -2   0 -15   58.39    7.10
  -2   0 -15   73.34   11.31
   2   0  15   63.71    7.62
  -2   0 -15   75.52    8.35
  -2   0 -16    4.63    3.74
  -2   0 -16    8.66    5.88
   2   0  16    4.30    3.85
  -2   0 -16    4.56    3.89
   2   0  16    2.65    4.01
  -2   0 -16   -8.90   12.39
   2   0  16    0.53    3.77
  -2   0 -16    1.13    3.37
  -2   0 -16    5.31    5.59
   2   0  16   -3.17    8.64
   2   0  17   97.22    9.67
  -2   0 -17  151.09   12.10
   2   0  17   75.10   10.32
  -2   0 -17  114.91    8.88
  -2   0 -17   77.41    9.39
   2   0  17  135.29    9.90
  -2   0 -17  110.94    9.65
  -2   0 -18   -1.25    3.55
  -2   0 -18    7.59    5.46
  -2   0 -18   -7.64    4.28
   2   0  18   -0.39    4.31
  -2   0 -18    4.41    3.65
   2   0  18   -0.43    3.86
  -2   0 -18   -4.98    4.70
  -2   0 -18   -3.46    4.27
   2   0  18    1.16    3.27
  -2   0 -19    1.64    3.70
   2   0  19    1.68    3.91
   2   0  19    0.92    4.07
   2   0  19    3.41    4.19
  -2   0 -19    1.86    3.69
  -2   0 -19    0.63    3.41
  -2   0 -19    9.76    9.45
   2   0  20   80.39    9.69
  -2   0 -20  111.64    8.74
   2   0  20   95.93    9.16
  -2   0 -20  108.44   10.71
  -2   0 -20  117.77   17.90
  -2   0 -21  145.81    9.45
   2   0  21  134.97   10.38
   2   0  21  119.01   10.52
   2   0  22   14.55    4.21
  -2   0 -22   23.83    5.45
   2   0  22   15.83    4.82
  -2   0 -22   19.61    4.48
   2   0  23    3.93    2.90
  -2   0 -23    3.02    3.48
  -2   0 -23   -1.20    2.14
   2   0  24   41.99    4.82
  -2   0 -24   50.63    6.35
   2   0  25    1.75    2.48
  -2   0 -25   -0.22    2.88
   2   1 -27   -4.74    2.56
  -2   1  27    5.48    2.05
  -2   1  27    6.48    1.96
  -2  -1  27   -3.57    2.38
   2   1 -26    7.34    4.22
   2  -1 -26    8.29    4.45
  -2   1  26   28.37    4.07
  -2  -1  26    4.43    4.46
  -2   1  26   25.15    4.34
  -2  -1  26   32.36    4.44
   2   1 -25    1.81    4.09
   2  -1 -25    3.80    3.67
  -2   1  25   10.05    3.39
  -2  -1  25   10.49    3.12
  -2   1  25    7.33    2.27
   2  -1 -24   24.60    5.37
  -2   1  24   74.27    7.24
  -2  -1  24   66.10    6.77
  -2   1  24   80.37    5.90
   2  -1 -24   64.25    6.11
   2   1 -24   60.80    6.51
   2   1 -24   34.19    7.85
  -2  -1  23   19.69    4.36
   2  -1 -23    7.89    3.80
  -2  -1  23   17.21    4.56
  -2   1  23   24.16    4.10
   2   1 -23   22.95    5.50
   2  -1 -23   12.55    4.74
   2   1 -23   10.39    5.36
   2   1 -22   12.08    5.39
  -2   1  22   21.03    4.50
  -2  -1  22   14.02    4.27
   2  -1 -22    9.72    4.36
  -2   1  22   21.35    4.28
   2  -1 -22   13.64    4.75
   2   1 -22   16.83    6.22
   2   1 -22    8.85    5.50
  -2   1  22   16.16   10.72
   2  -1 -21    1.65    4.22
   2   1 -21   -0.92    4.47
  -2   1  21   -2.04    4.00
  -2  -1  21   -0.26    3.78
   2  -1 -21    2.30    3.67
   2   1 -21    2.05    5.04
   2  -1 -21    5.35    5.49
  -2   1  21   -0.85    8.57
  -2  -1  21   16.64    5.73
  -2   1  21   -7.26    9.07
   2   1 -21    5.38    4.23
   2   1 -20  182.72   16.43
   2  -1 -20  209.38   12.81
   2   1 -20  163.97   13.16
   2  -1 -20  215.28   12.41
   2  -1 -20  239.59   15.98
   2   1 -20  184.81   15.69
  -2  -1  20  238.32   20.07
  -2   1  20  221.33   18.78
  -2   1  20  156.93   14.12
  -2   1  20  225.67   16.87
  -2   1  20  274.28   13.56
   2   1 -19   68.67   10.97
   2  -1 -19   58.64    8.14
   2   1 -19   64.77    8.94
   2  -1 -19   86.55   10.55
   2   1 -19   74.40   11.03
  -2   1  19   68.45    9.86
  -2  -1  19   96.62   13.41
  -2   1  19   84.15   12.61
  -2   1  19   88.48   11.20
   2  -1 -19   77.09    7.99
   2  -1 -18   41.37    7.37
   2  -1 -18   31.44    5.21
   2   1 -18   27.55    5.82
  -2  -1  18   36.68    7.47
   2  -1 -18   29.33    6.07
   2   1 -18   40.88    7.70
   2   1 -18   40.04    8.45
  -2   1  18   38.30    7.29
  -2   1  18   38.88    8.25
  -2  -1  18   40.02    9.11
   2   1 -17   51.55   14.43
  -2  -1  17   55.17    9.57
   2   1 -17   44.40    6.53
   2  -1 -17   62.61    6.38
   2  -1 -17   44.78    6.90
   2   1 -17   53.33    8.50
   2   1 -17   39.07    6.31
   2   1 -17   54.26    9.43
  -2   1  17   58.55    8.21
   2  -1 -17   59.58    8.61
  -2  -1  17   54.73    8.78
  -2   1  17   69.16    9.65
   2   1 -16   58.61    9.41
   2   1 -16   45.71    6.75
   2  -1 -16   56.92    7.08
   2   1 -16   54.68    9.58
  -2   1  16   57.48    8.65
   2   1 -16   70.77   12.07
   2   1 -16   46.28    6.53
   2  -1 -16   55.96    6.68
   2  -1 -16   60.77    8.65
  -2   1  16   66.67    8.38
  -2  -1  16   54.58    9.49
  -2   1  16   63.43    7.98
  -2  -1  16   55.24    8.37
   2   1 -15  202.20   18.55
   2   1 -15  144.90   10.79
   2  -1 -15  181.59   11.09
   2   1 -15  201.79   13.51
   2   1 -15  181.70   14.48
   2   1 -15  122.02   10.44
   2  -1 -15  168.79   10.68
   2  -1 -15  255.81   13.69
  -2   1  15  202.28   13.28
  -2  -1  15  189.98   15.20
  -2   1  15  200.60   12.62
  -2  -1  15  195.46   13.35
   2   1 -14  238.05   11.78
   2  -1 -14  288.85   14.00
   2   1 -14  184.66   10.88
   2  -1 -14  223.23   11.62
   2   1 -14  212.81   12.91
   2   1 -14  152.63   10.02
   2   1 -14  247.81   19.10
   2   1 -14  251.67   15.17
  -2   1  14  219.78   13.38
  -2   1  14  247.32   13.61
  -2  -1  14  242.32   13.78
  -2   1  13  139.21   10.19
   2  -1 -13  101.10   10.10
  -2  -1  13  136.45   10.01
  -2   1  13  141.06   10.17
   2   1 -13  141.26   14.27
  -2   1  12  105.76    8.42
  -2  -1  12   91.16    7.05
   2  -1 -12   87.88    8.25
   2   1 -12  107.65   11.93
  -2   1  12   96.65    9.62
  -2  -1  12  104.06    8.46
  -2  -1  12  100.68    7.88
  -2   1  12  104.10    8.53
   2   1 -11  117.23   12.07
  -2  -1  11  117.01    7.53
   2  -1 -11  102.02    9.17
   2  -1 -11  107.94    7.96
  -2   1  11  110.82    9.58
  -2  -1  11  109.29    7.75
  -2   1  10  317.30   14.18
  -2  -1  10  277.48   11.17
  -2   1  10  244.57   13.79
   2   1 -10  249.88   16.30
  -2  -1  10  286.31   11.06
   2  -1 -10  314.14   12.20
   2  -1 -10  296.50   14.01
  -2  -1   9  845.50   18.98
   2   1  -9  803.51   26.73
  -2   1   9  696.41   24.47
  -2  -1   9  787.74   16.94
   2  -1  -9  795.55   21.78
   2  -1  -9  874.96   19.12
  -2  -1   9  824.05   18.62
  -2   1   9  631.24   21.56
  -2   1   9  821.44   21.53
  -2   1   8  427.61   18.67
   2   1  -8  494.28   19.71
   2  -1  -8  509.65   17.16
   2  -1  -8  569.95   15.42
  -2   1   8  475.48   18.25
  -2   1   8  488.29   16.20
   2   1  -8  470.73   17.67
  -2  -1   8  525.60   15.79
  -2  -1   8  498.16   14.56
  -2  -1   8  473.10   12.49
   2   1  -7  324.35   15.40
  -2  -1   7  339.85   14.03
  -2   1   7  300.04   15.21
  -2   1   7  336.70   13.44
   2   1  -7  317.98   14.13
   2  -1  -7  376.31   11.78
  -2   1   7  285.14   12.39
  -2   1   7  308.37   14.86
  -2   1   6   57.77    5.89
  -2   1   6   58.57    7.12
   2   1  -6   56.90    6.55
   2  -1  -6   71.23    5.31
  -2  -1   6   60.19    6.46
   2   1  -6   65.10    7.18
  -2   1   6   57.09    6.09
  -2   1   6   70.58    6.50
   2   1  -6   63.21    7.17
   2   1  -5 1601.00   31.15
  -2   1   5 1593.74   31.93
   2   1  -5 1591.18   30.93
  -2   1   5 1627.02   27.29
  -2   1   5 1640.29   27.10
   2   1  -5 1623.41   28.08
  -2  -1   4  549.91   10.11
   2   1  -4  563.10   18.45
   2   1  -4  609.06   16.52
   2  -1  -4  590.36   14.25
   2   1  -4  609.42   18.98
  -2   1   4  667.11   16.77
  -2   1   4  677.28   16.93
  -2   1   4  588.28   19.23
  -2   1   3   30.22    4.69
  -2  -1   3   32.86    3.02
  -2   1   3   31.89    5.28
   2   1  -3   29.34    5.02
   2  -1  -3   35.26    5.08
   2  -1  -3   21.30    2.40
   2   1  -3   29.26    4.47
   2  -1  -3   33.09    3.65
  -2   1   3   30.66    4.55
  -2   1   3   26.12    3.51
   2   1  -3   28.56    5.27
   2   1  -2  691.04   16.47
  -2  -1   2  746.86   13.38
   2  -1  -2  766.43   19.00
   2  -1  -2  687.40   12.86
   2   1  -2  677.80   19.24
  -2  -1   2  744.59   24.90
   2  -1  -2  706.04   14.67
  -2   1   2  769.81   18.11
  -2   1   2  705.52   20.46
   2   1  -2  702.72   20.95
   2   1  -1 1517.80   23.16
   2  -1  -1 1612.93   26.74
  -2   1   1 1508.73   29.55
  -2  -1   1 1652.01   20.40
   2   1  -1 1527.23   28.50
  -2  -1   1 1619.01   35.84
   2   1  -1 1491.04   30.64
  -2   1   1 1629.64   19.18
   2  -1  -1 1573.90   20.68
  -2   1   1 1642.27   25.81
  -2  -1   1 1506.45   27.22
  -2   1   0  208.32   11.15
  -2   1   0  263.42    8.46
   2  -1   0  232.60   10.51
   2   1   0  220.16   11.12
  -2  -1   0  220.14   13.56
  -2  -1   0  229.82   10.42
   2   1   0  224.28   12.59
  -2  -1   0  235.51    8.31
   2   1   0  244.75    9.42
  -2  -1   0  221.92   11.39
   2   1   1  872.52   24.25
   2   1   1  889.22   22.18
  -2  -1  -1  828.42   22.62
   2  -1   1  850.03   19.67
  -2   1  -1  827.28   21.74
  -2  -1  -1  832.93   16.05
  -2  -1  -1  831.62   22.93
   2   1   1  880.78   16.81
  -2   1  -1  937.84   16.63
  -2  -1  -2  941.82   24.20
   2   1   2  957.95   26.26
  -2   1  -2  918.46   22.73
  -2  -1  -2  883.87   17.44
   2  -1   2  922.71   18.65
  -2  -1  -2  914.20   23.40
   2   1   2  862.00   16.24
   2  -1   2  897.95   20.51
  -2  -1  -3  739.99   21.69
  -2   1  -3  695.50   20.05
  -2  -1  -3  727.35   16.64
   2  -1   3  676.17   16.47
   2   1   3  757.92   23.56
  -2   1  -3  798.59   17.48
  -2  -1  -3  687.34   20.12
  -2  -1  -3  708.72   20.19
   2   1   4 1395.62   32.67
  -2  -1  -4 1297.31   26.83
  -2  -1  -4 1343.70   23.92
  -2   1  -4 1356.19   24.76
  -2  -1  -4 1396.36   29.42
  -2   1  -4 1271.90   27.25
   2  -1   4 1278.28   23.62
  -2   1  -5  512.05   15.83
  -2  -1  -5  512.44   15.89
  -2  -1  -5  557.96   19.05
  -2  -1  -5  534.99   17.49
   2  -1   5  465.18   15.42
   2   1   5  508.98   20.42
  -2   1  -5  510.13   18.00
  -2  -1  -6  894.05   21.69
  -2   1  -6  883.93   23.72
   2  -1   6  841.72   21.65
   2   1   6  867.70   26.80
  -2  -1  -6  936.75   23.09
  -2   1  -6  886.62   22.89
   2  -1   7  320.48   14.46
  -2   1  -7  333.73   15.08
  -2   1  -7  297.36   14.51
  -2  -1  -7  316.82   14.37
   2   1   7  291.18   16.80
  -2   1  -7  280.11   12.75
  -2  -1  -7  353.63   11.56
  -2  -1  -8  440.49   17.60
  -2   1  -8  416.77   17.25
  -2   1  -8  357.16   18.54
  -2  -1  -8  352.51   13.54
  -2  -1  -8  466.24   13.45
   2   1   8  379.94   19.58
  -2   1  -8  332.87   13.96
   2  -1   8  412.78   16.92
  -2  -1  -9  406.35   17.83
  -2   1  -9  362.12   17.30
   2  -1   9  382.48   17.12
   2   1   9  331.58   19.49
  -2   1  -9  306.11   13.57
  -2  -1  -9  396.21   14.61
  -2  -1 -10   16.70    5.92
  -2   1 -10   29.86    6.77
   2  -1  10   23.67    6.06
  -2  -1 -10   27.28    5.26
   2   1  10   18.08    6.48
  -2  -1 -11   55.88    7.05
  -2  -1 -11   47.02    8.50
   2  -1  11   40.75    7.79
   2   1  11   52.92    9.54
  -2   1 -11   40.65    7.38
  -2  -1 -12   15.07    3.06
   2   1  12   17.02    4.08
  -2  -1 -12    8.31    4.98
   2   1  12    6.78    3.84
   2  -1  12    9.52    4.09
   2   1  12   15.20    3.77
  -2  -1 -12    8.14    5.45
   2  -1  12   17.40    5.30
   2  -1  12   14.92    5.60
  -2   1 -12   11.77    4.95
  -2   1 -12   15.60    3.61
  -2  -1 -12   13.18    4.67
   2   1  12    2.79    5.71
  -2   1 -12   16.41    4.31
  -2   1 -12   15.17    5.89
  -2  -1 -13    5.40    5.50
   2   1  13    6.62    4.97
   2   1  13    5.62    5.24
   2  -1  13    2.51    5.28
  -2   1 -13    1.97    4.44
  -2  -1 -13    2.55    3.30
  -2  -1 -13    0.73    5.73
   2   1  13    1.65    6.85
   2  -1  13    2.07    5.83
  -2   1 -13    4.46    4.96
  -2  -1 -13    4.63    5.23
  -2   1 -13    2.54    6.13
  -2   1 -13    2.23    4.11
   2   1  14  132.84   10.28
   2  -1  14   94.22   13.93
   2  -1  14  112.81   10.45
   2   1  14  122.00   11.69
  -2   1 -14  144.59   10.96
  -2  -1 -14  126.13   11.00
  -2   1 -14   97.59   13.14
   2  -1  14  137.57   13.05
   2   1  14   87.19   16.07
  -2  -1 -14   78.02   14.83
  -2  -1 -14   75.91   13.53
  -2  -1 -14  117.51   11.73
  -2  -1 -14  120.90    7.97
  -2   1 -14  122.35   12.21
   2   1  14  113.96    9.51
  -2   1 -14  122.16   10.44
  -2   1 -15    2.86    5.13
  -2   1 -15    3.36    3.82
   2   1  15    2.83    3.17
  -2  -1 -15    1.27    4.18
   2   1  15    2.12    3.65
  -2  -1 -15    0.22   12.25
   2  -1  15   -0.52    3.92
   2   1  15   -1.14    5.11
   2   1  15   -7.02   12.41
   2  -1  15    2.50    4.28
  -2   1 -15    3.66    4.08
  -2  -1 -15    3.74    4.22
  -2  -1 -15    1.04    2.90
  -2  -1 -15    3.56    4.79
   2  -1  15    5.87    8.63
  -2   1 -15    2.49    3.68
  -2   1 -15    1.55    5.16
  -2   1 -16   14.85    4.81
   2   1  16   12.04    4.29
  -2  -1 -16    9.39    4.52
   2   1  16   15.04    4.61
   2  -1  16   14.90    4.92
   2   1  16   12.75    4.39
   2   1  16   21.94    7.49
  -2   1 -16    9.21    4.69
  -2  -1 -16   15.22    6.32
  -2  -1 -16    7.66    3.60
   2  -1  16   16.38    5.59
   2  -1  16    6.98    7.84
  -2  -1 -16   10.56    4.93
  -2   1 -16   15.61    4.93
  -2   1 -16   17.43    7.56
   2  -1  17  351.30   16.81
   2   1  17  218.86   13.33
  -2   1 -17  296.44   22.80
  -2   1 -17  414.25   18.25
  -2  -1 -17  416.43   18.08
  -2  -1 -17  276.92   13.36
   2  -1  17  296.19   17.53
  -2  -1 -17  281.95   19.93
  -2   1 -17  334.50   27.06
   2   1  17  326.46   15.47
  -2  -1 -17  215.66   13.25
   2  -1  18   57.35    8.01
  -2   1 -18   59.81   10.94
   2   1  18   43.97    6.78
  -2   1 -18   64.48   12.87
  -2   1 -18   76.82    8.80
  -2  -1 -18   67.96    8.67
   2  -1  18   58.31    9.40
  -2  -1 -18   50.91   10.37
  -2  -1 -18   56.37    6.88
   2   1  18   62.84    7.49
  -2  -1 -18   39.84    6.70
   2  -1  19   71.83   10.13
  -2   1 -19   83.21   13.30
   2  -1  19   83.00    8.90
  -2   1 -19   97.68    9.93
  -2  -1 -19   99.11   10.00
  -2  -1 -19   77.13    7.92
  -2  -1 -19   78.04   14.74
   2   1  19   53.65    7.22
   2   1  19   87.27    8.20
  -2  -1 -19   81.45    7.97
  -2   1 -19   91.28   17.53
  -2   1 -20  125.20   17.47
   2  -1  20  151.16   10.73
   2   1  20  119.23    9.50
  -2   1 -20  164.93   11.94
  -2  -1 -20  151.17   11.76
   2  -1  20  110.28   11.68
  -2  -1 -20  125.45    9.39
  -2   1 -20  144.01   18.49
  -2  -1 -20  132.22   15.89
   2   1  20  123.88    9.51
  -2  -1 -20  136.76    9.74
   2  -1  21   24.87    5.15
   2   1  21   22.70    4.94
  -2   1 -21   31.95    5.95
  -2  -1 -21   30.88    6.08
  -2  -1 -21   26.14    5.08
   2  -1  21   22.14    5.58
   2   1  21   24.95    4.64
   2   1  22    7.85    3.18
   2  -1  22    5.95    3.50
   2   1  22    4.00    3.18
   2  -1  22    7.16    4.15
  -2  -1 -22   13.74    4.06
  -2  -1 -22    9.71    3.65
  -2   1 -22    7.84    4.06
   2   1  23   15.33    3.12
   2  -1  23   16.45    3.87
   2   1  23   16.39    3.38
   2  -1  23   13.50    3.84
  -2  -1 -23   16.04    4.21
  -2  -1 -23   13.93    3.65
  -2   1 -23   15.43    4.25
  -2  -1 -24   -1.47    2.70
   2  -1  24    2.15    2.45
  -2   1 -24    0.06    2.21
   2  -1  24   -1.10    2.76
  -2  -1 -24   -1.01    2.43
   2  -1  25   -1.79    1.70
   2   1  25    2.37    2.44
  -2   1 -25    0.79    2.52
   2   2 -26   -2.02    3.06
  -2   2  26    8.27    2.74
   2   2 -25    1.14    2.57
  -2   2  25   -2.70    2.37
  -2   2  25    2.84    2.44
   2  -2 -25   -0.25    1.98
  -2   2  25    2.67    2.17
  -2  -2  25    0.08    2.97
   2   2 -24    2.51    3.29
  -2   2  24    3.57    2.75
  -2   2  24    2.99    3.00
   2  -2 -24    2.40    2.27
  -2   2  24    6.02    2.68
  -2  -2  24    2.75    3.01
   2   2 -23    5.99    4.16
  -2   2  23    7.26    3.22
   2  -2 -23    0.93    2.98
   2  -2 -23   10.22    3.89
  -2   2  23    8.42    3.19
   2   2 -23    8.34    3.94
  -2  -2  23    3.06    3.93
   2  -2 -22   22.66    5.28
  -2   2  22   21.00    4.79
   2   2 -22   27.23    5.87
   2  -2 -22   12.80    4.24
  -2   2  22   22.44    4.19
   2   2 -22   11.90    5.68
   2   2 -21    9.33    5.38
  -2   2  21   16.91    4.30
   2  -2 -21    5.35    3.99
   2   2 -21    8.34    5.81
   2  -2 -21    9.24    5.59
   2  -2 -21   15.79    3.85
   2   2 -21   13.41    4.81
  -2  -2  21    4.86   10.42
  -2   2  21    6.07    8.02
   2   2 -20    8.96    5.37
  -2   2  20   10.23    4.23
   2  -2 -20   10.39    4.30
  -2   2  20    6.09    5.45
   2  -2 -20   12.79    5.72
   2   2 -20   12.88    5.02
   2   2 -20    3.81    5.59
   2  -2 -20    9.09    3.26
  -2  -2  20    9.49    8.10
  -2   2  20    8.01    8.42
  -2   2  20   17.60    8.99
   2   2 -19  103.77   12.67
   2  -2 -19  107.90    8.43
   2  -2 -19  101.28    9.59
   2   2 -19  125.21   11.50
   2  -2 -19  125.87   11.44
  -2  -2  19   72.24   14.41
  -2   2  19  121.19   13.66
  -2   2  19   86.13   11.12
  -2   2  19  110.37   12.49
   2   2 -19   83.20   12.28
   2  -2 -18  107.69    9.47
   2   2 -18  113.68   11.50
   2   2 -18  112.17   12.94
   2  -2 -18  124.23   11.04
   2  -2 -18   81.99    7.83
  -2  -2  18   92.96   14.67
  -2   2  18   88.08   10.72
  -2   2  18  114.32   12.42
   2   2 -18   88.82   12.13
   2  -2 -17  220.30   12.51
   2   2 -17  169.17   13.20
   2   2 -17  136.91   14.67
   2   2 -17  202.27   22.51
   2   2 -17  208.71   16.07
  -2  -2  17  170.48   21.95
  -2  -2  17  202.84   17.18
  -2   2  17  186.90   14.49
  -2   2  17  213.79   15.50
   2  -2 -17  239.17   13.63
   2   2 -16  241.98   25.86
  -2   2  16  147.06   19.02
   2  -2 -16  218.04   12.60
   2   2 -16  247.62   14.81
   2   2 -16  168.69   15.86
   2  -2 -16  270.83   13.94
  -2  -2  16  211.57   21.33
   2   2 -16  256.39   17.01
  -2  -2  16  213.82   17.43
  -2   2  16  227.38   15.10
  -2   2  16  237.42   15.74
   2   2 -15   56.02    9.96
   2   2 -15  105.03   10.95
   2  -2 -15   65.18    7.37
   2   2 -15   77.81    9.56
   2  -2 -15  110.29    9.01
   2   2 -15   82.00   10.66
  -2   2  15   84.70    6.46
  -2   2  15   38.27   14.77
   2   2 -15  100.55   16.78
  -2  -2  15   80.82   13.68
  -2   2  15   84.43    9.02
  -2  -2  15   73.52   10.53
  -2   2  15   79.39    9.31
   2   2 -14  157.17   14.83
   2   2 -14  279.79   16.99
  -2   2  14  234.13   14.16
   2  -2 -14  240.76   12.02
   2   2 -14  199.72   14.11
  -2   2  14  137.53   17.56
  -2  -2  14  187.81   12.84
   2   2 -14  227.63   22.79
  -2  -2  14  215.66   19.95
   2   2 -14  211.69   15.84
   2  -2 -14  333.49   14.65
  -2   2  14  218.02   13.39
  -2  -2  14  224.42   15.93
  -2   2  13  118.64   14.93
   2   2 -13  226.13   14.57
   2   2 -13  156.94   12.41
   2   2 -13  185.75   12.99
  -2  -2  13  164.03   11.39
   2   2 -13  204.04   19.80
   2   2 -13  161.90   14.35
   2  -2 -13  242.40   13.72
  -2  -2  13  165.23   16.96
  -2   2  13  190.50   12.15
   2  -2 -13  166.41   10.50
  -2  -2  13  176.83   13.72
  -2   2  13  176.57   12.03
   2   2 -13  142.20   14.38
   2   2 -12   93.59   10.78
   2   2 -12  119.70   10.59
   2  -2 -12  122.19    8.01
   2   2 -12  100.87    9.48
   2  -2 -12   72.45    7.44
  -2   2  12   75.51   11.52
  -2  -2  12  105.21    9.56
  -2   2  12  106.20    9.38
   2   2 -12  115.85   14.89
   2   2 -12  106.35    8.77
  -2  -2  12   96.44   12.68
  -2   2  12  114.67    9.14
  -2  -2  12  108.67   10.29
   2  -2 -12  111.66    8.77
   2   2 -12   85.10   10.67
  -2  -2  11  268.77   14.46
   2   2 -11  317.02   21.55
   2   2 -11  197.50   14.97
  -2  -2  11  178.03   16.22
   2  -2 -11  298.08   12.99
  -2   2  11  206.97   17.76
  -2   2  11  278.82   12.89
  -2  -2  11  265.20   14.32
  -2   2  11  300.00   17.04
  -2   2  11  275.54   13.80
  -2  -2  10  312.03   15.57
   2   2 -10  300.92   20.58
   2  -2 -10  324.60   13.40
  -2  -2  10  305.25   14.34
  -2  -2  10  284.91   19.06
  -2   2  10  309.95   17.41
  -2   2  10  317.13   14.10
  -2   2   9  225.71   17.24
   2   2  -9  272.86   18.66
   2  -2  -9  265.25   12.01
  -2  -2   9  294.98   15.57
  -2  -2   9  249.46   17.61
  -2  -2   9  267.49   12.72
  -2   2   9  308.91   16.86
  -2  -2   8  229.34   14.73
   2   2  -8  232.59   16.18
   2  -2  -8  192.65    9.83
  -2   2   8  189.53   15.52
  -2   2   8  233.26   12.38
  -2  -2   8  187.40   15.29
  -2  -2   8  217.86   10.85
  -2   2   8  202.71   14.07
  -2   2   7  312.14   18.76
   2   2  -7  384.86   19.68
   2  -2  -7  322.37   13.05
  -2   2   7  365.29   14.57
  -2  -2   7  347.93   19.56
  -2  -2   7  431.31   19.94
  -2   2   7  316.98   17.26
  -2  -2   6   33.12    6.79
   2   2  -6   30.86    6.28
   2  -2  -6   27.52    4.42
  -2   2   6   30.44    4.79
  -2   2   6   31.34    7.04
  -2  -2   6   31.57    7.47
  -2   2   6   30.31    6.33
  -2   2   5   22.95    5.95
  -2   2   5   22.61    4.35
   2  -2  -5   19.49    4.93
   2   2  -5   19.30    5.16
   2  -2  -5   17.73    3.84
  -2  -2   5   21.44    6.39
  -2  -2   5   23.04    6.45
   2   2  -5   18.15    5.85
  -2   2   5   24.07    5.53
  -2   2   4 1884.24   41.81
   2  -2  -4 1991.65   39.37
  -2  -2   4 1933.44   25.76
   2   2  -4 1926.07   37.48
   2   2  -4 1989.23   40.95
  -2  -2   4 2008.89   47.98
  -2   2   4 1940.75   30.61
   2  -2  -3  492.59   19.69
  -2  -2   3  497.21   14.36
   2   2  -3  438.85   17.65
   2   2  -3  508.65   21.29
  -2  -2   3  501.52   24.31
   2  -2  -3  515.86   13.93
  -2  -2   3  522.40   21.99
  -2  -2   3  459.02   19.28
  -2   2   3  477.12   21.85
   2  -2  -2  565.08   20.48
  -2   2   2  507.73   21.86
  -2  -2   2  541.96   15.59
   2   2  -2  475.65   17.68
  -2  -2   2  578.25   25.85
  -2  -2   2  537.03   20.43
   2  -2  -2  547.15   13.89
   2   2  -2  529.98   21.53
  -2  -2   2  603.50   23.76
  -2  -2   2  518.25   24.04
  -2   2   1  511.91   22.10
   2   2  -1  523.32   22.07
   2  -2  -1  531.08   19.93
  -2   2   1  499.37   16.99
  -2  -2   1  510.73   15.56
   2  -2  -1  476.16   10.15
   2   2  -1  471.62   17.28
  -2  -2   1  550.35   24.87
  -2  -2   1  539.99   23.32
   2  -2  -1  535.25   13.44
  -2   2   0  852.53   27.86
   2  -2   0  879.30   25.78
  -2  -2   0  880.68   20.91
   2  -2   0  821.21   14.59
   2   2   0  811.65   22.23
   2  -2   0  848.95   16.72
   2   2   0  882.84   28.35
  -2   2   0  990.89   23.23
  -2  -2   0  977.74   32.88
  -2  -2   0  885.90   29.60
  -2  -2   0  925.98   29.05
   2   2   1  790.38   27.24
  -2  -2  -1  798.36   20.53
  -2  -2  -1  778.71   27.32
   2  -2   1  771.96   24.66
   2  -2   1  717.31   14.64
  -2   2  -1  760.16   26.28
   2   2   1  767.45   21.63
   2  -2   1  713.75   15.70
  -2  -2  -1  820.62   26.27
  -2   2  -2 2070.36   43.02
   2  -2   2 2015.28   25.98
  -2  -2  -2 2119.00   34.34
   2   2   2 2125.14   35.52
   2   2   2 2105.49   44.95
  -2  -2  -2 2126.15   44.05
  -2  -2  -2 2212.03   41.18
  -2  -2  -2 2079.90   41.59
   2  -2   3  633.53   15.75
  -2   2  -3  724.15   26.00
   2   2   3  737.44   27.20
  -2   2  -3  826.89   20.88
  -2  -2  -3  717.30   25.42
  -2  -2  -3  754.13   25.75
  -2  -2  -3  729.55   21.26
  -2  -2  -4 1724.70   33.84
  -2   2  -4 1752.02   39.84
   2  -2   4 1713.55   26.70
   2   2   4 1738.58   42.30
  -2  -2  -4 1726.95   39.11
  -2   2  -4 1716.18   30.53
  -2  -2  -4 1753.11   36.74
  -2   2  -5 2251.08   45.68
   2  -2   5 2208.49   31.83
  -2   2  -5 2222.03   37.37
   2   2   5 2222.40   48.64
  -2   2  -5 2222.73   33.39
  -2  -2  -5 2249.95   41.24
  -2   2  -6  978.18   26.83
  -2   2  -6 1028.99   31.46
  -2  -2  -6 1048.67   28.78
   2  -2   6 1029.33   22.84
  -2  -2  -6 1159.11   31.27
  -2  -2  -6 1117.89   29.18
   2   2   6  990.56   33.74
  -2  -2  -6 1036.08   21.87
  -2   2  -7  103.50   10.25
  -2   2  -7   91.51   10.88
  -2  -2  -7  114.64   10.02
   2  -2   7   98.22    8.45
  -2  -2  -7   89.18   10.45
   2   2   7  101.21   12.58
  -2  -2  -8   65.10    8.34
  -2   2  -8   45.78    8.51
  -2  -2  -8   49.29    8.13
   2  -2   8   48.68    6.59
   2   2   8   52.48    9.83
  -2   2  -8   54.83    8.45
  -2   2  -9   59.97    9.68
   2  -2   9   47.95    7.30
  -2  -2  -9   60.26    9.37
   2   2   9   65.85   10.72
  -2   2  -9   68.14    9.75
  -2  -2  -9   63.09    6.88
  -2  -2 -10   86.70    6.16
   2  -2  10   80.71    7.67
   2   2  10   84.33    7.04
  -2   2 -10   49.87    9.69
   2  -2  10   97.90    9.69
  -2  -2 -10   61.86   10.23
   2  -2  10   60.08    8.00
   2   2  10   58.80   10.71
  -2  -2 -10   74.82    7.54
  -2   2 -10  116.79    9.19
  -2  -2 -10   86.69    5.48
  -2   2 -10   71.26   10.16
  -2   2 -10   90.88    8.85
   2   2  10   82.45    8.19
  -2  -2 -11   46.05    4.81
  -2   2 -11   24.73    7.69
   2  -2  11   20.41    5.51
   2   2  11   37.02    5.93
   2  -2  11   31.73    6.71
  -2   2 -11   43.19    5.66
   2  -2  11   45.79    8.51
   2  -2  11   23.75    6.43
   2  -2  11   45.60    7.24
  -2  -2 -11   43.52    6.46
   2   2  11   29.65    8.69
  -2   2 -11   36.36    8.45
  -2   2 -11   51.30    7.36
  -2  -2 -11   36.60    4.26
  -2   2 -11   45.06    7.51
  -2  -2 -11   30.62    8.10
   2   2  11   33.34    6.71
  -2   2 -11   43.11    8.24
   2   2  12  325.19   15.04
   2  -2  12  341.03   15.70
   2   2  12  320.36   12.49
  -2   2 -12  355.90   15.92
   2   2  12  382.04   14.67
   2  -2  12  394.33   19.76
  -2  -2 -12  292.77   22.93
   2  -2  12  217.82   17.72
   2  -2  12  385.83   17.31
   2   2  12  267.67   23.12
  -2   2 -12  335.76   14.98
  -2   2 -12  335.04   20.61
  -2   2 -12  481.34   19.05
  -2   2 -12  342.67   22.72
  -2   2 -12  365.97   18.24
  -2  -2 -12  318.28   11.00
   2   2  12  366.06   16.89
  -2  -2 -12  430.24   12.61
   2   2  13  235.84   12.65
   2  -2  13  187.20   12.33
   2   2  13  206.57   10.29
  -2   2 -13  222.44   18.93
  -2   2 -13  250.10   13.57
   2   2  13  234.88   12.03
  -2  -2 -13  267.20   14.45
   2  -2  13  239.54   15.88
  -2  -2 -13  189.65   20.81
   2  -2  13  143.20   16.58
   2  -2  13  248.54   14.08
  -2  -2 -13  229.22    9.99
  -2   2 -13  184.59   16.86
   2   2  13  161.67   21.00
  -2   2 -13  208.84   12.07
  -2   2 -13  284.11   15.61
  -2   2 -13  217.85   20.01
  -2   2 -13  286.52   15.69
   2   2  13  250.35   13.68
  -2  -2 -14  295.54   11.65
   2  -2  14  271.70   14.34
  -2   2 -14  296.45   16.63
  -2   2 -14  279.49   21.59
  -2   2 -14  301.33   14.83
   2   2  14  257.39   12.31
  -2  -2 -14  307.55   15.97
   2  -2  14  307.28   18.01
  -2  -2 -14  229.13   22.57
   2  -2  14  142.23   17.46
   2  -2  14  326.20   15.50
   2   2  14  199.26   23.54
  -2   2 -14  264.02   22.93
   2   2  14  270.74   14.90
   2  -2  15   73.89    8.50
  -2   2 -15   67.14   12.33
  -2   2 -15   77.02    8.53
   2   2  15   69.49    7.13
  -2  -2 -15   53.93    7.90
   2  -2  15   80.85    9.82
   2  -2  15   75.84    7.88
  -2  -2 -15   78.54    6.98
  -2   2 -15   87.34    9.69
  -2   2 -15   75.65   13.57
   2   2  15   72.00    8.14
  -2   2 -16  437.61   28.62
   2  -2  16  460.03   18.64
  -2   2 -16  508.34   20.05
   2   2  16  414.24   15.18
  -2  -2 -16  572.31   20.28
   2  -2  16  417.29   16.97
   2  -2  16  527.11   22.62
  -2  -2 -16  390.35   22.94
  -2   2 -16  410.64   30.67
  -2  -2 -16  519.69   15.83
  -2   2 -16  350.91   17.40
   2   2  16  500.29   19.13
   2   2  17    8.80    4.08
   2  -2  17    7.34    4.15
  -2   2 -17    5.88    6.44
  -2  -2 -17    6.13    4.50
  -2   2 -17    9.60    4.73
   2  -2  17    6.27    4.83
  -2  -2 -17    3.16    5.94
  -2   2 -17    5.87    8.02
  -2   2 -17    8.61    4.88
  -2  -2 -17    3.54    3.48
   2   2  18   12.81    4.65
   2  -2  18   17.19    4.68
  -2   2 -18    7.95    6.47
  -2   2 -18   11.49    5.13
   2  -2  18    8.29    5.28
  -2  -2 -18   16.75    5.21
  -2  -2 -18   15.75    4.19
  -2  -2 -18    7.76    9.25
  -2   2 -18    9.15   13.36
   2  -2  19   33.06    6.18
   2  -2  19   30.07    6.06
  -2   2 -19   38.57    6.96
  -2   2 -19   35.09   11.14
  -2  -2 -19   30.35    6.46
   2  -2  19   36.05    6.91
  -2  -2 -19   24.94    5.11
   2   2  19   33.67    5.87
   2   2  20    8.79    3.54
  -2  -2 -20    2.19    3.20
  -2   2 -20    8.07    4.22
   2  -2  20    8.85    3.64
   2  -2  20    7.30    4.01
  -2   2 -20   -7.78    6.55
   2  -2  20    8.69    4.39
  -2  -2 -20    9.08    3.94
   2  -2  21   24.88    5.00
   2  -2  21   21.91    4.95
  -2  -2 -21   33.15    5.56
  -2  -2 -21   22.02    4.50
  -2   2 -21   25.51    5.41
   2  -2  21   22.48    5.47
   2   2  21   21.17    4.60
   2   2  22   12.76    3.28
  -2   2 -22    8.70    3.87
   2  -2  22   10.94    3.54
  -2   2 -22   13.87    4.44
   2  -2  22    8.37    3.80
  -2  -2 -22   13.85    3.58
  -2  -2 -22   13.63    3.63
  -2   2 -23    8.01    4.41
   2  -2  23   20.67    4.53
  -2   2 -23   19.62    4.26
   2  -2  23   16.56    3.76
  -2  -2 -23   21.94    4.43
  -2  -2 -23   17.82    3.74
   2   2  23   22.00    3.46
   2   2  24    8.71    1.97
  -2   2 -24    5.13    3.19
   2  -2  24    7.27    2.96
  -2  -2 -24   12.67    3.00
   2   3 -24    4.07    3.34
  -2   3  24   15.50    2.46
   2  -3 -24    0.76    2.87
  -2   3  24    6.88    2.67
  -2  -3  24    8.63    3.37
  -2   3  24   18.05    3.29
  -2   3  23   -1.55    2.33
   2   3 -23    1.92    2.40
  -2   3  23    1.15    2.23
   2  -3 -23    1.93    2.14
  -2   3  23    1.59    1.97
  -2   3  22   -0.02    2.31
  -2   3  22   -2.45    2.84
   2  -3 -22   -0.94    2.62
  -2   3  22    2.00    2.51
  -2  -3  22   -0.25    2.80
   2   3 -22    1.67    3.24
   2  -3 -21    8.61    4.28
  -2  -3  21   19.17    4.45
   2   3 -21   14.91    5.46
  -2   3  21   26.25    4.59
   2   3 -20    6.06    4.89
  -2   3  20   15.13    3.94
   2  -3 -20    7.35    3.93
  -2  -3  20    9.47    4.31
   2  -3 -20   18.23    5.00
   2   3 -19   -0.84    4.38
  -2   3  19    4.43    3.19
   2  -3 -19    4.93    3.49
   2   3 -19    2.24    3.86
  -2  -3  19   -5.15    4.67
  -2  -3  19   -4.29    9.71
   2  -3 -19    7.44    4.28
  -2   3  19   -0.15    6.24
   2  -3 -18  138.11   10.31
   2   3 -18  131.37   11.21
  -2   3  18  185.28    9.15
   2  -3 -18  163.20   11.78
  -2  -3  18   81.38   15.45
  -2   3  18   90.99   12.47
   2   3 -18  123.41   12.87
  -2   3  18  218.92   12.08
   2   3 -17   16.02    6.70
   2  -3 -17   16.73    5.20
  -2   3  17   29.03    4.67
   2   3 -17   23.41    6.07
   2  -3 -17   22.09    5.77
  -2  -3  17    6.22    6.14
  -2   3  17   20.02    6.07
  -2   3  17   24.92    9.71
   2  -3 -16   80.97    8.84
   2   3 -16  119.99   10.68
  -2   3  16  133.97    8.23
  -2  -3  16  103.48   16.59
   2  -3 -16  103.07   10.35
  -2  -3  16   74.68   13.08
  -2   3  16   95.75   11.16
  -2   3  16  111.45   11.23
   2   3 -16   75.52   11.45
  -2   3  15  131.75    8.61
   2  -3 -15   84.71    8.75
   2   3 -15  123.93   11.47
  -2   3  15  165.90    9.05
   2   3 -15  141.00   14.50
  -2  -3  15  133.58   19.61
   2  -3 -15  160.33   11.33
  -2  -3  15   99.69   15.22
  -2   3  15  122.16   12.06
  -2   3  15  140.42   11.94
   2   3 -15   77.96   11.45
   2   3 -14   28.88    7.13
  -2   3  14   27.89    4.62
   2   3 -14   30.78    6.35
  -2  -3  14   24.49   13.07
   2  -3 -14   16.53    4.78
  -2   3  14   38.06    5.04
   2   3 -14   42.11   11.69
   2  -3 -14   31.88    6.14
   2   3 -14   31.40    8.30
  -2  -3  14   24.78    8.19
  -2   3  14   33.09    6.83
  -2   3  13   67.84    6.04
   2   3 -13   62.62    7.92
   2  -3 -13   45.51    6.50
   2  -3 -13   52.17    6.60
  -2   3  13   70.86    6.23
  -2  -3  13   46.51    9.23
  -2  -3  13   52.59   12.22
   2   3 -13   48.36    9.54
  -2   3  13   42.46   10.53
  -2   3  13   52.08    7.97
  -2  -3  13   37.92    9.56
   2   3 -13   76.20   16.31
   2   3 -13   45.71    8.74
  -2   3  12  101.56    7.04
   2   3 -12   86.89    9.22
   2  -3 -12   82.24    7.71
   2  -3 -12  102.07    8.33
  -2  -3  12   68.34   11.32
   2   3 -12   93.95   16.14
  -2   3  12   80.70    8.37
  -2  -3  12   71.29   12.62
  -2  -3  12   51.68   10.54
  -2   3  12   70.97   15.40
  -2   3  12   82.05    9.18
   2   3 -12   69.40   11.19
   2   3 -12   68.54   10.22
   2   3 -11   28.58    8.45
  -2   3  11   45.84    5.51
   2   3 -11   45.94    7.21
   2  -3 -11   37.57    6.11
   2  -3 -11   42.56    6.39
  -2   3  11   40.78   12.50
  -2  -3  11   36.04    8.93
  -2  -3  11   42.86    9.55
   2   3 -11   50.81   11.50
  -2   3  11   52.53    6.80
  -2  -3  11   31.38    8.16
  -2   3  11   43.15    6.83
   2   3 -11   33.72    8.00
   2   3 -10   32.96    8.12
   2   3 -10   44.61    8.50
  -2   3  10   33.52    5.21
  -2   3  10   35.69   10.41
   2  -3 -10   36.79    5.94
   2  -3 -10   33.02    5.95
   2   3 -10   34.39    6.95
  -2  -3  10   40.00    8.05
   2   3 -10   43.79    9.33
   2   3 -10   16.08    8.01
   2  -3 -10   37.03    5.98
  -2   3  10   40.17    6.34
  -2  -3  10   24.67    7.70
  -2   3  10   35.10    5.97
  -2  -3  10   32.59    8.75
  -2   3   9   33.37    8.48
   2  -3  -9   24.59    5.08
   2  -3  -9   28.75    5.08
   2   3  -9   18.58    8.53
  -2  -3   9   37.07    7.24
   2   3  -9   42.34    8.93
   2   3  -9   25.14    7.28
  -2   3   9   25.10    4.29
  -2  -3   9   33.96    9.25
   2  -3  -9   29.75    5.36
   2   3  -9   28.86    6.91
  -2  -3   9   25.13    8.02
  -2   3   9   34.08    5.85
   2   3  -8   29.01    7.04
   2  -3  -8   27.24    4.82
   2  -3  -8   28.73    4.72
  -2   3   8   26.12    7.53
  -2  -3   8   27.64    7.30
   2   3  -8   29.66    7.87
  -2  -3   8   17.95    7.43
   2  -3  -8   29.27    5.37
  -2   3   8   27.59    3.61
  -2  -3   8   29.08    8.54
   2   3  -8    3.53    7.13
   2   3  -8   24.87    6.01
  -2  -3   8   24.22    7.73
  -2   3   8   28.14    5.39
  -2  -3   7   50.91    9.00
   2  -3  -7   47.60    5.52
  -2   3   7   49.27    9.17
   2   3  -7   47.78    9.44
   2   3  -7   16.50    7.06
   2  -3  -7   46.11    6.50
  -2  -3   7   39.15    9.47
  -2   3   7   50.98    8.25
  -2  -3   7   36.30    9.66
  -2  -3   7   43.90    9.40
  -2   3   7   46.75    6.13
   2   3  -7   53.50    7.23
  -2   3   6   21.10    7.05
   2  -3  -6   21.37    6.28
  -2  -3   6   30.49    7.57
   2   3  -6   15.06    5.78
  -2  -3   6   12.77    5.63
  -2  -3   6   18.03    7.52
  -2  -3   6   21.19    7.71
  -2   3   6   23.27    6.37
   2  -3  -5  239.97   17.04
   2   3  -5  236.73   16.56
   2  -3  -5  262.45   13.36
  -2   3   5  222.93   18.36
  -2  -3   5  300.12   19.16
  -2   3   5  262.74   16.60
  -2  -3   5  223.81   19.66
  -2  -3   5  241.32   17.79
  -2  -3   5  243.71   19.93
   2  -3  -4 1047.53   33.60
  -2   3   4  916.40   35.79
  -2  -3   4 1091.69   35.94
   2   3  -4  924.52   30.17
  -2   3   4 1088.70   31.67
   2  -3  -4 1034.76   24.81
  -2  -3   4 1006.71   39.19
  -2  -3   4  962.51   38.12
  -2  -3   4  987.58   33.50
   2  -3  -3  152.85   14.70
  -2   3   3  184.92   17.17
  -2  -3   3  194.61   15.89
   2   3  -3  146.51   12.67
   2  -3  -3  177.48   11.13
   2   3  -3  191.24   16.38
  -2  -3   3  178.98   17.11
  -2  -3   3  191.54   15.32
  -2   3   3  187.97   14.58
  -2  -3   3  179.75   17.06
   2  -3  -2  971.10   32.58
  -2   3   2  896.19   34.81
   2   3  -2  943.38   34.37
  -2  -3   2  974.72   26.42
   2   3  -2  814.35   26.16
   2  -3  -2  857.27   22.54
  -2  -3   2 1068.40   39.69
  -2   3   2  863.28   19.95
  -2  -3   2  977.49   37.38
  -2   3   2 1022.22   30.37
   2  -3  -1  131.85   13.29
  -2   3   1  158.28   15.79
  -2  -3   1  140.47   11.08
   2   3  -1  150.65   14.34
   2   3  -1  137.15   11.29
   2  -3  -1  120.48    9.06
  -2  -3   1  156.09   15.75
  -2  -3   1  157.93   15.36
  -2   3   1  121.24   13.03
   2   3   0  500.18   24.91
  -2  -3   0  480.06   25.03
   2  -3   0  445.64   23.37
  -2  -3   0  450.62   18.98
   2   3   0  430.99   18.49
  -2   3   0  439.08   24.84
  -2  -3   0  480.97   25.67
  -2   3   0  443.35   20.46
  -2   3  -1   64.50   10.36
  -2   3  -1   58.89    7.77
  -2  -3  -1   68.46   10.58
   2  -3   1   55.14    9.38
  -2  -3  -1   60.56    8.16
  -2  -3  -1   68.73   10.83
   2  -3   1   38.75    5.69
   2   3   1   57.82   10.01
  -2   3  -1   48.81   10.43
  -2   3  -2  142.89   11.37
   2   3   2  146.99   14.48
  -2  -3  -2  146.26   11.72
  -2   3  -2  144.29   14.79
  -2  -3  -2  157.19   14.25
   2  -3   2  137.63    9.54
  -2  -3  -2  159.07   14.97
  -2   3  -3   36.21    6.55
   2  -3   3   23.81    4.64
  -2   3  -3   36.97    8.11
   2   3   3   32.43    8.25
  -2  -3  -3   45.83    8.14
  -2  -3  -3   29.32    7.19
  -2   3  -3   19.22    8.26
  -2  -3  -3   36.15    7.03
  -2  -3  -4   12.89    5.31
  -2   3  -4    8.72    4.76
  -2  -3  -4   11.17    5.57
  -2  -3  -4   14.66    5.37
   2  -3   4    3.29    3.30
  -2   3  -4   10.48    6.18
   2   3   4   14.11    7.53
  -2   3  -4   12.39    8.25
   2  -3   5  328.31   14.91
  -2   3  -5  291.68   17.85
   2   3   5  325.44   13.85
  -2   3  -5  282.51   20.67
  -2   3  -5  377.84   15.78
   2   3   5  310.06   12.84
  -2   3  -5  350.30   13.57
   2   3   5  294.36   21.19
  -2  -3  -5  340.63   18.87
  -2  -3  -5  366.58   20.68
  -2  -3  -5  292.87   18.42
   2  -3   6  138.61   10.53
  -2   3  -6   90.54   11.10
  -2  -3  -6  142.50    7.93
   2   3   6  155.16   10.09
   2   3   6  113.73   14.59
   2  -3   6  136.07   10.62
  -2  -3  -6  114.06   12.39
   2   3   6  112.03    8.16
   2  -3   6   53.73    7.20
  -2  -3  -6  129.81   12.72
  -2  -3  -6  128.86   12.31
  -2  -3  -6  124.22   10.82
  -2   3  -6  131.11    9.17
  -2   3  -6  111.30   13.24
  -2   3  -6  151.24   10.76
   2   3   7   88.97   13.44
   2  -3   7   94.27    9.24
   2  -3   7  110.83    9.76
  -2   3  -7   89.03   11.34
  -2  -3  -7  103.44    9.54
  -2  -3  -7  122.64    7.47
   2   3   7  111.46    9.39
  -2  -3  -7  115.42   11.32
  -2   3  -7   93.03   12.36
   2  -3   7  104.10   10.38
  -2  -3  -7   75.67   11.03
   2   3   7  101.51    7.46
   2  -3   7   53.23    7.61
  -2   3  -7  108.32    8.74
  -2   3  -7  111.71   10.34
   2   3   7   98.74    8.88
  -2   3  -8   43.07    9.49
   2   3   8   53.00    7.00
  -2  -3  -8   31.38    9.24
  -2   3  -8   40.84    8.09
  -2  -3  -8   59.57    6.20
  -2  -3  -8   52.26    8.23
   2  -3   8   35.45    7.77
   2  -3   8   49.94    8.61
   2   3   8   38.27    5.97
   2  -3   8   21.77    6.08
   2  -3   8   50.27    7.90
  -2  -3  -8   39.61    6.56
   2   3   8   37.34   10.04
  -2   3  -8   50.86    6.60
  -2   3  -8   54.90    8.23
  -2  -3  -8   47.23    4.85
   2   3   8   48.27    7.94
  -2   3  -9   69.49   11.17
  -2  -3  -9   95.01    7.48
   2   3   9   94.33    8.53
   2  -3   9   70.08    9.59
  -2   3  -9   68.11   13.39
  -2  -3  -9   75.62   13.32
   2  -3   9   33.88    8.41
   2  -3   9   91.55    9.31
   2  -3   9   84.86   10.06
   2   3   9   75.58   14.14
  -2   3  -9  105.09    8.68
   2   3   9   79.93    7.38
  -2   3  -9   91.29    9.72
  -2  -3  -9   78.08    6.21
   2   3   9   76.01    8.66
  -2  -3  -9   93.82    6.55
  -2   3 -10   84.67    8.12
  -2   3 -10   71.87   14.11
  -2   3 -10   72.51   11.88
  -2  -3 -10  108.01    7.66
   2   3  10   99.05    8.61
  -2  -3 -10   87.23    6.45
   2  -3  10   96.43   10.05
  -2  -3 -10   84.94   15.42
   2   3  10   59.72    7.24
   2  -3  10   31.72    9.69
   2  -3  10  101.02    9.34
   2   3  10   74.63   15.66
  -2   3 -10  111.12    8.61
  -2   3 -10  101.45   10.10
  -2  -3 -10  117.55    7.10
   2   3  10   91.56    8.96
   2   3  11  107.04    7.42
  -2   3 -11   70.57   12.13
  -2  -3 -11  109.27    7.75
  -2   3 -11  118.36   10.58
   2   3  11   92.43    8.79
  -2  -3 -11  120.72    7.35
  -2  -3 -11   84.77   14.12
   2  -3  11   36.13   10.12
   2  -3  11   96.34    9.24
  -2   3 -11   61.09   12.51
   2   3  11   63.96   15.84
  -2   3 -11  109.32    8.58
   2  -3  11  101.83   10.55
  -2  -3 -11   84.78    6.47
   2   3  11  102.70    9.40
  -2   3 -12  162.51   17.53
  -2  -3 -12  241.11   10.82
   2   3  12  201.80   11.74
   2  -3  12  178.88   13.79
   2  -3  12  167.07   11.86
  -2  -3 -12  255.77   10.34
  -2   3 -12  204.33   11.55
  -2   3 -12  201.96   13.95
  -2  -3 -12  201.10    9.15
   2   3  12  192.15   12.65
  -2  -3 -13   51.81    6.04
  -2   3 -13   58.81    7.16
   2   3  13   56.41    6.76
  -2   3 -13   45.29   10.30
  -2  -3 -13   36.78    7.21
   2  -3  13   37.81    7.57
   2  -3  13   46.96    6.64
  -2  -3 -13   63.91    5.96
  -2   3 -13   44.30    6.19
  -2   3 -13   43.28    7.23
  -2  -3 -13   37.13    4.88
   2   3  13   40.17    7.04
  -2   3 -14  239.68   21.57
  -2  -3 -14  320.13   12.91
  -2   3 -14  286.13   14.63
   2   3  14  283.76   13.61
  -2  -3 -14  208.53   13.52
   2  -3  14  281.05   16.82
   2  -3  14  306.43   15.28
  -2  -3 -14  298.36   12.14
  -2   3 -14  295.91   16.56
   2   3  14  263.27   14.93
  -2   3 -15  257.15   22.89
  -2   3 -15  379.57   17.80
   2  -3  15  328.09   17.36
  -2   3 -15  328.40   15.56
   2   3  15  288.18   13.11
  -2  -3 -15  250.32   14.65
   2  -3  15  350.31   15.72
  -2  -3 -15  352.41   13.21
   2   3  15  336.24   15.53
  -2   3 -16   16.02    4.86
   2   3  16    8.57    4.48
  -2   3 -16   13.02    7.33
   2   3  16   11.86    3.82
  -2   3 -16   15.62    5.46
   2  -3  16   15.11    5.25
   2  -3  16   12.77    4.42
  -2  -3 -16   13.55    5.06
  -2  -3 -16   13.65    3.83
  -2  -3 -16   14.22    8.76
   2   3  17    7.29    4.11
  -2   3 -17   -1.09    9.78
   2   3  17    5.32    3.26
  -2   3 -17   10.72    3.94
   2  -3  17    7.16    4.35
   2  -3  17    4.12    3.59
  -2  -3 -17    6.05    4.28
  -2  -3 -17    9.08    3.46
  -2  -3 -17    7.14    3.79
  -2   3 -17    5.68    4.24
   2   3  18   11.42    3.94
   2   3  18   12.46    3.57
  -2   3 -18   13.23    4.62
   2  -3  18   10.14    4.21
   2  -3  18   12.70    3.66
  -2  -3 -18    8.87    4.27
  -2  -3 -18    8.50    3.45
  -2   3 -18   14.69    4.37
  -2  -3 -19   34.79    5.07
  -2   3 -19   39.67    6.84
  -2   3 -19   43.93    6.13
  -2  -3 -19   40.33    5.65
   2  -3  19   44.47    5.12
   2  -3  19   27.10    6.08
   2   3  19   40.83    5.54
   2   3  20    4.37    2.90
  -2   3 -20    4.72    2.90
  -2   3 -20    5.06    3.59
   2  -3  20    4.97    3.26
  -2  -3 -20    8.91    3.11
   2   3  21    7.14    2.60
  -2   3 -21    7.59    3.51
   2  -3  21    9.41    3.06
  -2  -3 -21    3.80    2.64
  -2   3 -21    3.77    2.85
   2   3  22    8.09    2.47
  -2   3 -22   10.54    2.94
  -2   3 -22    3.03    3.30
   2  -3  22    4.77    2.62
  -2  -3 -22    6.47    2.67
   2  -3  23   11.59    2.27
   2   4 -22    5.19    2.69
   2  -4 -22    1.65    2.11
   2   4 -21    9.24    3.61
   2  -4 -21    5.31    3.18
  -2   4  21   21.66    3.17
  -2  -4  21   16.36    3.39
  -2   4  21   22.04    3.57
   2   4 -20   20.71    4.96
   2  -4 -20   14.63    4.26
  -2   4  20   45.29    4.04
  -2  -4  20   34.29    4.39
  -2   4  20   46.70    4.99
   2   4 -19    2.36    3.13
  -2   4  19    3.60    2.79
   2  -4 -19    1.31    2.86
  -2   4  19    5.88    2.48
  -2  -4  19    3.90    2.55
   2   4 -18    4.22    3.51
  -2   4  18    6.56    3.37
   2  -4 -18    4.46    3.32
  -2   4  18   14.09    3.17
  -2  -4  18    7.07    3.14
   2  -4 -18    5.00    3.47
   2   4 -17    1.92    3.26
  -2   4  17    3.54    3.24
   2  -4 -17   -0.61    3.51
  -2   4  17    1.90    2.23
   2  -4 -17    1.08    3.18
   2  -4 -16   33.86    6.41
  -2   4  16   65.75    6.11
   2  -4 -16   48.36    7.08
  -2  -4  16   16.64    6.26
  -2  -4  16   32.79   11.41
  -2   4  16   36.43    7.96
   2   4 -16   35.77    7.47
  -2   4  16   69.46    7.27
   2   4 -15   23.62    6.28
   2  -4 -15   16.19    4.81
  -2   4  15   26.12    4.79
  -2  -4  15   20.41    9.38
   2  -4 -15   29.13    5.70
  -2  -4  15   26.96    9.84
  -2   4  15   20.12    8.48
  -2   4  15   33.27    5.81
   2  -4 -14   19.92    5.30
  -2   4  14   40.63    5.40
  -2  -4  14   11.14    9.06
   2  -4 -14   22.93    5.86
  -2  -4  14   19.17    8.54
  -2   4  14   27.47    7.54
   2   4 -14   26.35    7.07
  -2   4  13   49.00    6.25
   2  -4 -13   54.13    6.75
   2  -4 -13   51.41    6.77
  -2  -4  13   34.65    9.76
  -2  -4  13   33.98    9.09
  -2   4  13   43.62    8.30
   2   4 -13   46.95    8.96
  -2   4  12  340.89   12.61
   2  -4 -12  336.61   14.15
   2  -4 -12  411.78   15.67
  -2   4  12  429.22   14.55
   2   4 -12  316.67   16.41
  -2  -4  12  173.64   20.22
  -2  -4  12  256.39   21.91
  -2   4  12  269.48   16.49
   2   4 -12  343.37   19.45
  -2   4  11  180.82    9.40
   2  -4 -11  121.49    8.98
   2  -4 -11  203.31   11.76
  -2   4  11  207.32   10.31
   2   4 -11  133.75   11.80
  -2  -4  11   75.41   14.29
  -2  -4  11  119.40   15.73
  -2   4  11  137.31   11.89
   2   4 -11  142.07   13.03
  -2   4  10  328.21   12.35
   2  -4 -10  197.23   10.70
   2   4 -10  259.95   15.78
   2  -4 -10  282.57   13.76
  -2   4  10  391.11   13.46
  -2  -4  10  183.14   20.72
  -2  -4  10  218.79   20.51
  -2   4  10  250.31   15.11
   2   4 -10  282.91   17.25
  -2   4   9  121.08    7.96
   2  -4  -9   60.26    6.52
   2  -4  -9  109.42    8.69
  -2   4   9  140.35    8.44
   2   4  -9   95.91   14.06
  -2   4   9  120.25    7.73
  -2   4   9   97.35    6.87
   2   4  -9   90.87   10.03
  -2  -4   9   69.23   13.45
  -2   4   9   87.48    9.26
   2   4  -9  107.33   10.81
  -2   4   8  220.53   10.83
   2  -4  -8  189.69    9.74
   2  -4  -8  249.72   12.64
  -2   4   8  269.86   11.45
   2   4  -8  199.14   20.54
  -2   4   8  236.38   10.50
   2  -4  -8  173.32   14.56
   2   4  -8  248.86   14.95
  -2  -4   8  149.54   18.03
  -2   4   8  214.02    9.51
  -2   4   8  172.56   11.99
   2   4  -8  197.40   14.46
  -2   4   7   30.10    4.49
   2  -4  -7   16.72    4.25
   2  -4  -7   29.32    4.88
  -2  -4   7   31.16    7.70
  -2   4   7   26.44    4.82
  -2   4   7   22.73    7.59
   2   4  -7   31.12    6.23
  -2   4   7   28.56    4.22
   2  -4  -7   22.27    8.17
  -2  -4   7   19.33    7.53
   2   4  -7   13.35   10.97
  -2   4   7   17.59    4.96
   2   4  -7   25.97    6.12
   2  -4  -6   60.63    9.87
  -2   4   6   86.52    6.76
   2  -4  -6   83.47    7.89
   2   4  -6   97.86   10.22
  -2   4   6   78.72   14.32
  -2  -4   6   81.13   12.66
   2   4  -6   88.20    7.79
   2   4  -6   70.17   13.37
  -2   4   6   85.91    7.00
  -2   4   6   92.89    6.76
  -2  -4   6   65.45   12.35
  -2   4   6   72.07    7.98
   2   4  -6   76.23    9.18
  -2   4   5  193.73    9.69
   2  -4  -5  179.57   16.80
   2  -4  -5  214.57   11.88
  -2   4   5  181.54   20.41
   2   4  -5  206.68   11.11
   2   4  -5  142.41   15.42
  -2   4   5  187.05   10.09
   2  -4  -5  181.76   13.22
   2   4  -5  216.78   13.67
  -2  -4   5  163.47   17.58
   2  -4  -5  188.90   12.88
  -2  -4   5  134.16   17.01
  -2  -4   5  161.59   18.02
  -2  -4   5  200.05   19.57
   2   4  -5  209.47   13.63
  -2   4   4   42.42   14.40
   2  -4  -4   25.84    5.13
   2  -4  -4   18.06    7.35
  -2  -4   4   31.08   11.28
  -2   4   4   29.19    5.22
   2   4  -4   -0.05    6.53
  -2   4   4   34.49    4.80
   2  -4  -4   13.21    5.84
  -2  -4   4   22.50    7.92
   2   4  -4   24.48    6.24
   2  -4  -4   16.33    5.49
  -2  -4   4   17.33    7.40
   2   4  -4   29.76    6.00
  -2   4   3  545.20   15.64
   2  -4  -3  424.05   26.30
   2  -4  -3  509.77   18.06
  -2   4   3  487.70   31.22
  -2  -4   3  529.31   29.52
   2   4  -3  501.22   17.57
  -2   4   3  599.16   17.22
   2  -4  -3  456.39   19.61
   2   4  -3  560.48   20.80
  -2  -4   3  451.90   28.31
   2  -4  -3  515.29   20.26
  -2  -4   3  475.53   28.95
   2  -4  -3  532.51   15.49
   2   4  -3  531.24   20.34
   2  -4  -2  241.45   20.41
   2  -4  -2  309.31   14.44
  -2  -4   2  306.27   23.37
   2   4  -2  208.44   14.17
  -2   4   2  331.17   13.42
  -2   4   2  320.65   25.60
   2  -4  -2  256.86   14.95
   2   4  -2  352.55   17.23
  -2   4   2  345.19   12.48
  -2  -4   2  281.17   22.69
  -2  -4   2  287.93   22.44
   2  -4  -2  240.41   14.75
   2   4  -2  313.52   15.69
  -2  -4   1  375.56   26.14
   2  -4  -1  364.97   15.51
   2  -4  -1  276.77   21.78
   2   4  -1  465.14   17.07
  -2   4   1  399.36   14.47
   2  -4  -1  314.29   16.36
  -2   4   1  403.26   16.21
  -2   4   1  349.49   26.48
  -2  -4   1  377.02   25.45
  -2  -4   1  375.98   16.63
   2  -4  -1  370.17   17.69
  -2   4   1  407.18   13.50
   2   4  -1  381.86   16.85
  -2  -4   0   40.15    8.79
   2  -4   0   34.49    5.89
   2  -4   0   25.66    8.15
  -2  -4   0   30.31   11.69
  -2   4   0   39.01   13.46
  -2   4   0   25.53    5.68
   2  -4   0   24.59    6.11
   2   4   0   42.65   12.92
  -2   4   0   19.07    4.84
  -2  -4   0   38.41    9.50
   2  -4   0   33.40    6.64
  -2   4   0   25.44    6.11
   2   4   0   40.89    6.20
  -2  -4  -1  259.02   19.36
   2   4   1  229.50   12.50
   2  -4   1  271.11   13.40
   2  -4   1  209.91   19.39
  -2   4  -1  237.14   23.06
   2  -4   1  264.63   14.28
  -2  -4  -1  221.81   18.42
   2   4   1  291.44   13.16
  -2   4  -1  286.22   12.50
   2  -4   1  218.74   13.91
   2   4   1  261.88   22.68
  -2   4  -1  261.58   11.02
  -2   4  -1  274.80   14.06
  -2  -4  -1  272.41   21.42
   2  -4   1  243.78   15.15
  -2  -4  -1  260.92   12.50
   2   4   1  284.95   14.43
  -2   4  -2  135.30    8.27
  -2  -4  -2  126.73   14.08
  -2   4  -2  128.58   18.25
   2  -4   2  115.48   14.52
   2   4   2  114.68   10.36
   2  -4   2  130.06   10.07
   2  -4   2  143.04   11.04
  -2  -4  -2  109.82   14.71
   2   4   2  123.72   10.63
   2  -4   2  135.18    9.70
  -2  -4  -2  133.41   14.54
  -2   4  -2  143.28    9.41
  -2  -4  -2  145.66   16.14
   2   4   2  117.17   16.95
  -2   4  -2  137.44   10.61
  -2  -4  -2  143.76    9.37
   2   4   2  142.41   10.30
  -2  -4  -3   94.77   12.69
   2   4   3   82.82    8.60
   2  -4   3  102.11    8.78
   2  -4   3   98.70    9.47
   2  -4   3   88.02   12.86
  -2   4  -3   82.77   15.20
  -2  -4  -3   78.54   14.00
   2   4   3   77.14    8.21
   2  -4   3   94.41    8.57
  -2   4  -3   92.32    7.80
   2   4   3   76.76   15.03
  -2   4  -3   89.81    7.00
  -2   4  -3   82.06    7.61
  -2   4  -3  103.97    9.30
  -2  -4  -3  102.62   12.49
  -2  -4  -3   99.78    7.95
   2   4   3  102.70    8.73
   2   4   4    1.92    2.88
   2  -4   4    4.92    4.26
  -2  -4  -4    0.55    5.30
  -2  -4  -4    2.65    3.12
   2   4   4   -0.91    3.98
  -2   4  -4    5.21    9.46
   2  -4   4    0.84    3.00
  -2  -4  -4    2.79   10.06
   2  -4   4    2.53    4.91
  -2  -4  -4   -5.09    6.32
   2  -4   4   -1.10    4.56
  -2   4  -4    0.43    2.98
   2   4   4    1.19   11.33
  -2   4  -4   -0.37    2.67
  -2   4  -4    0.93    2.90
   2   4   4   -5.05    3.87
  -2  -4  -4    1.78    2.74
  -2   4  -4    1.74    3.40
  -2   4  -5   35.28   10.22
  -2  -4  -5   39.14    8.60
  -2  -4  -5   43.97    5.40
   2   4   5   41.35    6.19
   2  -4   5   44.62    6.55
  -2  -4  -5   30.98    7.99
   2  -4   5   42.80    6.69
  -2  -4  -5   26.81    9.78
   2   4   5   36.09    5.71
  -2   4  -5   39.84    5.71
  -2   4  -5   43.58    5.07
   2   4   5   41.06   10.89
   2  -4   5   44.08    6.18
  -2   4  -5   37.60    5.64
  -2  -4  -5   34.59    6.89
  -2   4  -5   46.40    6.78
  -2  -4  -5   39.95    5.33
   2   4   5   45.72    6.57
  -2  -4  -6  366.62   13.90
   2  -4   6  327.49   14.39
   2   4   6  333.54   15.03
   2  -4   6  288.62   15.16
  -2   4  -6  279.68   22.83
  -2  -4  -6  235.97   18.68
  -2  -4  -6  325.44   19.82
   2   4   6  253.85   21.83
   2   4   6  294.88   12.69
   2  -4   6  309.78   15.47
   2  -4   6  313.77   15.73
  -2   4  -6  348.34   14.03
  -2  -4  -6  255.19   16.58
  -2   4  -6  297.18   11.90
  -2   4  -6  330.64   13.94
  -2   4  -6  345.67   16.42
  -2  -4  -6  322.73   13.75
  -2  -4  -7   66.85    6.43
   2   4   7   52.49    7.20
  -2  -4  -7   61.17    9.39
   2  -4   7   36.88    5.94
   2  -4   7   60.70    7.52
   2   4   7   55.94    6.24
   2  -4   7   50.31    7.37
   2  -4   7   54.76    6.72
  -2   4  -7   47.34    6.12
  -2   4  -7   52.24    5.40
  -2  -4  -7   36.14    7.29
  -2   4  -7   59.52    7.65
  -2  -4  -7   43.41    5.12
  -2  -4  -8   15.58    3.98
   2   4   8   14.07    4.76
   2  -4   8    6.47    3.76
   2  -4   8   10.35    5.22
   2  -4   8    8.72    4.68
   2  -4   8   12.52    4.18
  -2   4  -8    8.52    3.40
  -2  -4  -8    9.86    4.30
  -2  -4  -8   11.48    3.06
  -2   4  -8   19.32    5.43
   2   4   8    7.89    3.65
   2  -4   9   88.56    9.88
  -2  -4  -9   88.04    7.51
   2   4   9   93.43    9.07
   2  -4   9   73.74    8.26
   2  -4   9   94.83    9.54
  -2   4  -9   63.32    6.85
  -2   4  -9  102.84   10.09
  -2  -4  -9  123.24    7.52
  -2  -4  -9  107.34    6.96
   2   4   9   84.21    7.33
   2   4   9   51.41    7.09
  -2  -4 -10   94.23    7.54
   2   4  10   95.60    8.86
   2  -4  10   76.60    8.92
   2  -4  10   85.67    9.69
   2   4  10   80.57    7.23
   2  -4  10  107.88    9.43
  -2   4 -10   63.27    6.82
  -2   4 -10  107.95   10.21
  -2  -4 -10   91.31    6.86
  -2  -4 -10  128.71    7.69
   2   4  10   45.41    7.11
   2  -4  11   72.25    7.90
  -2  -4 -11   63.20    6.80
   2   4  11   76.99    7.82
   2  -4  11   64.09    8.37
   2  -4  11   41.33    6.64
   2   4  11   63.25    6.80
  -2   4 -11   60.93    6.41
  -2  -4 -11   92.75    6.71
  -2   4 -11   73.43    8.84
  -2  -4 -11   81.02    6.22
   2   4  11   39.86    6.70
  -2  -4 -12   36.70    5.67
  -2  -4 -12   35.00    5.13
   2   4  12   48.33    6.80
   2  -4  12   54.10    7.65
   2  -4  12   34.38    5.87
   2  -4  12   57.47    7.07
  -2  -4 -12   59.98    5.99
  -2   4 -12   61.40    7.97
   2   4  12   46.19    6.75
  -2   4 -13   54.41    8.16
  -2  -4 -13   35.46    5.43
   2   4  13   45.56    6.61
   2  -4  13   41.43    6.37
   2  -4  13   60.06    7.14
  -2  -4 -13   47.43    5.68
   2  -4  13   44.13    6.83
  -2   4 -13   59.68    7.95
   2   4  13   49.25    6.84
   2   4  14    4.46    3.60
   2  -4  14    5.06    3.35
  -2   4 -14   13.45    4.90
  -2  -4 -14    4.95    3.37
   2   4  14    4.77    3.47
   2  -4  14    8.75    3.83
   2  -4  14    9.30    3.70
  -2  -4 -14    8.81    3.36
  -2   4 -14   10.50    4.31
  -2   4 -15   35.64    6.85
  -2  -4 -15   37.76    4.99
   2  -4  15   47.49    6.06
   2   4  15   34.91    5.28
   2  -4  15   26.06    4.87
   2  -4  15   39.40    6.20
  -2  -4 -15   44.94    5.43
  -2   4 -15   53.39    6.83
   2   4  15   35.62    5.56
   2   4  16   13.61    4.00
   2  -4  16   17.58    4.16
  -2   4 -16   13.40    4.61
  -2  -4 -16   13.92    3.75
   2   4  16   13.14    3.56
   2  -4  16    9.24    3.95
  -2  -4 -16   14.95    3.55
  -2   4 -16   20.45    4.46
   2   4  17   -0.67    2.43
  -2   4 -17   -0.27    3.26
   2   4  17    2.41    2.30
   2  -4  17    1.12    2.72
  -2  -4 -17    0.00    2.34
  -2   4 -17    4.56    3.10
   2   4  18    6.52    2.65
  -2   4 -18    1.15    2.72
   2   4  18    2.16    1.64
   2  -4  18    4.29    2.53
  -2  -4 -18   -0.66    2.55
  -2   4 -18    5.31    2.58
   2   4  19    1.80    2.13
  -2   4 -19    2.86    2.65
   2   4  19    1.42    2.43
   2  -4  19    4.48    2.21
  -2  -4 -19    5.91    2.10
   2   4  20    2.46    2.26
  -2   4 -20    1.97    2.91
   2  -4  20    4.23    1.99
  -2  -4 -20    3.45    2.40
   2   5 -18    8.29    2.95
  -2  -5  18    9.15    2.00
  -2  -5  18   11.92    2.78
   2   5 -17   12.86    3.21
   2  -5 -17   10.94    3.31
  -2   5  17   20.57    3.10
  -2  -5  17   12.32    2.81
  -2  -5  17   12.01    2.84
  -2   5  17   22.90    3.38
   2   5 -16   10.59    3.40
   2  -5 -16   10.84    3.10
  -2   5  16   20.55    3.27
  -2  -5  16    9.95    2.58
   2  -5 -16    4.08    3.25
  -2   5  16   19.13    3.16
   2   5 -15   18.77    4.59
   2  -5 -15   20.45    3.86
  -2   5  15   34.81    4.33
  -2  -5  15   24.52    3.70
  -2   5  15   40.16    4.18
   2  -5 -15   10.76    3.80
   2  -5 -14   28.39    4.36
  -2   5  14   36.32    4.54
  -2  -5  14   18.76    3.79
   2  -5 -14   14.01    4.40
  -2   5  14   38.96    4.41
   2   5 -14   21.49    5.18
   2   5 -13    9.34    4.29
   2  -5 -13   18.08    3.76
  -2   5  13   24.71    4.19
  -2  -5  13   13.46    3.70
   2  -5 -13   11.27    4.10
  -2   5  13   27.36    4.15
   2  -5 -12   90.12    7.00
   2  -5 -12  141.30    8.89
  -2   5  12  162.12    8.31
  -2  -5  12   73.26    7.07
   2   5 -12  121.61    9.97
  -2   5  12  143.30    7.94
   2  -5 -11  122.97    8.06
   2  -5 -11  182.80   10.09
  -2   5  11  198.42    9.34
  -2  -5  11  110.40    8.54
   2   5 -11  161.61   11.43
  -2   5  11  186.05    9.15
  -2   5  10  379.27   12.45
   2  -5 -10  267.72   11.03
   2  -5 -10  428.01   14.62
  -2   5  10  432.44   13.26
  -2  -5  10  230.43   12.00
  -2  -5  10  201.78   19.80
   2   5 -10  362.30   16.43
   2   5  -9    8.02    4.11
   2  -5  -9    6.62    3.59
  -2   5   9    6.51    3.15
   2  -5  -9    3.41    3.10
  -2   5   9    8.36    3.34
  -2  -5   9    8.64    3.38
  -2   5   9    6.53    2.63
  -2  -5   9    6.88    7.40
   2   5  -8    3.20    3.35
  -2   5   8    1.94    3.07
   2  -5  -8    4.70    3.24
  -2   5   8    2.57    2.68
   2  -5  -8    2.67    2.97
  -2   5   8    2.91    2.74
  -2  -5   8   -0.94    2.65
  -2  -5   8    6.19    3.64
  -2  -5   8    1.80    8.29
   2   5  -7   15.17    4.56
  -2   5   7   11.69    3.38
   2  -5  -7   21.19    4.28
  -2   5   7   14.74    3.70
  -2  -5   7   10.83    3.84
  -2  -5   7   14.01    4.37
  -2   5   7   15.40    4.02
  -2  -5   7   10.25    7.66
  -2   5   6   23.53    4.09
   2  -5  -6   30.01    4.87
  -2   5   6   25.94    4.38
  -2  -5   6   20.74    4.23
  -2   5   6   25.66    4.57
  -2  -5   6   20.19    4.96
   2   5  -6   16.59    3.59
  -2  -5   6   15.87   10.27
   2   5  -6   26.86    5.49
   2   5  -5    0.71    3.40
  -2   5   5    0.64    2.92
  -2   5   5   -0.43    2.72
   2  -5  -5   -1.00    3.28
  -2  -5   5    0.03    3.56
   2   5  -5   -4.04    2.86
  -2   5   5   -0.82    3.32
  -2  -5   5   -6.16    9.68
  -2   5   4   76.24    6.99
  -2  -5   4   60.49    7.49
  -2   5   4   73.10    6.51
   2  -5  -4   55.13   10.33
   2  -5  -4   86.88    7.87
  -2   5   4   74.36    6.37
   2   5  -4   48.11    6.47
  -2  -5   4   76.32   13.88
   2   5  -4   89.15    8.57
  -2   5   3  132.46    8.04
  -2  -5   3  106.56    8.93
   2  -5  -3   88.24   12.69
  -2   5   3   88.79    6.92
   2  -5  -3  114.33    9.39
  -2   5   3  119.30    8.39
   2  -5  -3  124.60   10.08
  -2  -5   3  113.02   15.35
   2   5  -3  123.90    9.63
  -2   5   2  194.24    9.61
   2  -5  -2  110.04   14.70
  -2   5   2  123.97    7.50
  -2   5   2  157.15   10.01
   2  -5  -2  155.86   10.87
  -2  -5   2  150.46   10.11
   2   5  -2   80.15    8.82
   2  -5  -2  105.73   11.58
  -2   5   2  206.78    9.59
   2  -5  -2  148.93   11.06
  -2  -5   2  188.01   18.10
  -2  -5   2  134.28    9.39
   2   5  -2  163.31   11.32
  -2  -5   1  155.74   17.46
  -2   5   1  230.80   10.23
  -2   5   1  238.30   11.59
   2  -5  -1  153.38   17.06
  -2   5   1  202.57    9.52
   2  -5  -1  226.80   12.30
   2   5  -1  110.61   11.20
  -2  -5   1  173.31   10.84
   2  -5  -1  132.04   11.85
  -2   5   1  229.72   10.25
  -2   5   1  173.82   11.82
   2  -5  -1  199.55   12.98
  -2  -5   1  164.84   10.24
   2   5  -1  186.72   11.76
  -2   5   0  577.68   15.62
  -2   5   0  683.95   18.55
   2  -5   0  476.49   29.30
   2  -5   0  657.49   20.66
   2   5   0  684.38   19.62
  -2  -5   0  636.94   19.62
  -2   5   0  591.23   15.83
  -2   5   0  606.47   19.72
   2  -5   0  710.88   23.20
  -2  -5   0  645.01   18.95
  -2  -5   0  673.48   30.16
   2   5   0  762.41   22.58
  -2   5  -1  116.23    7.48
  -2  -5  -1  152.56   10.27
   2  -5   1  139.50   10.93
   2  -5   1   92.93   13.63
   2   5   1  247.76   13.46
  -2   5  -1  153.02    9.77
  -2   5  -1  132.41    8.22
  -2   5  -1  129.00   10.07
   2  -5   1  106.08   10.75
  -2  -5  -1  175.23   10.23
   2   5   1  218.86   12.66
  -2   5  -2   50.21    5.05
  -2  -5  -2   83.34    7.72
   2  -5   2   72.65    7.69
   2   5   2   28.52    5.96
   2  -5   2   59.64   11.43
   2   5   2   44.40    7.75
  -2   5  -2   78.57    8.24
  -2   5  -2   80.70    7.00
  -2   5  -2   78.92    6.26
  -2  -5  -2   69.03    9.17
   2  -5   2   71.99    8.67
  -2  -5  -2   87.69    7.40
   2   5   2  107.75    9.16
  -2   5  -3   37.16    4.54
  -2  -5  -3   46.25    6.01
   2   5   3   22.81    5.32
   2  -5   3   42.02    6.22
   2  -5   3   37.69    9.26
  -2   5  -3   36.40    5.27
   2   5   3    7.70    5.65
  -2   5  -3   43.23    5.03
  -2   5  -3   41.35    6.55
  -2  -5  -3   29.79    7.59
   2  -5   3   47.50    7.30
  -2  -5  -3   47.97    5.74
   2   5   3   62.19    7.12
  -2   5  -4  168.15    9.63
  -2  -5  -4  178.57    9.99
   2  -5   4  154.19   12.19
   2   5   4  122.77    9.57
   2  -5   4  178.81   10.85
   2  -5   4  126.88   16.01
   2   5   4  154.07    9.78
  -2  -5  -4  143.44   13.33
  -2   5  -4  167.39   11.69
  -2  -5  -4  196.07   10.41
  -2  -5  -5  171.67    9.42
   2   5   5   98.58    8.93
   2  -5   5  134.55    9.82
   2  -5   5  121.76   14.86
   2   5   5   82.77    8.23
  -2   5  -5  127.25    8.58
  -2  -5  -5   88.53   11.68
  -2   5  -5  144.62   10.74
  -2  -5  -5  115.99    7.79
   2  -5   5  114.89   10.52
  -2  -5  -6   23.65    4.67
  -2  -5  -6   29.65    4.31
   2   5   6   22.00    4.74
   2  -5   6   27.31    5.03
   2  -5   6   27.94    8.72
  -2   5  -6   22.42    4.32
   2   5   6   11.58    4.34
  -2  -5  -6   10.81    7.67
  -2  -5  -6   27.50    3.86
   2  -5   6   24.36    5.76
  -2   5  -6   24.34    5.56
  -2  -5  -7   73.26    6.43
   2   5   7   44.16    6.25
   2  -5   7   55.82    6.59
   2   5   7   29.09    5.33
   2  -5   7   41.51   11.38
  -2   5  -7   51.05    5.65
  -2  -5  -7   57.06    5.54
  -2   5  -7   48.35    7.08
  -2  -5  -7   57.56    5.43
  -2   5  -8   13.68    4.49
  -2  -5  -8   22.08    3.96
   2   5   8   16.01    4.35
   2  -5   8   19.10    4.47
   2  -5   8   11.66    9.36
   2   5   8   10.62    3.49
  -2  -5  -8   23.04    3.64
  -2   5  -8   19.87    4.01
  -2  -5  -8   20.06    3.32
  -2   5  -8   18.10    4.98
  -2   5  -9    4.87    3.44
  -2  -5  -9    8.56    2.98
   2   5   9    3.77    3.58
   2  -5   9    5.92    2.95
   2  -5   9    5.49    6.70
  -2  -5  -9    9.01    2.79
   2   5   9    2.02    2.51
  -2  -5  -9   10.23    2.70
  -2   5  -9    6.87    3.67
  -2   5  -9    6.45    3.22
  -2  -5 -10    1.09    2.48
  -2   5 -10   -1.83    3.66
  -2  -5 -10    1.30    2.40
   2   5  10    0.70    2.87
   2  -5  10   -0.80    2.60
  -2   5 -10    2.33    2.91
   2   5  10    0.99    2.23
  -2  -5 -10    2.45    1.97
  -2   5 -10    4.34    3.33
  -2   5 -11   28.54    5.20
  -2  -5 -11   21.46    4.25
   2   5  11   20.17    4.48
   2  -5  11   29.90    4.58
  -2  -5 -11   36.59    4.32
  -2   5 -11   32.99    5.67
  -2  -5 -11   25.90    3.87
  -2   5 -12   41.39    5.83
  -2  -5 -12   26.24    4.34
   2   5  12   30.38    5.17
   2  -5  12   40.37    5.00
  -2   5 -12   49.96    6.54
  -2   5 -13    4.16    3.02
  -2  -5 -13    8.19    2.74
   2   5  13    5.54    2.75
   2  -5  13    6.37    2.50
  -2  -5 -13    9.24    2.66
  -2   5 -13    7.88    3.34
  -2   5 -14    5.13    2.42
  -2  -5 -14    1.63    2.14
   2   5  14    1.61    2.05
   2  -5  14    0.76    2.16
  -2  -5 -14    1.75    1.90
  -2   5 -14    0.90    2.36
  -2   5 -15    4.88    2.78
  -2  -5 -15    4.97    3.12
   2   5  15    3.29    2.09
  -2  -5 -15    2.13    2.09
  -2   5 -15    6.34    2.88
   2  -5  15    5.43    2.51
  -2   5 -16   10.91    3.26
   2   5  16    6.25    2.40
  -2  -5 -16    7.16    2.71
  -2   5 -16   14.18    3.24
   2  -5  16    8.74    2.90
   2   6 -12    5.06    2.26
  -2  -6  12    5.39    1.36
  -2   6  12    7.64    2.30
  -2  -6  12    5.97    1.85
  -2  -6  12    1.37    1.34
  -2  -6  11   24.21    2.74
  -2   6  11   20.00    3.19
  -2  -6  11    5.46    1.87
  -2  -6  11   14.30    2.67
   2  -6 -11    4.53    2.77
   2   6 -11   25.45    3.42
   2   6 -10    2.48    1.78
  -2   6  10    0.39    1.97
  -2  -6  10    0.37    1.73
   2  -6 -10    1.45    2.15
  -2  -6  10    0.28    1.16
   2  -6  -9   11.59    2.92
  -2   6   9   18.21    3.07
  -2  -6   9   17.46    2.71
  -2  -6   9   11.81    2.20
   2   6  -9   23.89    3.61
   2  -6  -8   79.93    5.80
  -2   6   8   77.60    5.22
  -2   6   8   70.82    4.83
  -2  -6   8   63.88    4.97
  -2  -6   8   57.70    4.47
  -2  -6   7   15.00    2.88
   2  -6  -7   18.06    3.18
  -2   6   7   13.09    2.75
  -2  -6   7   16.36    2.85
  -2   6   7   11.69    2.50
  -2  -6   7   10.15    2.45
  -2  -6   6  124.06    6.70
  -2   6   6   99.31    6.04
  -2   6   6  116.46    6.68
  -2  -6   6  110.31    6.58
  -2  -6   6  109.80    6.23
   2   6  -5   11.03    3.03
  -2  -6   5    4.68    2.39
  -2   6   5   -1.25    2.68
  -2  -6   5    3.95    2.25
   2   6  -5   -4.76    2.89
  -2   6   5    6.42    2.53
   2  -6  -5    8.21    2.72
  -2  -6   5    5.50    2.04
  -2  -6   4   14.05    2.93
   2  -6  -4   18.38    3.34
  -2   6   4   10.07    2.43
  -2   6   4   13.16    2.94
  -2  -6   4   15.17    2.74
   2   6  -4   20.10    3.46
   2   6  -3    0.52    1.87
  -2  -6   3    0.19    1.96
   2  -6  -3    1.36    2.33
   2   6  -3   -0.08    2.28
  -2   6   3   -0.44    2.34
  -2  -6   3   -0.82    1.96
  -2  -6   2   28.77    3.53
   2  -6  -2   23.88    4.00
  -2   6   2   18.43    3.58
  -2  -6   2   24.65    3.33
  -2  -6   1   33.34    3.77
   2  -6  -1   37.64    4.42
  -2   6   1   18.67    3.66
   2   6  -1    9.39    3.37
  -2  -6   1   30.36    3.69
  -2  -6   0   18.53    3.20
   2  -6   0   22.85    3.66
  -2   6   0    9.70    2.98
  -2   6   0   10.78    3.53
  -2  -6   0   19.08    3.11
  -2   6  -1   13.72    3.39
  -2  -6  -1   15.01    3.16
   2  -6   1   17.31    3.41
  -2  -6  -1   13.28    2.59
  -2  -6  -1   15.21    2.52
  -2  -6  -1   15.77    2.93
  -2   6  -1    6.74    2.97
   2  -6   1   11.34    3.33
  -2  -6  -2   38.53    3.89
   2  -6   2   26.40    3.97
   2   6   2    9.09    3.41
  -2   6  -2   17.78    3.79
  -2   6  -2   19.33    4.03
   2  -6   2   22.45    3.98
  -2  -6  -2   32.21    3.10
  -2  -6  -2   21.56    2.69
  -2  -6  -3   11.79    2.57
   2   6   3    4.30    2.75
   2  -6   3   11.53    2.95
  -2   6  -3    5.36    2.97
  -2  -6  -3    7.26    2.08
  -2  -6  -3   10.95    2.07
  -2   6  -3    6.87    2.92
   2  -6   3    8.44    3.07
   2   6   4    0.63    1.18
  -2  -6  -4    1.56    1.83
   2  -6   4    1.59    2.04
   2   6   4   -1.42    2.16
  -2   6  -4    1.02    2.37
  -2  -6  -4   -2.53    1.78
  -2  -6  -4    1.58    1.45
  -2   6  -4    1.01    2.15
   2  -6   4    0.11    2.10
   2   6   5   23.10    2.38
  -2  -6  -5   46.79    4.08
   2  -6   5   45.48    4.47
   2   6   5   18.75    3.27
  -2   6  -5   30.01    4.17
   2   6   5   19.08    3.57
  -2  -6  -5   37.89    3.19
  -2   6  -5   26.50    4.50
   2  -6   5   34.72    4.55
  -2  -6  -5   55.09    3.75
  -2   6  -6   32.14    4.80
  -2  -6  -6   61.09    4.67
   2   6   6   28.23    3.83
   2  -6   6   55.01    4.95
   2   6   6   22.01    3.78
  -2   6  -6   46.23    4.67
  -2  -6  -6   58.06    3.62
   2  -6   6   47.40    5.00
  -2  -6  -6   69.95    4.22
  -2  -6  -7    6.01    2.25
   2   6   7    3.15    2.34
  -2   6  -7    7.32    2.61
   2  -6   7    8.16    2.26
  -2  -6  -7    7.50    2.00
  -2  -6  -7    9.51    1.96
  -2   6  -7    7.56    2.70
   2  -6   7    8.50    2.51
  -2  -6  -8   37.12    3.91
   2  -6   8   48.27    4.21
  -2   6  -8   45.12    4.33
  -2  -6  -8   51.73    3.57
  -2   6  -8   34.31    4.64
   2  -6   8   40.00    4.34
  -2  -6  -8   44.92    3.62
  -2  -6  -9   10.35    2.54
   2  -6   9   18.41    2.98
   2   6   9    8.00    2.84
  -2  -6  -9   19.56    2.37
   2  -6   9   15.69    2.93
  -2   6  -9   13.77    3.22
  -2  -6 -10    1.88    1.87
   2   6  10   -0.05    2.02
   2  -6  10    1.26    1.28
  -2   6 -10    1.25    2.22
   2  -6  10    2.07    1.95
   2  -6  11   19.10    2.69
  -2   6 -11    7.52    3.02
   3   0 -25    4.64    4.03
  -3   0  25    0.16    3.14
  -3   0  25    0.23    2.87
   3   0 -24   -1.56    3.61
  -3   0  24    2.56    2.41
   3   0 -24   -1.94    3.57
   3   0 -23    6.17    4.37
   3   0 -23    5.56    4.33
   3   0 -22   35.59    7.76
   3   0 -22   39.23    7.50
  -3   0  22   55.83    9.33
   3   0 -21   14.04    5.67
   3   0 -21   16.10    5.95
  -3   0  21   15.56    9.98
  -3   0  21   14.14    4.97
   3   0 -20   10.68    5.84
   3   0 -20    7.31    5.48
  -3   0  20   21.55    7.86
  -3   0  20   22.27    9.60
   3   0 -19  133.72   10.55
   3   0 -19  149.86   13.76
  -3   0  19  185.17   18.00
  -3   0  19  187.57   16.25
   3   0 -18    1.25    3.63
   3   0 -18    4.06    5.09
  -3   0  18    0.34    6.30
   3   0 -17   98.88   11.27
   3   0 -17  110.42    9.45
  -3   0  17  125.74   12.95
  -3   0  16   14.23    5.92
   3   0 -16    6.43    3.83
   3   0 -16    9.92    4.38
   3   0 -16   11.48    5.56
  -3   0  16   19.53    5.81
  -3   0  16   10.42    5.20
   3   0 -15   16.06    4.36
   3   0 -15   20.16    5.17
   3   0 -15   18.64    5.85
  -3   0  15   20.06    6.28
  -3   0  15   21.46    5.88
   3   0 -14  120.89   11.45
   3   0 -14  125.82   14.52
   3   0 -14   88.26    8.56
   3   0 -14  129.21    9.74
   3   0 -14   86.57   11.81
  -3   0  14  146.32   11.79
  -3   0  14  173.37   12.21
   3   0 -13  121.28    7.18
   3   0 -13   59.54    7.84
   3   0 -13  111.58   13.08
   3   0 -13   84.97   10.04
   3   0 -13   87.84    8.40
   3   0 -13   59.48   10.53
  -3   0  13  115.16   10.27
  -3   0  13  114.48   10.00
   3   0 -12   13.87    3.57
   3   0 -12   10.24    3.83
   3   0 -12   16.71    6.15
   3   0 -12   13.46    5.57
   3   0 -12   14.86    6.04
   3   0 -12   14.49    4.26
  -3   0  12   23.25    5.71
  -3   0  12   18.88    4.98
   3   0 -11   50.91    8.68
   3   0 -11   55.74    6.77
   3   0 -11   47.28    7.96
  -3   0  11   50.74    8.17
  -3   0  11   60.10    7.82
   3   0 -10   14.01    5.75
   3   0 -10   13.07    4.98
  -3   0  10   12.47    5.10
  -3   0  10   24.18    5.39
   3   0  -9  246.63   16.38
  -3   0   9  240.29   10.42
  -3   0   9  264.03   14.01
  -3   0   9  248.03   14.89
   3   0  -8  586.31   24.15
   3   0  -8  557.35   19.05
  -3   0   8  548.35   15.32
   3   0  -7    0.99    4.26
   3   0  -7   -1.47    3.17
  -3   0   7   -0.15    3.21
  -3   0   7    0.15    1.75
   3   0  -6  118.54   11.02
  -3   0   6  102.65    6.83
   3   0  -6  112.37    8.31
   3   0  -5   98.18   10.15
  -3   0   5  104.16   10.55
   3   0  -5  100.91    7.76
  -3   0   5   93.87    6.62
  -3   0   4  414.08   15.67
   3   0  -4  438.92   19.78
   3   0  -4  372.04   14.45
  -3   0   4  411.33   13.37
  -3   0   4  449.02   20.47
   3   0  -4  468.99   14.63
   3   0  -3 1310.67   23.21
  -3   0   3 1188.90   22.52
  -3   0   3 1288.42   33.15
  -3   0   3 1158.27   25.76
  -3   0   2   41.50    5.65
   3   0  -2   39.70    5.96
   3   0  -2   39.30    4.57
  -3   0   2   41.21    4.72
  -3   0   2   50.57    7.08
  -3   0   2   43.90    5.11
  -3   0   1  205.51   10.37
   3   0  -1  218.84    9.21
   3   0  -1  184.55   11.80
  -3   0   1  199.34    9.72
  -3   0   1  201.46   11.43
  -3   0   0   23.09    3.09
  -3   0   0   28.51    4.60
  -3   0   0   25.65    4.78
   3   0   0   24.92    3.60
   3   0   0   22.28    5.61
  -3   0   0   23.21    4.38
  -3   0  -1  329.21   14.75
  -3   0  -1  260.97    9.46
  -3   0  -1  305.78   12.67
   3   0   1  272.36   15.74
  -3   0  -1  317.69   12.38
   3   0   1  289.67   10.04
  -3   0  -2   17.45    3.88
   3   0   2   13.76    2.96
   3   0   2   12.09    5.05
  -3   0  -2   10.15    3.31
  -3   0  -3   35.76    5.03
  -3   0  -3   38.37    5.49
   3   0   3   33.86    3.79
   3   0   3   25.80    6.44
  -3   0  -3   32.65    5.09
   3   0   4   58.33    4.70
  -3   0  -4   57.63    6.70
   3   0   4   49.10    8.09
  -3   0  -4   69.39    6.75
  -3   0  -4   67.43    6.66
  -3   0  -5   20.39    4.96
   3   0   5   15.45    6.51
  -3   0  -5   24.58    4.84
  -3   0  -5   22.42    4.65
  -3   0  -6  338.81   15.06
  -3   0  -6  322.39   15.52
  -3   0  -7    1.41    3.38
   3   0   7    3.72    4.61
  -3   0  -7    1.56    3.51
  -3   0  -8   -0.61    3.88
   3   0   8    3.38    4.08
  -3   0  -8   -0.14    3.69
  -3   0  -9   56.04    6.77
  -3   0  -9   42.77    7.92
  -3   0  -9   37.04    7.62
   3   0   9   37.68    8.34
   3   0   9   55.26    6.08
   3   0  10  112.23   10.30
  -3   0 -10  133.03   10.72
  -3   0 -10   92.11   11.71
  -3   0 -10   62.76   10.36
   3   0  10   92.47   12.78
   3   0  10  113.00    9.54
   3   0  11    0.97    5.06
  -3   0 -11    0.96    4.56
  -3   0 -11   -0.05    6.15
   3   0  11    0.21    6.80
  -3   0 -11    2.33    5.35
   3   0  11   -3.63    8.51
   3   0  12    3.14    4.08
  -3   0 -12    3.47    4.18
   3   0  12    6.70    5.81
  -3   0 -12    5.84    8.62
  -3   0 -12    4.05    4.40
   3   0  12    0.98   10.54
  -3   0 -12    2.65    6.40
  -3   0 -13  190.29   12.74
   3   0  13  161.23   12.07
  -3   0 -13  194.05   13.12
  -3   0 -13  130.29   16.82
   3   0  13  110.94   16.96
   3   0  13  173.45   11.17
   3   0  14   75.58    8.67
  -3   0 -14   69.46    9.33
  -3   0 -14   54.28   12.40
   3   0  14   79.69    7.83
  -3   0 -14   77.32    8.99
  -3   0 -15   31.59    7.06
   3   0  15   29.56    6.18
  -3   0 -15   38.48    7.33
  -3   0 -15   17.10   11.55
   3   0  15   45.12    6.32
   3   0  16   24.22    5.75
  -3   0 -16   20.89    6.06
   3   0  16   15.36    5.32
  -3   0 -16   29.64    6.50
  -3   0 -16   16.72    9.84
   3   0  17    7.75    3.93
  -3   0 -17    6.50    4.29
   3   0  17    9.16    4.39
  -3   0 -17    7.25    4.84
  -3   0 -17    4.49    5.63
   3   0  18   10.24    3.96
  -3   0 -18    8.22    3.81
  -3   0 -18    7.32    4.36
   3   0  18    5.18    4.21
  -3   0 -18    8.24    4.69
  -3   0 -18    7.12    4.51
   3   0  19   75.21    7.58
  -3   0 -19   85.92    9.26
   3   0  19   91.18    7.46
  -3   0 -19   90.68    8.96
   3   0  20  272.48   14.48
   3   0  20  268.08   11.09
   3   0  21  111.19    9.28
  -3   0 -21  127.36    9.75
   3   0  22   14.91    3.99
  -3   0 -22   17.11    4.31
   3   0  23   17.93    3.72
  -3   0 -23   15.19    4.19
   3   1 -25    5.10    3.30
  -3   1  25   -1.06    2.61
   3   1 -24   -1.66    2.47
   3  -1 -24   -0.43    4.70
   3  -1 -24    2.57    4.37
   3   1 -24    2.66    3.63
   3   1 -23   10.13    4.88
   3  -1 -23   13.29    4.74
  -3   1  23   29.73    3.88
   3   1 -23   19.37    5.35
   3  -1 -23   15.65    4.69
   3   1 -22    0.89    4.69
   3  -1 -22    9.16    5.42
   3  -1 -22    2.42    3.35
  -3   1  22   16.02    3.67
   3  -1 -22    6.40    4.77
   3   1 -22   11.83    4.76
   3   1 -21   12.73    5.65
  -3   1  21   22.42    4.53
   3  -1 -21    6.32    4.03
   3   1 -21   13.43    5.49
   3  -1 -21    8.36    4.98
  -3  -1  21   17.88    8.32
  -3   1  21   21.91    8.61
   3   1 -20    6.71    5.48
   3  -1 -20    5.37    3.75
   3   1 -20    6.49    5.71
   3  -1 -20   12.38    5.59
  -3  -1  20   18.38    9.75
  -3   1  20   11.03    9.55
  -3   1  20   24.51   10.61
  -3   1  20   23.15   10.39
   3   1 -19    0.73    5.07
   3  -1 -19    0.74    3.51
  -3   1  19   -6.37    5.75
   3  -1 -19    0.86    5.00
   3   1 -19    0.61    5.26
  -3  -1  19   -0.66    3.71
  -3  -1  19    7.42    7.51
  -3   1  19   -5.73    7.17
   3   1 -18   14.44    7.18
   3  -1 -18   25.57    5.68
   3   1 -18   28.60    6.36
   3   1 -18   22.41    7.64
   3  -1 -18   27.34    6.81
  -3  -1  18   35.63    8.20
  -3   1  18   40.26    7.68
  -3  -1  18   37.98    7.49
  -3   1  18   45.37    8.13
   3   1 -17  177.36   16.56
  -3   1  17  463.82   23.60
   3  -1 -17  267.30   14.78
   3   1 -17  349.31   16.19
   3   1 -17  370.82   20.65
   3  -1 -17  448.62   19.49
  -3  -1  17  371.48   22.57
  -3   1  17  400.39   20.48
  -3  -1  17  362.24   19.99
  -3   1  17  470.60   23.41
   3   1 -16  173.11   15.83
   3  -1 -16  178.27   12.17
   3   1 -16  257.51   17.10
   3   1 -16  312.57   25.73
   3   1 -16  246.65   13.78
  -3   1  16  326.77   19.99
  -3  -1  16  266.28   18.92
   3  -1 -16  332.65   16.53
  -3   1  16  317.28   17.82
  -3  -1  16  274.71   17.23
   3   1 -15   18.27    6.54
   3   1 -15   41.18    4.52
   3   1 -15   26.96    7.24
   3   1 -15   29.65   13.61
   3  -1 -15   27.58    5.67
   3  -1 -15   37.39    6.52
   3  -1 -15   32.69    5.53
   3  -1 -15   26.38   11.60
   3   1 -15   32.10    6.11
  -3   1  15   35.80    7.73
  -3   1  15   31.78    6.88
  -3  -1  15   28.75    6.94
   3   1 -14  165.87   14.75
  -3  -1  14  225.44   13.98
   3   1 -14  266.91   10.86
   3  -1 -14  291.16   14.37
   3  -1 -14  151.95   11.23
   3   1 -14  205.89   21.46
   3   1 -14  194.37   12.54
   3  -1 -14  205.39   10.87
   3   1 -14  202.97   14.76
   3  -1 -14  152.47   14.85
  -3   1  14  254.30   15.87
  -3   1  14  252.76   15.53
  -3  -1  14  223.77   13.82
   3   1 -13  372.22   20.79
  -3  -1  13  504.96   19.51
   3  -1 -13  375.34   15.82
   3   1 -13  540.68   30.18
   3   1 -13  447.75   17.45
   3  -1 -13  442.90   15.31
   3   1 -13  487.62   21.07
   3  -1 -13  621.36   20.91
   3  -1 -13  345.04   19.92
  -3   1  13  543.66   21.83
  -3   1  13  433.05   22.32
  -3   1  13  509.12   21.08
   3   1 -12  142.68   13.23
   3  -1 -12  144.58   10.32
   3   1 -12  175.06   17.90
   3   1 -12  162.50   11.00
   3  -1 -12  199.10    9.71
   3   1 -12  148.50   12.85
   3  -1 -12  157.23   13.03
  -3  -1  12  180.98   11.68
  -3   1  12  144.59   13.57
   3   1 -11   55.36    8.21
   3   1 -11   63.75   11.06
   3   1 -11   58.67    6.95
   3  -1 -11   82.42    6.07
   3  -1 -11   95.77    8.65
   3  -1 -11   57.47    7.48
  -3  -1  11   85.56    9.01
  -3   1  11   78.25    9.30
  -3  -1  11   87.16    7.84
  -3   1  11   53.72    9.21
  -3  -1  10  294.94   12.93
   3   1 -10  265.89   19.99
   3   1 -10  242.24   11.55
   3  -1 -10  266.30   14.10
  -3   1  10  277.99   16.20
  -3  -1  10  274.70   15.01
  -3   1  10  250.11   17.58
   3   1  -9  575.37   26.75
   3   1  -9  486.01   21.54
   3  -1  -9  623.10   19.32
  -3   1   9  507.75   21.73
  -3   1   9  574.24   22.57
  -3  -1   9  572.62   21.27
   3   1  -8  137.65   13.28
   3   1  -8  101.34   10.86
   3  -1  -8  156.09    9.77
  -3   1   8  128.15   11.13
  -3   1   8  142.90   13.24
  -3   1   8  133.70   11.44
  -3  -1   7   41.75    6.79
  -3   1   7   34.55    7.09
   3   1  -7   28.71    6.62
   3  -1  -7   42.24    5.35
   3   1  -7   21.84    6.12
  -3   1   7   38.02    6.59
  -3   1   7   23.53    6.68
  -3   1   7   35.62    6.30
  -3   1   6   73.38    8.66
  -3  -1   6   70.29    9.08
   3   1  -6   67.52    8.97
   3   1  -6   52.05    7.41
   3  -1  -6   65.04    6.64
   3   1  -6   59.73    7.69
  -3   1   6   63.53    7.96
  -3   1   6   61.10    7.52
  -3   1   5  125.49    9.99
   3   1  -5  123.36   11.52
   3   1  -5   99.20    9.15
   3  -1  -5  151.96    8.91
   3   1  -5  108.43   10.21
  -3   1   5  109.61   10.25
  -3   1   5  109.25    9.63
  -3  -1   5  117.86   13.04
  -3   1   4  451.98   18.11
   3   1  -4  407.02   20.19
   3   1  -4  384.98   16.11
   3  -1  -4  481.81   15.72
   3   1  -4  394.44   18.15
  -3   1   4  446.29   18.03
  -3   1   4  417.70   17.87
  -3  -1   4  466.01   24.63
  -3  -1   3 1258.17   39.11
   3   1  -3  987.01   24.37
  -3   1   3 1237.66   28.81
  -3  -1   3 1047.45   19.12
   3   1  -3 1052.48   31.44
   3  -1  -3 1267.56   24.04
  -3   1   3 1144.81   19.33
   3   1  -3  991.75   29.27
  -3   1   3 1156.26   29.06
  -3   1   2  917.26   24.41
  -3  -1   2  790.41   17.21
   3   1  -2  787.20   26.93
   3   1  -2  723.11   20.57
   3  -1  -2  962.41   20.55
  -3   1   2  871.19   17.67
   3   1  -2  773.36   26.40
  -3   1   2  969.72   24.97
  -3  -1   2  956.90   33.92
  -3  -1   2  809.32   24.70
  -3  -1   1   22.27    4.17
   3  -1  -1   23.33    3.86
  -3  -1   1   23.41    5.57
   3   1  -1   24.51    4.92
  -3   1   1   43.04    4.84
   3  -1  -1   19.39    4.44
   3   1  -1   20.83    5.94
  -3  -1   1   27.57    6.40
  -3   1   1   28.57    5.48
  -3  -1   1   27.19    6.24
   3   1  -1   21.73    5.55
  -3   1   0  161.83   11.12
  -3  -1   0  135.83    8.24
  -3   1   0  185.77    9.40
   3   1   0  157.20    9.43
   3  -1   0  175.73    8.89
   3  -1   0  143.82   10.47
   3   1   0  140.54   12.76
  -3  -1   0  181.94   12.61
  -3  -1   0  166.01   12.40
  -3  -1  -1  431.64   19.43
  -3   1  -1  405.92   17.33
  -3   1  -1  425.63   13.98
   3   1   1  390.39   14.24
   3  -1   1  423.20   13.37
   3  -1   1  367.31   16.49
   3   1   1  358.34   19.76
  -3  -1  -1  442.94   18.85
  -3  -1  -1  400.51   17.67
  -3  -1  -2   13.43    4.96
  -3   1  -2   16.39    4.09
  -3  -1  -2   15.08    5.04
  -3  -1  -2   13.38    3.72
   3   1   2   10.40    3.69
   3  -1   2   15.70    3.27
  -3   1  -2   13.73    4.46
   3  -1   2   12.57    4.81
   3   1   2    8.53    5.66
  -3  -1  -2   13.25    4.51
  -3   1  -3  105.74    9.32
  -3  -1  -3   92.22    7.90
  -3   1  -3  112.36    9.01
   3   1   3   84.76    6.95
   3  -1   3  101.74    6.75
  -3  -1  -3  116.49   10.05
  -3  -1  -3  125.97   11.28
   3  -1   3   98.06   10.22
   3   1   3   88.57   11.47
  -3  -1  -3  120.00    8.61
  -3   1  -4  119.21   10.23
  -3  -1  -4  149.68   12.37
  -3  -1  -4  120.39    9.36
  -3  -1  -4  147.00   11.20
  -3   1  -4  133.85   10.10
   3  -1   4  145.51    7.91
   3  -1   4  116.85   11.57
   3   1   4  127.81   13.13
  -3  -1  -4  142.67    9.53
  -3   1  -5  213.56   13.42
  -3  -1  -5  248.52   14.42
  -3  -1  -5  195.59   12.25
  -3   1  -5  195.20   13.17
   3  -1   5  185.48   14.79
   3  -1   5  258.09   10.18
   3   1   5  193.15   16.53
  -3  -1  -5  253.99   12.24
  -3   1  -6   69.82    8.70
  -3  -1  -6   67.86    8.28
  -3   1  -6   70.17    9.20
   3  -1   6  101.80    6.72
   3  -1   6   78.34   10.41
   3   1   6   62.37   10.82
  -3  -1  -6  104.43    8.27
  -3   1  -7   26.15    6.73
  -3   1  -7   20.25    5.82
  -3  -1  -7   23.59    5.83
   3  -1   7   18.06    5.61
  -3   1  -7   23.81    6.87
  -3  -1  -7   34.80    5.69
  -3  -1  -7   31.05    5.98
   3   1   7   26.75    7.71
   3  -1   8   95.75    9.65
  -3  -1  -8   64.71    8.98
  -3   1  -8   69.20   10.98
   3  -1   8   60.18   10.27
   3   1   8   62.65   10.90
  -3   1  -8   85.96   10.05
  -3  -1  -8   94.05    8.43
  -3  -1  -8   86.50    9.04
   3   1   8   95.15    8.66
  -3   1  -8  105.31    8.22
   3  -1   9  719.40   18.86
   3  -1   9  758.28   26.46
   3  -1   9  671.82   21.98
   3   1   9  756.25   19.31
  -3   1  -9  853.30   21.90
  -3   1  -9  726.06   28.23
   3  -1   9  752.67   27.40
  -3  -1  -9  646.31   26.66
  -3   1  -9  707.69   29.34
   3  -1   9  607.65   29.40
   3   1   9  561.42   30.23
  -3  -1  -9  778.83   24.76
  -3   1  -9  645.19   25.58
   3  -1   9  637.92   18.96
   3   1   9  710.97   22.53
  -3   1  -9  867.61   22.35
   3  -1  10   71.28    9.19
   3  -1  10   91.16    9.84
   3   1  10  112.82    8.61
  -3   1 -10  130.94   10.38
  -3   1 -10   92.17   11.86
   3  -1  10  117.95   12.89
  -3  -1 -10   80.18   11.90
   3   1  10  102.80   10.27
  -3  -1 -10   99.43   10.33
   3  -1  10   78.29   12.77
   3   1  10   79.58   13.67
  -3   1 -10   76.57   11.85
  -3   1 -10  115.50   10.74
   3  -1  10   91.12    8.54
  -3   1 -10  114.24    9.91
   3  -1  11   38.84    7.78
   3  -1  11   76.49    9.11
   3   1  11   84.21    7.90
  -3   1 -11   84.87    9.15
   3  -1  11   94.89   11.43
  -3   1 -11   58.52   11.92
  -3  -1 -11   52.65   11.83
  -3  -1 -11   61.55    9.22
  -3  -1 -11   78.76    6.62
   3  -1  11   52.87   13.14
   3   1  11   49.57   14.06
  -3   1 -11   73.38    9.79
   3  -1  11   60.83    7.63
   3   1  11   70.22    8.65
  -3   1 -11   82.90    8.73
   3  -1  12   48.21    7.83
   3   1  12   52.65    6.07
  -3   1 -12   54.62    7.42
  -3  -1 -12   42.81    7.75
   3  -1  12   50.92    8.95
  -3   1 -12   43.68   11.43
  -3  -1 -12   34.05   11.83
  -3  -1 -12   37.31    8.41
  -3  -1 -12   47.39    5.37
   3  -1  12   31.03   12.59
   3   1  12   37.01   13.23
  -3   1 -12   45.28    9.79
   3  -1  12   51.38    6.80
   3   1  12   52.19    7.12
  -3   1 -12   53.20    7.50
  -3  -1 -13   15.63    7.74
   3  -1  13   38.07    6.99
   3   1  13   42.25    5.27
  -3   1 -13   45.49    6.96
  -3  -1 -13   28.99    7.06
   3  -1  13   49.56    8.25
  -3   1 -13   27.91    9.29
  -3  -1 -13   39.92    8.45
  -3  -1 -13   20.38    8.24
  -3  -1 -13   29.25    4.74
   3  -1  13    9.04    8.65
   3   1  13   12.82    8.31
  -3   1 -13   36.16   10.16
   3  -1  13   38.17    5.77
   3   1  13   37.34    6.41
  -3   1 -13   37.99    6.84
  -3   1 -14   14.13    5.16
   3   1  14   12.78    4.64
   3  -1  14    7.14    4.52
  -3   1 -14    7.06    4.78
   3  -1  14   10.36    5.53
  -3  -1 -14   11.57    5.39
  -3  -1 -14    3.49    3.27
  -3  -1 -14    8.65    5.04
  -3   1 -14   15.89    8.13
  -3  -1 -14    2.03   10.88
  -3   1 -15   24.93    8.52
  -3  -1 -15   18.44    6.20
   3  -1  15   32.64    6.58
  -3   1 -15   37.85    6.95
   3  -1  15   27.80    7.62
  -3  -1 -15   27.74    7.12
  -3  -1 -15   23.62    4.84
  -3   1 -15   34.16    7.74
  -3  -1 -15   12.95   10.51
   3   1  15   35.97    6.42
  -3   1 -15   25.04    6.91
  -3   1 -15   29.64    6.63
  -3   1 -16   16.54    5.82
   3   1  16   16.44    5.21
  -3  -1 -16   12.70    5.26
   3  -1  16   17.33    5.16
   3  -1  16   20.02    6.24
  -3   1 -16   17.39    5.47
  -3  -1 -16   17.88    6.03
  -3  -1 -16   19.33    4.40
  -3   1 -16   18.66    5.78
  -3  -1 -16    7.51   10.63
  -3   1 -16   12.05    5.28
  -3   1 -16   20.20    9.97
   3   1  17    1.42    3.33
  -3  -1 -17    3.70    4.06
   3  -1  17    3.55    3.60
   3  -1  17    4.35    4.34
  -3  -1 -17    2.11    4.10
  -3   1 -17   -9.04    6.35
   3  -1  17    1.11    4.26
  -3   1 -17    4.91    4.44
  -3  -1 -17    4.70    3.52
  -3   1 -17    3.56    4.14
  -3  -1 -17   -1.44    7.51
  -3   1 -17    1.68    4.88
  -3   1 -17   -2.11   10.72
   3   1  18    4.57    3.65
  -3  -1 -18    6.47    4.15
   3  -1  18    5.88    4.24
  -3   1 -18    2.81    8.58
   3  -1  18    5.67    3.94
  -3   1 -18   12.93    4.45
  -3  -1 -18    6.93    4.51
  -3  -1 -18   15.01    3.82
  -3   1 -18    6.01    4.75
   3  -1  19   75.69    9.15
  -3   1 -19   92.89    9.73
  -3  -1 -19  118.20   10.40
   3  -1  19   92.69    8.96
  -3  -1 -19  103.93    7.27
   3   1  19   94.72    7.95
  -3  -1 -19   95.62    8.65
  -3  -1 -20   12.99    4.30
   3   1  20   13.63    3.60
   3  -1  20   11.61    4.46
   3  -1  20   12.47    4.19
  -3   1 -20   14.99    4.29
  -3  -1 -20   16.51    4.88
  -3  -1 -20   18.63    3.77
   3   1  21    1.88    2.25
   3  -1  21    0.96    2.80
   3   1  21    3.64    3.19
   3  -1  21   -0.65    2.63
  -3   1 -21    1.93    3.05
  -3  -1 -21    3.00    3.11
   3  -1  22   26.03    4.17
   3   1  22   23.45    4.38
  -3   1 -22   31.24    4.94
  -3  -1 -22   36.22    5.09
   3  -1  22   25.09    4.29
   3   1  22   37.52    4.22
   3  -1  23   18.35    3.63
  -3   1 -23   19.01    3.99
   3   1  23   16.60    3.55
  -3  -1 -23   24.25    4.33
  -3   2  25   19.61    3.10
   3   2 -24    1.36    3.11
  -3   2  24    3.93    2.62
  -3   2  24    4.20    2.79
   3   2 -23    7.88    3.58
  -3   2  23   17.28    3.28
   3  -2 -23    4.55    2.78
  -3   2  23   13.54    3.09
  -3  -2  23    7.11    3.86
   3  -2 -23   12.81    4.77
   3   2 -22    3.90    3.66
  -3   2  22    6.79    2.92
   3  -2 -22    1.63    2.97
   3   2 -22    4.59    4.18
   3  -2 -22   -0.73    3.50
   3   2 -21    0.71    3.82
  -3   2  21    2.23    2.88
   3  -2 -21    1.51    2.76
   3   2 -21    0.71    4.07
   3  -2 -21    2.53    3.78
   3   2 -20   18.36    5.56
   3  -2 -20    9.70    4.69
   3   2 -20   23.45    6.44
   3  -2 -20   24.78    5.69
  -3  -2  20    7.95    7.43
  -3   2  20   27.46    6.82
  -3   2  20   22.68    5.96
   3   2 -19   23.71    6.91
   3  -2 -19   22.71    6.01
   3  -2 -19   37.22    6.93
   3   2 -19   34.57    8.26
  -3  -2  19   10.44   10.65
  -3   2  19   36.51    9.03
  -3   2  19   49.13   10.78
   3  -2 -18  118.48   10.63
   3   2 -18  130.33   13.70
   3  -2 -18  137.96   11.73
  -3  -2  18  159.88   15.70
  -3   2  18  144.49   13.40
  -3   2  18  183.27   16.31
   3   2 -18   82.74   11.55
   3   2 -17    1.90    5.09
   3   2 -17    8.22    3.56
   3  -2 -17    1.78    4.08
   3   2 -17    5.83    5.52
   3  -2 -17    7.97    4.83
  -3  -2  17   -0.65    4.12
  -3   2  17    7.56    4.14
  -3   2  17   14.05    6.32
   3  -2 -16   86.10    9.79
   3   2 -16  106.50   12.90
   3  -2 -16  148.69   11.43
  -3   2  16  148.73   12.96
  -3  -2  16   98.96   15.37
  -3  -2  16  135.30   13.98
  -3   2  16  139.14   12.56
   3   2 -16   76.59   11.52
   3  -2 -15   99.35   10.01
   3   2 -15  169.57   13.28
   3   2 -15  199.41   15.81
   3  -2 -15  227.88   13.56
  -3   2  15  203.63   16.55
  -3  -2  15  157.55   20.03
  -3  -2  15  186.93   15.23
  -3   2  15  202.68   14.98
   3   2 -15   80.27   11.52
   3  -2 -14   61.92    7.83
   3   2 -14   92.48   17.95
   3   2 -14   71.83    8.75
   3   2 -14   73.01   10.34
   3  -2 -14   84.74    8.77
   3  -2 -14   93.24    7.18
  -3   2  14   91.61   11.05
  -3  -2  14   58.45   12.77
  -3  -2  14   77.53   10.35
  -3   2  14   71.29    9.36
   3   2 -14   47.82    8.90
   3  -2 -13  134.86   10.01
   3   2 -13  191.85   22.70
   3   2 -13  150.27   12.16
   3  -2 -13  172.63    9.31
   3   2 -13  173.28   13.87
   3  -2 -13  185.07   12.21
   3  -2 -13  144.33   13.83
  -3   2  13  196.51   13.77
  -3  -2  13  128.73   15.95
  -3   2  13  186.23   13.93
   3   2 -13  132.81   12.69
   3   2 -12   34.71    8.07
   3  -2 -12   41.08    6.92
   3   2 -12   62.71   14.63
   3   2 -12   45.75    7.56
   3  -2 -12   72.61    6.24
   3   2 -12   38.50    8.26
   3  -2 -12   81.45    8.07
   3  -2 -12   57.32    8.28
  -3  -2  12   43.98    9.97
  -3   2  12   41.66    8.85
  -3   2  12   59.57    8.29
   3  -2 -11  374.76   16.01
  -3   2  11  432.56   26.87
   3   2 -11  459.87   30.67
   3   2 -11  473.97   18.77
   3  -2 -11  543.84   14.36
   3   2 -11  452.38   20.93
   3  -2 -11  465.74   19.19
  -3  -2  11  363.94   23.85
  -3   2  11  495.49   25.46
   3   2 -11  389.84   19.84
   3  -2 -10  211.33   11.29
   3  -2 -10  200.50    9.33
  -3  -2  10  209.04   14.05
   3   2 -10  183.42   18.35
   3   2 -10  178.94   11.74
  -3   2  10  168.49   16.36
   3   2 -10  130.12   12.64
   3  -2 -10  180.72   12.25
   3  -2 -10  237.33   12.71
  -3   2  10  189.02   14.33
  -3  -2  10  140.07   15.35
  -3   2  10  137.94   15.29
   3   2 -10  119.40   12.25
   3  -2  -9   84.98    6.10
   3  -2  -9  121.00    8.42
   3  -2  -9  101.33    9.25
  -3   2   9   93.76   12.32
  -3  -2   9  107.93   11.72
   3   2  -9  111.50   13.63
   3   2  -9   92.11    8.90
   3   2  -9   69.68    9.73
   3  -2  -9   85.33    8.43
  -3   2   9   91.87   10.09
  -3  -2   9   71.11   11.07
  -3   2   9   76.71   11.91
   3   2  -9   67.83    8.55
   3  -2  -8  541.68   15.40
   3  -2  -8  399.77   15.64
  -3   2   8  382.02   23.60
  -3  -2   8  468.75   23.38
   3   2  -8  391.20   24.13
   3   2  -8  387.85   15.02
   3  -2  -8  443.44   12.53
   3   2  -8  292.98   16.01
   3  -2  -8  398.54   17.10
  -3  -2   8  310.24   24.78
  -3   2   8  384.61   18.56
  -3  -2   8  316.98   20.90
  -3   2   8  327.71   21.00
   3  -2  -7  143.19    9.59
  -3   2   7  147.06   14.85
  -3  -2   7  184.18   15.93
   3   2  -7  154.35   14.95
   3   2  -7  134.48    9.31
   3  -2  -7  170.64    7.94
   3  -2  -7  158.88   10.80
  -3  -2   7  129.45   15.80
  -3   2   7  141.97   11.95
  -3  -2   7  119.22   13.04
  -3   2   7  122.14   13.70
  -3   2   6  258.15   18.64
   3   2  -6  236.56   17.90
   3  -2  -6  257.38   13.52
  -3  -2   6  298.39   19.74
   3   2  -6  186.55   15.38
  -3  -2   6  253.93   21.16
  -3   2   6  249.76   15.10
  -3  -2   6  243.69   17.74
  -3   2   6  225.64   17.14
  -3   2   5   11.18    6.50
   3   2  -5    8.22    5.18
   3  -2  -5   11.73    3.99
   3   2  -5   11.19    6.12
  -3   2   5    1.57    4.04
  -3  -2   5    9.85    4.86
  -3   2   5    5.90    4.03
  -3  -2   5   10.50    5.19
  -3   2   4    3.28    6.74
   3  -2  -4    9.35    3.79
   3   2  -4    4.80    5.56
  -3   2   4    8.18    5.08
  -3   2   4   -0.70    7.05
  -3  -2   4    9.42    4.18
  -3  -2   4    6.70    4.53
   3   2  -4   13.13    5.41
  -3   2   3  360.57   20.81
   3   2  -3  319.11   19.04
   3  -2  -3  425.16   16.61
   3   2  -3  339.20   19.75
  -3   2   3  405.89   19.27
  -3   2   3  252.68   21.80
  -3  -2   3  426.45   26.14
  -3  -2   3  375.95   20.46
  -3  -2   3  326.17   21.72
   3  -2  -2   88.16   10.21
  -3   2   2   93.00   11.24
   3   2  -2   53.63    8.34
   3  -2  -2   68.39    7.80
  -3  -2   2   63.38   10.39
   3   2  -2   50.99    9.55
  -3   2   2   65.52    9.31
  -3   2   2   44.23   10.83
  -3  -2   2   74.42   11.53
  -3  -2   2   53.19   10.08
   3  -2  -1  660.44   24.47
  -3   2   1  504.27   24.37
  -3  -2   1  455.47   17.06
   3   2  -1  455.87   21.62
   3  -2  -1  611.89   19.88
   3   2  -1  432.37   24.15
  -3   2   1  639.84   23.02
  -3   2   1  614.68   30.82
  -3  -2   1  515.54   24.88
  -3  -2   1  540.25   26.38
  -3   2   0  915.74   37.80
   3  -2   0  752.49   26.69
  -3  -2   0  612.05   20.20
   3   2   0  616.66   25.05
  -3   2   0  688.46   27.86
   3  -2   0  721.67   21.31
   3   2   0  654.62   28.62
  -3   2   0  835.78   26.09
  -3  -2   0  674.43   28.68
  -3  -2   0  733.48   30.16
   3  -2   1  135.70   12.15
  -3   2  -1  156.60   14.01
  -3  -2  -1  156.02   11.48
  -3   2  -1  166.40   12.95
   3  -2   1  174.50   11.01
   3   2   1  144.03   14.71
  -3   2  -1  140.27   15.11
  -3  -2  -1  180.14   15.24
  -3  -2  -1  171.06   14.72
  -3  -2  -2  163.57   13.83
   3  -2   2  119.69   11.36
  -3   2  -2  137.73   13.43
  -3  -2  -2  156.72   14.28
  -3  -2  -2  112.94   10.35
   3  -2   2  153.77   10.25
   3  -2   2  108.01   10.97
   3   2   2  124.47   13.93
  -3   2  -2  156.41   15.32
  -3  -2  -2  161.15   14.25
  -3   2  -2  135.17   11.47
  -3  -2  -3   47.69    8.91
  -3   2  -3   41.30    8.04
  -3  -2  -3   42.19    7.04
   3  -2   3   34.02    7.15
   3  -2   3   25.04    6.75
   3   2   3   35.51    9.02
  -3   2  -3   42.64    7.37
  -3   2  -3   37.34    9.20
  -3  -2  -3   46.52    8.21
   3  -2   4  442.85   21.09
  -3   2  -4  541.08   25.03
  -3  -2  -4  405.43   19.12
  -3  -2  -4  612.97   25.23
   3   2   4  522.57   27.45
  -3   2  -4  652.52   22.96
  -3  -2  -4  631.93   27.96
  -3   2  -4  679.85   33.24
   3  -2   5  168.86   11.46
   3  -2   5  156.95    9.77
   3   2   5  169.76    9.88
   3  -2   5  146.68   13.20
  -3   2  -5  121.42   12.98
   3  -2   5  167.12   11.94
  -3  -2  -5  105.20   10.89
  -3  -2  -5  141.75   14.26
  -3  -2  -5  142.43   12.53
   3   2   5  113.72   14.25
  -3   2  -5  144.48   11.96
  -3   2  -5  111.47   16.09
   3  -2   6  664.93   21.98
   3  -2   6  702.21   18.70
  -3   2  -6  631.07   27.11
   3   2   6  721.23   13.39
   3   2   6  712.10   19.96
   3  -2   6  763.20   25.19
  -3  -2  -6  555.49   23.91
  -3  -2  -6  730.27   27.01
   3  -2   6  684.22   20.52
   3   2   6  548.99   29.54
  -3   2  -6  692.87   24.18
  -3   2  -6  346.26   26.18
  -3  -2  -6  659.32   21.98
  -3   2  -6  863.58   23.24
   3   2   6  692.43   21.89
  -3   2  -6  757.08   19.54
   3  -2   7 1145.90   29.40
   3  -2   7 1214.94   24.97
   3   2   7 1086.80   17.31
   3   2   7 1324.67   27.23
  -3  -2  -7 1324.61   36.58
  -3   2  -7 1056.05   35.24
   3  -2   7 1287.95   33.35
  -3  -2  -7  945.82   32.72
   3  -2   7 1139.57   26.03
   3   2   7  847.68   37.69
  -3  -2  -7 1243.27   28.73
  -3   2  -7 1405.46   31.18
  -3  -2  -7 1113.03   18.11
   3   2   7 1124.15   28.76
  -3   2  -7 1241.76   25.98
   3  -2   8  395.32   18.46
   3  -2   8  392.93   15.28
   3   2   8  435.78   10.97
   3   2   8  406.41   16.50
  -3  -2  -8  303.62   20.98
  -3   2  -8  329.62   21.60
   3  -2   8  436.59   20.66
  -3  -2  -8  426.21   12.53
   3   2   8  280.11   23.45
  -3   2  -8  531.62   19.81
  -3  -2  -8  412.98   11.57
  -3  -2  -8  409.23   18.50
   3   2   8  440.92   18.62
  -3   2  -8  441.40   16.71
   3  -2   9  197.97   13.65
   3  -2   9  125.61   10.76
   3   2   9  235.81   12.39
  -3   2  -9  147.23   16.33
   3  -2   9  211.11   15.28
  -3  -2  -9  148.42   16.88
  -3  -2  -9  207.74    9.56
   3  -2   9  140.69   17.42
   3   2   9  142.16   18.85
  -3   2  -9  241.04   14.78
  -3  -2  -9  225.20   14.29
  -3  -2  -9  191.03    8.45
   3   2   9  204.38   14.11
  -3   2  -9  225.48   12.66
  -3   2 -10   22.85    5.48
   3   2  10   24.24    5.90
  -3  -2 -10   20.87   10.13
   3  -2  10   25.74    6.01
  -3  -2 -10   25.92    5.65
   3   2  10   22.85    4.81
  -3   2 -10   17.38    9.21
   3  -2  10   27.78    6.76
  -3  -2 -10   20.60    3.99
   3  -2  10   17.85   11.10
   3   2  10   20.47   10.68
  -3   2 -10   20.91    6.20
  -3  -2 -10   16.22    3.31
  -3   2 -10   24.23    6.56
  -3   2 -10   19.59    8.72
   3  -2  11  118.72   12.14
   3  -2  11  230.12   14.58
   3   2  11  239.14   12.79
  -3   2 -11  229.02   20.22
   3  -2  11  256.54   16.43
  -3  -2 -11  157.05   17.70
  -3  -2 -11  258.45   10.34
  -3  -2 -11  224.37   16.23
   3  -2  11  123.47   17.24
   3   2  11  130.92   17.40
  -3   2 -11   65.75   18.02
  -3   2 -11  279.50   16.98
  -3   2 -11  226.75   19.69
  -3   2 -11  338.51   17.90
   3   2  11  282.14   15.37
   3  -2  12   51.12    7.85
   3  -2  12   23.82    6.40
  -3  -2 -12   36.50    8.80
   3   2  12   55.50    6.76
   3  -2  12   64.49    8.96
  -3  -2 -12   57.77    5.54
  -3   2 -12   34.54   11.53
  -3   2 -12   58.15    8.64
  -3   2 -12   65.68    9.34
   3   2  12   56.05    8.21
  -3   2 -12   46.50   10.89
   3   2  13   22.91    5.77
  -3  -2 -13   16.21    6.62
   3  -2  13    8.42    5.31
   3  -2  13   20.53    5.53
   3   2  13   20.86    4.82
   3  -2  13   20.91    6.25
  -3   2 -13   27.44    6.19
  -3  -2 -13   17.50    6.21
  -3  -2 -13   21.76    4.15
  -3   2 -13   17.49    6.51
  -3   2 -13   28.65    6.84
  -3   2 -13   17.79    7.89
  -3   2 -13   20.52    6.22
   3   2  14    3.26    4.01
   3  -2  14    7.03    4.48
   3   2  14    3.03    3.55
  -3   2 -14    0.29    5.53
   3  -2  14    2.28    4.34
  -3   2 -14    5.68    4.29
  -3  -2 -14   -0.99    4.42
  -3  -2 -14   -0.15    3.23
  -3   2 -14    2.78    3.64
  -3   2 -14    4.15    4.66
  -3   2 -14    1.53    9.88
  -3   2 -14    6.14    5.10
   3   2  15    8.43    4.26
   3  -2  15   13.46    4.76
   3   2  15    8.15    3.71
  -3   2 -15    1.67    5.71
   3  -2  15    3.53    4.45
  -3   2 -15   11.18    4.70
  -3  -2 -15    9.71    4.86
  -3  -2 -15    2.47    3.51
  -3  -2 -15    3.55   10.80
  -3   2 -15    8.27    4.01
  -3   2 -15    4.16   14.20
  -3   2 -15    6.36    4.86
   3   2  16   19.62    5.39
  -3  -2 -16   23.44    5.46
   3  -2  16   20.58    5.45
   3   2  16   20.18    4.40
  -3   2 -16   21.67    8.78
   3  -2  16   18.64    5.90
  -3   2 -16   24.78    5.64
  -3  -2 -16   22.93    5.89
  -3  -2 -16   11.85    4.06
  -3  -2 -16   17.62    5.19
  -3   2 -16   30.61    6.68
   3  -2  17  122.32   10.30
  -3  -2 -17  133.12    8.46
  -3   2 -17  121.76   18.40
  -3   2 -17  138.38   10.50
  -3  -2 -17  165.11   11.67
   3  -2  17  140.50   11.80
  -3   2 -17  164.61   11.87
   3   2  17  148.03   10.56
  -3  -2 -17  146.48   10.24
   3  -2  18   31.71    5.47
   3   2  18   30.54    5.94
  -3   2 -18   32.64    5.89
  -3   2 -18   38.71    8.59
  -3  -2 -18   26.98    6.32
  -3  -2 -18   30.41    4.73
   3  -2  18   29.75    5.85
  -3   2 -18   34.18    6.16
   3   2  18   34.92    5.48
  -3  -2 -18   34.64    5.49
   3   2  19    3.43    2.87
  -3  -2 -19    1.92    2.87
   3  -2  19    0.88    2.80
   3   2  19    0.15    3.43
   3  -2  19    4.43    3.04
  -3  -2 -19    3.06    3.46
  -3  -2 -19   -2.66    3.04
  -3   2 -19    3.63    3.18
   3   2  20   15.38    3.68
   3  -2  20   15.27    3.64
   3   2  20   16.55    3.92
  -3  -2 -20   27.54    4.76
   3  -2  20   12.85    3.95
  -3   2 -20   20.17    4.01
  -3  -2 -20   15.35    3.41
   3  -2  21   24.98    4.13
   3   2  21   26.67    4.50
  -3   2 -21   32.85    4.42
  -3  -2 -21   30.45    4.84
   3  -2  21   24.79    4.15
  -3  -2 -21   29.18    4.04
   3   2  21   29.35    3.94
  -3  -2 -22   45.11    4.88
   3  -2  22   34.90    4.01
   3   2  22   43.96    4.20
  -3   3  23   25.91    2.96
  -3   3  23   25.95    3.16
   3   3 -22   12.28    3.74
   3  -3 -22    6.22    3.24
  -3   3  22   18.82    3.08
   3  -3 -22   17.57    3.87
  -3   3  22   24.36    3.59
   3   3 -21    6.16    3.41
   3  -3 -21    5.88    2.83
   3  -3 -21   15.91    4.03
  -3   3  21   17.95    3.66
   3   3 -20   17.43    5.22
   3  -3 -20   13.31    4.33
   3  -3 -20   31.00    5.48
  -3   3  20   40.33    5.24
   3   3 -19    6.22    4.49
   3  -3 -19    3.11    3.62
   3  -3 -19   17.09    4.93
   3   3 -18    1.53    3.45
   3   3 -18    2.25    2.54
   3  -3 -18    0.65    3.22
  -3   3  18    0.57    2.59
   3  -3 -18   -0.73    3.52
  -3   3  18   -5.78    3.00
   3   3 -17    8.31    5.35
   3  -3 -17   19.88    5.37
  -3   3  17   40.19    4.73
   3  -3 -17   32.95    5.89
  -3  -3  17    7.52    8.02
  -3  -3  17    3.23    9.98
  -3   3  17   27.37    7.99
  -3   3  17   17.69    5.65
   3   3 -16    1.75    4.09
   3  -3 -16    0.51    4.03
  -3   3  16    5.83    3.11
   3   3 -16    6.98    5.48
   3  -3 -16    1.40    4.14
  -3  -3  16    0.06    7.15
  -3   3  16   -1.84    6.01
  -3   3  16    4.51    8.59
   3   3 -15    4.08    4.81
   3  -3 -15    5.29    4.32
  -3   3  15    7.56    3.10
   3   3 -15    4.77    6.02
   3  -3 -15    5.14    4.48
  -3  -3  15    2.76    4.18
  -3   3  15    2.17    4.06
   3   3 -14    4.44    4.66
  -3   3  14    5.64    3.46
   3  -3 -14    1.05    3.64
   3  -3 -14    3.58    4.22
   3   3 -14   -1.03    5.56
  -3  -3  14    1.05    4.98
  -3   3  14    3.39    3.79
   3   3 -13    3.15    4.16
  -3   3  13    7.79    3.32
   3  -3 -13    2.35    3.73
   3  -3 -13    1.41    3.02
   3   3 -13    3.41    5.29
   3  -3 -13    2.10    4.00
  -3   3  13    1.84    5.97
  -3  -3  13    2.86    9.08
  -3  -3  13   -5.51    5.47
  -3   3  13    3.20    4.38
   3   3 -12    7.56    4.78
  -3   3  12   21.83    4.51
   3  -3 -12    2.61    4.24
   3  -3 -12   21.88    4.26
   3  -3 -12   22.58    5.87
  -3   3  12   23.22    9.63
  -3  -3  12   10.00   11.83
   3   3 -12   18.64    7.21
  -3  -3  12    7.11    6.82
  -3   3  12   21.52    5.81
   3   3 -11   26.46    6.54
   3  -3 -11   56.09    5.13
   3  -3 -11   55.59    6.60
   3   3 -11   52.48   11.18
   3   3 -11   31.11    8.53
   3  -3 -11   56.96    8.68
  -3   3  11   62.08    9.77
  -3  -3  11   55.43   13.23
  -3  -3  11   31.80    9.57
  -3  -3  11   26.70    8.38
  -3   3  11   50.53    8.22
   3  -3 -10  120.15    9.47
  -3   3  10   87.41   14.78
  -3  -3  10  115.16   13.85
   3   3 -10  105.62   17.87
   3  -3 -10  110.25    6.81
   3   3 -10   64.16   10.90
   3  -3 -10  104.55   11.42
  -3   3  10  117.39    7.34
  -3  -3  10   81.14   14.09
  -3  -3  10   56.15   11.87
  -3  -3  10   69.76   11.56
  -3   3  10  110.55   10.99
   3   3 -10   79.57   10.14
   3  -3  -9  287.59   12.63
  -3   3   9  166.94   20.55
  -3  -3   9  205.34   19.29
   3   3  -9  193.05   21.62
   3  -3  -9  173.75    9.17
   3   3  -9  111.04   13.27
   3  -3  -9  173.35   13.78
  -3   3   9  185.05    9.45
  -3  -3   9  144.86   16.22
  -3  -3   9   91.16   15.20
  -3  -3   9  114.81   14.28
  -3   3   9  159.08   16.00
  -3   3   9  175.84   13.19
   3   3  -9  157.46   12.53
   3  -3  -8  366.26   13.67
   3  -3  -8  296.44   14.56
  -3   3   8  220.67   22.34
   3   3  -8  240.45   22.41
   3  -3  -8  237.10    9.84
   3   3  -8  189.00   15.21
   3  -3  -8  226.10   14.63
  -3  -3   8  138.28   17.42
  -3  -3   8  296.61   23.98
  -3  -3   8  169.92   16.63
  -3   3   8  200.28   18.32
   3   3  -8  217.61   14.23
   3  -3  -7  660.03   18.01
   3  -3  -7  597.70   19.76
  -3  -3   7  608.17   31.89
   3   3  -7  518.78   29.71
  -3   3   7  542.29   16.50
   3   3  -7  395.00   20.96
   3  -3  -7  437.79   19.89
  -3  -3   7  456.86   30.85
  -3   3   7  482.19   29.87
  -3  -3   7  368.91   25.97
  -3   3   7  503.51   27.25
   3   3  -7  477.94   20.34
   3  -3  -6  665.49   18.27
   3  -3  -6  599.47   19.81
  -3   3   6  519.79   30.06
   3   3  -6  502.75   28.54
   3   3  -6  359.57   19.95
  -3   3   6  494.46   17.56
   3  -3  -6  525.94   21.47
  -3  -3   6  540.74   33.64
  -3   3   6  539.47   21.94
  -3  -3   6  425.10   27.44
  -3   3   6  506.78   27.27
  -3  -3   6  658.10   32.53
   3   3  -6  497.74   20.46
   3  -3  -5   84.02    7.49
   3  -3  -5   77.82    8.32
  -3   3   5   69.10   12.43
  -3  -3   5   84.07   13.22
   3   3  -5   62.84   10.59
  -3   3   5   66.12    7.47
   3  -3  -5   69.28    8.54
  -3  -3   5   76.71   14.24
   3  -3  -5   76.77    8.45
  -3   3   5   60.05    7.98
  -3  -3   5   56.07   11.02
  -3   3   5   60.85   14.71
   3   3  -5   69.50    8.84
   3  -3  -4   55.80    6.79
   3  -3  -4   54.64    7.49
  -3   3   4   49.29   11.19
   3   3  -4   61.05    7.01
  -3  -3   4   53.01   11.74
   3   3  -4   35.45    8.04
   3  -3  -4   49.07    7.42
   3   3  -4   39.08   10.61
  -3  -3   4   51.13   13.11
  -3   3   4   39.57    6.51
   3  -3  -4   45.65    7.37
  -3  -3   4   44.90    9.41
  -3  -3   4   41.59    9.87
  -3   3   4   33.94   14.52
   3   3  -4   44.88    7.51
   3  -3  -3   71.84    8.40
   3  -3  -3   82.00   11.25
   3  -3  -3   87.30    7.75
   3  -3  -3   83.27    8.64
  -3   3   3   74.33   12.58
   3   3  -3   93.01    7.80
   3   3  -3   75.25   10.56
   3  -3  -3   70.35    8.91
   3   3  -3   72.28   11.51
  -3   3   3   80.54    8.05
  -3   3   3   65.65    7.67
   3  -3  -3   86.53    9.13
  -3  -3   3   69.73   11.83
  -3  -3   3   70.13   11.34
  -3   3   3   60.54   15.79
   3   3  -3   73.57    8.50
   3  -3  -2   77.17    8.74
   3  -3  -2   91.24   12.00
   3   3  -2   71.51    8.22
   3  -3  -2  113.48    8.67
  -3   3   2   99.69   13.87
   3  -3  -2   92.74    9.05
   3   3  -2   99.20    8.09
   3   3  -2   74.99   10.25
   3  -3  -2   94.71    9.71
   3   3  -2   70.98   12.50
  -3   3   2   81.12    8.39
  -3   3   2   60.85    8.17
   3  -3  -2  113.59    9.81
  -3  -3   2   77.29   12.43
  -3  -3   2   76.51   11.84
  -3   3   2   49.20   16.08
   3   3  -2   75.86    7.99
   3  -3  -1  318.68   14.94
   3   3  -1  301.45   15.06
   3  -3  -1  348.69   21.37
   3  -3  -1  350.40   14.02
  -3   3   1  295.56   22.11
   3  -3  -1  319.56   15.59
   3   3  -1  389.78   13.96
   3   3  -1  283.76   18.14
   3   3  -1  265.91   21.60
  -3   3   1  356.86   14.39
  -3  -3   1  324.08   23.10
  -3  -3   1  312.37   21.46
   3  -3  -1  392.99   16.96
  -3   3   1  224.67   21.72
   3   3  -1  300.80   13.72
   3  -3   0  122.40    9.95
  -3  -3   0  131.83   14.80
   3   3   0  191.93   11.88
   3  -3   0  124.04   13.90
   3  -3   0  149.34   10.28
  -3   3   0  135.54   15.84
   3  -3   0  131.45   10.83
   3   3   0  128.47   15.68
  -3   3   0  164.01   11.52
  -3  -3   0  138.68   15.75
  -3   3   0  141.95   11.41
   3  -3   0  141.50   11.50
  -3   3   0   78.84   17.02
   3   3   0  143.52    9.70
   3  -3   1   66.84    8.15
  -3   3  -1   84.75   12.78
   3   3   1   99.23    9.41
   3  -3   1   66.72   10.78
   3  -3   1   79.71    9.27
  -3  -3  -1   61.01    9.00
   3   3   1  130.13    8.78
   3   3   1   69.26   12.69
  -3   3  -1   91.40   10.49
  -3  -3  -1   92.19   12.65
  -3  -3  -1   75.72   11.27
  -3   3  -1   78.71    9.41
   3  -3   1   86.11    9.46
  -3   3  -1   44.67   14.99
   3   3   1   79.61    7.69
   3  -3   2   74.54    8.33
   3   3   2  120.35   10.08
   3  -3   2   99.25   12.90
  -3  -3  -2  103.14   13.54
   3  -3   2  105.64   10.40
  -3  -3  -2   75.63   10.53
   3   3   2  133.89    8.88
   3   3   2   94.70   14.73
  -3   3  -2  101.21   11.28
  -3   3  -2   95.98   13.83
  -3  -3  -2  107.48   13.78
  -3   3  -2  112.49   10.48
   3  -3   2  112.20   10.76
  -3   3  -2   59.87   15.52
   3  -3   2  112.34   10.16
   3   3   2  117.39    9.01
  -3  -3  -2  101.25   12.39
  -3  -3  -3   29.74    8.59
   3  -3   3   35.98    6.85
   3   3   3   56.31    7.92
  -3   3  -3   39.53    7.96
   3  -3   3   44.37    7.62
  -3   3  -3   44.97   10.94
   3   3   3   53.67    6.31
   3  -3   3   40.30    9.04
   3   3   3   48.28   12.88
  -3   3  -3   51.86   10.56
  -3   3  -3   52.71    7.86
  -3  -3  -3   52.90    9.52
   3  -3   3   59.14    7.96
  -3   3  -3   32.54   15.12
   3  -3   3   50.25    8.27
   3   3   3   58.80    6.87
  -3  -3  -3   47.39    9.64
   3  -3   4  264.85   13.80
   3   3   4  251.13    9.47
  -3   3  -4  244.54   17.08
   3   3   4  350.13   15.76
   3  -3   4  296.97   20.68
  -3   3  -4  266.27   22.21
   3  -3   4  302.24   16.19
  -3  -3  -4  203.82   17.18
   3   3   4  337.70   13.48
  -3  -3  -4  282.69   19.94
   3   3   4  245.03   23.52
  -3  -3  -4  295.75   21.83
  -3   3  -4  315.87   16.02
  -3   3  -4  333.77   16.61
  -3   3  -4  152.34   20.04
   3   3   4  345.02   14.23
   3  -3   4  293.29   14.59
   3  -3   5  227.13   12.97
   3   3   5  260.46    8.98
  -3   3  -5  203.83   16.37
   3   3   5  290.46   14.52
   3  -3   5  238.43   19.39
  -3   3  -5  228.48   21.25
   3  -3   5  266.00   15.27
  -3  -3  -5  178.26   17.64
   3   3   5  398.40   13.64
  -3  -3  -5  253.26   20.30
  -3  -3  -5  261.40   18.83
   3   3   5  208.62   22.62
  -3   3  -5  297.49   16.16
  -3   3  -5  284.01   15.40
   3   3   5  235.60   13.56
   3  -3   5  261.20   13.94
   3  -3   6 1067.58   26.50
   3  -3   6 1138.54   26.81
   3   3   6 1118.24   17.86
  -3   3  -6  944.75   35.15
   3   3   6 1151.09   28.00
   3  -3   6 1057.85   39.45
  -3   3  -6  994.93   40.12
   3  -3   6 1132.40   30.89
  -3  -3  -6  709.64   32.51
   3   3   6 1338.77   25.49
  -3  -3  -6 1247.68   38.72
   3   3   6  892.35   42.06
  -3   3  -6 1319.31   29.36
  -3   3  -6 1347.52   32.74
  -3  -3  -6 1014.86   19.77
   3   3   6  982.84   26.85
   3  -3   7  556.64   19.51
   3  -3   7  528.95   19.02
   3   3   7  571.48   13.06
  -3   3  -7  479.40   26.28
   3   3   7  640.96   21.25
  -3  -3  -7  668.81   28.51
   3  -3   7  520.35   28.83
  -3   3  -7  481.27   28.88
   3  -3   7  574.47   22.96
  -3  -3  -7  387.39   24.80
   3   3   7  418.22   30.52
  -3   3  -7  663.80   21.83
  -3   3  -7  733.48   24.70
  -3  -3  -7  534.76   14.41
   3   3   7  544.58   20.48
   3  -3   8  132.18   10.31
   3  -3   8   96.64    9.94
   3   3   8  156.59    6.79
  -3   3  -8  109.77   14.17
   3   3   8  173.58   11.51
   3  -3   8  139.43   11.92
  -3  -3  -8  117.79   14.37
  -3   3  -8  160.93   11.76
  -3   3  -8  161.75   12.82
  -3  -3  -8  140.68    7.62
   3   3   8  135.63   10.90
   3  -3   9  332.62   15.53
  -3   3  -9  282.31   22.47
   3   3   9  388.82   16.52
   3  -3   9  340.38   18.30
  -3  -3  -9  421.23   13.11
  -3   3  -9  365.34   16.70
  -3   3  -9  424.49   20.00
  -3  -3  -9  350.81   11.63
  -3  -3  -9  328.14   17.63
   3   3   9  235.36   14.58
   3  -3  10  132.60   10.54
  -3   3 -10  121.06   15.70
   3   3  10  176.56   11.36
   3  -3  10  157.77   12.81
  -3  -3 -10  189.46    9.22
  -3   3 -10  161.53   11.32
  -3  -3 -10  144.78   12.42
  -3   3 -10  186.13   14.04
  -3  -3 -10  151.31    7.87
   3   3  10  132.84   11.25
   3  -3  11   42.48    6.86
   3   3  11   52.57    6.93
  -3   3 -11   46.48   10.38
   3  -3  11   43.11    7.73
  -3  -3 -11   61.13    5.64
  -3   3 -11   51.60    7.03
  -3   3 -11   51.20    8.42
  -3  -3 -11   30.72    4.34
   3   3  11   44.01    7.33
   3   3  12    0.80    4.15
   3  -3  12   -2.38    4.27
   3   3  12    0.78    3.57
  -3   3 -12   11.97    4.80
   3  -3  12    1.99    4.18
  -3   3 -12    4.35    3.62
  -3  -3 -12    2.77    2.83
  -3   3 -12    0.27    3.51
  -3   3 -12    1.55    4.38
   3   3  13    7.69    4.40
   3  -3  13    3.87    4.23
   3   3  13    7.98    3.89
  -3   3 -13    4.11    5.68
   3  -3  13    5.09    4.32
  -3  -3 -13    8.24    4.95
  -3  -3 -13    4.91    3.33
  -3   3 -13    6.12    3.60
  -3   3 -13    4.81    4.91
   3   3  14    5.65    3.66
   3  -3  14    1.79    3.01
  -3   3 -14   -6.04    7.74
   3   3  14    4.16    3.29
   3  -3  14    3.72    3.96
  -3  -3 -14    1.98    4.25
  -3  -3 -14    1.65    2.89
  -3   3 -14    2.82    3.56
  -3   3 -14    1.28    3.80
   3  -3  15   54.17    6.36
   3   3  15   60.25    6.50
  -3   3 -15   54.06   12.80
  -3  -3 -15   59.06    8.23
   3  -3  15   60.51    7.98
  -3  -3 -15   38.92    5.78
  -3   3 -15   86.87    9.21
   3   3  15   68.94    7.70
  -3  -3 -16   72.91    7.58
   3   3  16   79.86    6.62
  -3   3 -16   58.95   11.36
  -3  -3 -16   92.68    8.69
   3  -3  16   72.13    8.40
  -3  -3 -16   75.86    6.68
  -3   3 -16  106.49    9.40
   3   3  16   77.31    7.87
   3   3  17   51.53    4.87
  -3  -3 -17   61.04    7.07
   3  -3  17   51.80    6.68
  -3  -3 -17   29.04    5.10
  -3   3 -17   74.66    7.30
   3   3  17   50.59    6.49
   3   3  18   18.61    4.13
   3   3  18   23.99    3.06
   3  -3  18   19.84    4.58
  -3  -3 -18   21.28    4.61
  -3  -3 -18   20.99    3.74
  -3   3 -18   27.76    4.58
   3   3  19    3.26    2.30
  -3   3 -19    2.34    2.98
   3  -3  19    2.00    2.44
  -3  -3 -19   -0.34    2.87
  -3  -3 -19    2.14    2.02
   3   3  20   14.49    3.05
   3  -3  20   15.26    3.35
  -3  -3 -20   15.29    3.32
   3   4 -20    5.97    2.73
  -3   4  20    9.02    2.74
  -3   4  20    8.34    2.57
   3   4 -19    9.24    3.18
  -3   4  19   14.19    3.18
   3  -4 -19    7.37    3.31
  -3   4  19   17.78    3.17
  -3  -4  19   12.15    2.94
   3  -4 -19   16.64    3.98
   3   4 -18    1.36    2.37
  -3   4  18    4.50    2.77
   3   4 -18    1.30    1.96
   3  -4 -18    1.29    2.50
  -3   4  18    7.67    2.22
  -3  -4  18    5.50    2.63
   3  -4 -18    6.97    2.91
   3   4 -17    3.65    3.09
  -3   4  17    9.09    3.35
   3  -4 -17    1.49    2.80
  -3   4  17    9.17    2.72
  -3  -4  17    3.17    2.28
   3  -4 -17    4.92    3.34
   3   4 -16   24.85    5.63
   3  -4 -16   29.46    5.16
  -3   4  16   61.21    5.25
   3  -4 -16   48.44    6.40
   3   4 -15    4.83    3.38
   3  -4 -15    2.65    3.30
  -3   4  15    8.05    2.69
   3  -4 -15    8.57    3.56
   3   4 -14   16.26    4.78
  -3   4  14   20.43    3.71
   3  -4 -14   15.15    4.45
  -3   4  14   30.96    4.41
   3  -4 -14   17.89    5.32
  -3   4  14   23.80    5.52
   3   4 -13   -0.40    3.79
  -3   4  13    4.00    2.55
  -3   4  13    5.12    2.96
   3  -4 -13    3.96    3.86
  -3   4  13    7.63    6.75
  -3   4  12  289.98   11.36
  -3   4  12  331.29   12.62
   3  -4 -12  298.20   14.34
  -3   4  12  199.79   15.16
   3   4 -12  233.73   14.25
  -3   4  11  175.15    9.86
   3  -4 -11  168.64   10.75
  -3   4  11  206.66   10.32
   3  -4 -11  143.25    7.80
  -3  -4  11   82.58   14.78
  -3   4  11  141.65   12.28
   3   4 -11  138.86   11.79
  -3   4  10  110.62    7.88
   3  -4 -10  134.93    9.42
   3  -4 -10   74.44    6.53
  -3   4  10   94.32    6.95
  -3  -4  10   52.13   11.34
  -3   4  10   90.42    9.52
   3   4 -10   96.36    9.58
  -3   4   9   46.79    5.76
   3  -4  -9   65.35    6.91
   3  -4  -9   32.81    4.72
  -3   4   9   51.57    5.39
  -3  -4   9   24.03    7.83
  -3   4   9   37.99    6.94
   3   4  -9   31.96    6.78
  -3   4   8  164.60    9.63
   3  -4  -8  237.23   11.80
  -3   4   8  181.58    9.79
   3  -4  -8  142.64    8.30
  -3   4   8  164.36    9.20
  -3  -4   8   84.74   14.23
  -3  -4   8  103.16   14.66
  -3   4   8  127.23   11.27
   3   4  -8  144.21   11.48
   3  -4  -7  105.69    8.30
  -3   4   7   82.17    7.49
  -3   4   7   88.33    7.02
  -3  -4   7   57.48   11.57
  -3  -4   7   59.36   11.03
  -3   4   7   60.73    7.83
   3   4  -7   81.34    8.88
   3   4  -6   19.80    5.13
   3  -4  -6   20.98    4.57
   3  -4  -6   25.19    5.08
  -3   4   6   16.88    4.30
  -3   4   6   17.12    3.77
  -3  -4   6   15.16    6.50
  -3  -4   6   15.93    6.82
  -3   4   6   15.64    5.09
   3   4  -5    3.85    3.54
   3  -4  -5    3.51    3.07
   3  -4  -5    6.76    3.90
   3   4  -5    5.44    3.07
  -3   4   5    4.72    3.51
  -3   4   5    3.66    3.14
  -3  -4   5    2.81    3.03
  -3  -4   5    1.00    5.81
  -3   4   5    3.73    5.48
   3  -4  -4  103.91    8.40
   3  -4  -4  160.54   10.50
   3   4  -4   88.01    7.91
  -3   4   4  124.40    8.84
  -3   4   4  123.55    8.33
   3  -4  -4  155.84   11.53
  -3  -4   4  120.84   15.13
  -3  -4   4  103.18   14.20
   3   4  -4  101.12    8.92
   3  -4  -3   33.78    5.23
   3  -4  -3   51.72    6.88
   3  -4  -3   34.70    9.50
  -3   4   3   31.22    5.54
   3   4  -3   23.34    5.23
  -3   4   3   32.48    5.30
   3  -4  -3   50.66    7.34
  -3  -4   3   54.47   10.41
  -3  -4   3   41.95    9.59
   3   4  -3   37.15    5.96
   3  -4  -2   46.77    6.51
   3  -4  -2   33.47    5.57
   3  -4  -2   31.43    8.72
  -3   4   2   32.34    5.47
   3   4  -2    7.90    4.15
   3  -4  -2   29.72    8.13
  -3   4   2   28.91    5.23
  -3  -4   2   26.85   11.75
   3  -4  -2   37.44    6.80
  -3  -4   2   34.06    7.96
   3   4  -2   22.63    4.63
  -3  -4   1  271.54   22.94
   3  -4  -1  247.52   20.91
   3  -4  -1  244.03   12.29
   3  -4  -1  283.08   14.17
   3   4  -1  232.86   11.57
  -3   4   1  297.47   13.46
   3  -4  -1  202.06   15.95
  -3   4   1  295.74   12.52
  -3   4   1  263.80   12.28
   3  -4  -1  298.99   16.19
  -3  -4   1  295.41   22.64
  -3  -4   1  273.66   12.04
   3   4  -1  202.75   11.52
  -3  -4   0  396.96   24.43
   3   4   0  275.95   13.85
   3  -4   0  363.66   24.98
   3  -4   0  307.20   14.22
   3  -4   0  381.92   16.82
   3   4   0  452.56   16.21
  -3  -4   0  394.94   27.44
  -3   4   0  454.20   16.73
  -3   4   0  415.18   14.68
  -3   4   0  414.87   15.25
  -3   4   0  434.68   17.52
  -3  -4   0  443.75   27.92
   3  -4   0  389.89   18.85
  -3  -4   0  434.06   14.65
   3   4   0  323.64   14.28
  -3  -4  -1  360.00   26.26
   3   4   1  262.32   13.82
   3  -4   1  321.18   24.01
   3  -4   1  282.67   13.77
   3  -4   1  328.17   15.93
  -3   4  -1  413.82   16.27
  -3   4  -1  394.14   14.35
  -3   4  -1  381.39   15.04
  -3   4  -1  388.02   17.01
   3  -4   1  412.84   18.87
  -3  -4  -1  367.74   23.66
   3   4   1  300.44   13.78
   3   4   2  381.57   16.93
   3  -4   2  463.26   28.53
   3  -4   2  404.18   16.09
   3  -4   2  501.97   19.41
   3   4   2  755.34   19.89
  -3   4  -2  583.76   18.96
  -3   4  -2  572.89   17.07
  -3   4  -2  534.25   18.18
  -3  -4  -2  577.88   29.46
  -3   4  -2  541.65   20.25
   3  -4   2  608.57   22.67
  -3  -4  -2  549.00   31.89
   3   4   2  466.75   16.78
  -3  -4  -3  126.65    8.91
   3   4   3   91.50    9.90
   3  -4   3  113.31   14.84
   3  -4   3   88.25    8.09
   3  -4   3  119.19   10.30
   3   4   3  111.57   10.24
  -3   4  -3   90.88    9.16
  -3  -4  -3  135.04   13.91
  -3  -4  -3  121.45   16.17
  -3   4  -3   76.80    7.79
  -3   4  -3   88.24    8.67
  -3   4  -3  104.11   10.25
   3  -4   3  133.95   11.39
   3   4   3  142.49    9.66
   3   4   4   87.99    6.10
  -3  -4  -4  115.50   13.57
  -3  -4  -4  131.61    8.62
   3   4   4  110.73    9.88
   3  -4   4   91.01   13.77
   3  -4   4   83.00    7.65
   3  -4   4  105.93    9.77
  -3  -4  -4  117.06   14.88
   3   4   4  142.93    9.33
  -3   4  -4   95.70    8.86
  -3   4  -4  107.17    8.18
  -3   4  -4  108.03    8.93
  -3   4  -4  115.89   10.45
   3  -4   4   97.79   10.63
  -3  -4  -5   -3.67    5.82
   3   4   5    0.96    2.13
  -3  -4  -5    3.13    3.15
   3   4   5    0.92    4.22
   3  -4   5   -0.73    3.34
   3  -4   5    1.88    3.93
   3  -4   5  -13.87    7.82
   3   4   5    0.73    3.13
  -3   4  -5   -1.07    3.46
  -3   4  -5    0.76    2.73
  -3   4  -5    1.92    3.42
  -3   4  -5    0.37    3.84
   3  -4   5    0.70    4.08
  -3  -4  -6   25.58    8.07
   3   4   6   17.82    3.14
  -3  -4  -6   30.87    4.84
   3   4   6   23.55    5.68
   3  -4   6   20.30    4.98
   3   4   6   35.86    5.16
   3  -4   6   17.80    5.45
   3  -4   6   15.94    7.35
  -3   4  -6   17.58    5.07
  -3   4  -6   23.43    4.49
  -3   4  -6   21.92    5.02
  -3  -4  -6   19.76    3.77
   3  -4   6   23.33    5.94
  -3   4  -6   20.19    5.72
   3   4   7   54.29    4.47
   3   4   7   57.13    7.59
   3  -4   7   53.33    7.57
   3  -4   7   46.27    9.74
  -3   4  -7   48.35    6.62
  -3   4  -7   40.55    5.04
  -3   4  -7   58.19    7.06
  -3   4  -7   59.68    8.26
  -3  -4  -7   53.83    5.34
   3  -4   7   57.14    7.87
   3   4   8   27.69    3.28
  -3  -4  -8   30.73    4.52
  -3   4  -8    8.45    6.62
   3   4   8   25.74    5.51
   3  -4   8   25.94    5.60
   3  -4   8   11.16    6.85
  -3   4  -8   26.13    5.06
  -3  -4  -8   31.40    4.57
  -3   4  -8   25.24    4.38
  -3   4  -8   24.27    5.29
  -3  -4  -8   28.99    3.97
   3  -4   8   25.59    5.60
  -3   4  -8   26.48    6.06
   3   4   9   27.95    5.45
   3   4   9   42.79    6.52
   3  -4   9   33.98    6.24
  -3   4  -9   31.27    5.58
  -3  -4  -9   56.63    5.35
  -3   4  -9   39.30    6.15
  -3   4  -9   42.21    7.18
  -3  -4  -9   36.21    4.39
   3   4  10  174.18   11.23
   3  -4  10  154.86   11.44
  -3   4 -10  139.48    9.68
  -3  -4 -10  219.27    9.55
  -3   4 -10  211.01   13.56
  -3  -4 -10  183.27    8.50
   3   4  10  141.88    9.94
   3   4  11    0.01    3.22
   3   4  11    2.25    2.78
   3  -4  11    0.66    2.99
  -3   4 -11   -0.16    2.78
  -3  -4 -11    0.49    2.41
  -3  -4 -11    0.39    1.85
  -3   4 -11    3.94    3.54
   3   4  12    2.56    3.20
   3   4  12    3.14    2.86
   3  -4  12   -0.82    2.85
  -3  -4 -12   -0.48    3.63
  -3   4 -12    3.38    2.90
  -3  -4 -12    3.63    2.73
  -3   4 -12    2.33    3.63
   3  -4  12    6.69    3.47
   3   4  13    5.73    3.44
   3   4  13    7.61    2.95
   3  -4  13    1.26    2.96
  -3  -4 -13    6.52    3.92
  -3  -4 -13    4.56    2.78
  -3   4 -13    5.77    3.76
   3  -4  13    6.00    3.06
  -3   4 -14   19.57    5.09
   3   4  14   27.17    4.45
  -3  -4 -14   23.36    5.15
   3  -4  14   26.56    4.85
  -3  -4 -14   33.59    4.37
  -3   4 -14   42.00    6.09
   3  -4  14   29.42    4.69
   3   4  14   31.57    4.63
   3   4  15   13.03    3.24
  -3   4 -15    9.23    4.02
   3   4  15   14.59    3.33
   3  -4  15   18.25    3.97
  -3  -4 -15   11.51    3.57
  -3  -4 -15   12.40    3.44
  -3   4 -15   21.24    4.69
   3  -4  15   16.88    3.40
  -3   4 -16   12.15    3.79
   3   4  16   13.50    2.75
   3  -4  16   17.99    3.62
  -3  -4 -16   17.19    3.36
  -3   4 -16   24.61    4.21
   3  -4  16   16.26    3.44
   3   4  16   16.08    3.25
   3   4  17    3.90    2.59
  -3   4 -17    0.31    2.55
   3   4  17    0.47    2.00
   3  -4  17    1.58    1.84
  -3  -4 -17    3.90    1.93
  -3   4 -17   -0.70    2.80
  -3   4 -18   -0.25    2.15
   3  -4  18    4.29    1.72
  -3  -4 -18    3.67    1.73
  -3  -5  16   20.80    2.85
   3  -5 -16    9.97    3.22
   3   5 -16   17.18    3.33
   3  -5 -15   22.00    4.47
  -3   5  15   46.99    4.08
  -3  -5  15   27.82    3.51
   3   5 -15   20.31    3.91
  -3   5  15   46.42    3.86
   3   5 -14   -1.63    2.10
  -3   5  14   -0.66    2.51
  -3   5  14    0.26    1.74
  -3  -5  14    0.35    1.46
   3  -5 -14    4.32    2.27
   3   5 -13    4.90    2.65
  -3   5  13   10.74    2.73
  -3   5  13    9.46    2.61
  -3  -5  13    5.60    2.00
   3  -5 -13    6.92    3.11
   3   5 -12   12.65    3.56
   3   5 -12    8.35    1.98
  -3   5  12   16.40    3.31
  -3  -5  12   12.70    2.64
   3  -5 -12   10.07    3.92
  -3   5  12   18.73    3.36
  -3   5  11   20.98    3.47
   3   5 -11   13.84    2.70
  -3   5  11   34.29    4.15
  -3  -5  11   18.14    3.41
   3  -5 -11   11.50    4.51
   3   5 -11   25.29    4.65
  -3   5  11   35.86    4.12
  -3   5  10   41.85    4.59
   3  -5 -10   68.52    5.88
  -3   5  10   68.54    5.61
  -3  -5  10   35.94    4.61
   3   5 -10   50.32    6.03
  -3   5   9  156.01    8.07
   3  -5  -9  191.58    9.38
  -3   5   9  196.22    9.01
   3  -5  -9  116.84    6.40
  -3  -5   9  108.88    7.71
   3   5  -9  163.89   10.09
  -3   5   8  149.81    7.98
   3  -5  -8  165.37    8.81
  -3   5   8  171.35    8.38
  -3   5   8  146.73    7.41
   3  -5  -8   94.43    6.08
  -3  -5   8   94.46    7.37
   3   5  -8  123.97    8.97
  -3   5   7   63.28    5.54
   3  -5  -7   63.50    6.08
  -3   5   7   68.03    5.88
  -3   5   7   65.22    5.48
   3  -5  -7   39.88    4.55
  -3  -5   7   46.66    5.37
   3   5  -7   58.65    6.70
   3   5  -6    2.75    2.87
  -3   5   6    3.73    2.57
  -3   5   6    2.90    2.69
   3  -5  -6    2.00    2.53
  -3  -5   6    2.46    3.15
   3  -5  -6    2.64    2.33
  -3   5   6   -2.31    2.72
   3   5  -5    8.97    3.11
  -3   5   5    5.71    2.89
  -3   5   5    5.32    2.90
   3  -5  -5    5.20    3.09
  -3   5   5    5.87    2.90
  -3   5   5    5.62    2.69
  -3  -5   5    3.94    2.24
  -3   5   4   19.43    3.73
   3  -5  -4   23.63    4.15
  -3   5   4   22.54    3.92
   3   5  -4   10.95    3.95
  -3   5   4   19.63    3.68
  -3   5   4   18.91    3.57
  -3  -5   4   17.41    3.47
   3   5  -4   22.70    4.41
   3   5  -3   12.18    3.71
  -3   5   3    9.05    3.10
  -3   5   3    9.10    2.99
   3  -5  -3   12.02    3.29
   3   5  -3    5.56    3.60
  -3   5   3   11.52    3.37
  -3   5   3   10.92    3.10
  -3  -5   3   11.37    2.96
   3   5  -2   -0.09    2.51
  -3   5   2    2.54    2.56
  -3   5   2    3.73    2.75
   3  -5  -2    4.51    3.38
   3   5  -2   -2.85    3.33
  -3   5   2    3.03    3.05
  -3   5   2    5.55    2.95
  -3  -5   2    0.59    2.08
  -3   5   1   52.10    5.26
   3  -5  -1   64.13    6.30
  -3   5   1   52.76    5.03
  -3   5   1   60.65    6.04
  -3   5   1   55.83    5.33
   3  -5  -1   58.52    7.27
  -3  -5   1   67.28    5.48
   3   5  -1   65.99    6.48
   3   5   0    7.37    3.36
  -3   5   0    3.09    2.86
  -3  -5   0    6.02    2.90
   3  -5   0    6.56    3.59
   3  -5   0   -5.28   10.73
   3   5   0    6.62    3.76
  -3   5   0    1.24    3.38
  -3   5   0    3.62    2.90
  -3   5   0    4.17    3.30
  -3  -5   0    6.63    2.50
   3  -5   0    5.79    3.96
  -3   5  -1   44.26    4.83
  -3   5  -1   66.38    6.21
  -3  -5  -1   66.47    5.71
   3  -5   1   63.88    6.03
   3  -5   1   35.28   10.55
   3   5   1   47.33    5.94
  -3   5  -1   55.97    5.30
  -3   5  -1   44.81    5.95
   3  -5   1   60.73    7.36
  -3  -5  -1   75.36    5.58
  -3   5  -2   17.72    3.51
   3   5   2    9.81    3.02
  -3  -5  -2   25.12    3.92
   3   5   2   12.87    4.46
   3   5   2   14.21    4.58
   3  -5   2   20.48    3.96
   3  -5   2   11.64    8.13
   3  -5   2   22.76    4.30
  -3   5  -2   21.37    4.32
  -3   5  -2   16.88    3.53
  -3  -5  -2   23.99    3.91
  -3   5  -2   16.77    4.38
   3  -5   2   18.74    4.67
   3   5   3   15.85    2.91
  -3   5  -3   19.20    3.33
  -3  -5  -3   26.99    4.07
   3  -5   3   26.67    4.21
   3   5   3   15.60    4.17
   3  -5   3   25.66    4.32
   3  -5   3   23.86    7.99
  -3   5  -3   20.99    4.38
   3   5   3   18.27    4.42
  -3   5  -3   19.62    3.65
  -3  -5  -3   19.64    3.21
  -3   5  -3   17.27    4.58
   3  -5   3   19.05    4.58
  -3   5  -4   -0.92    2.29
   3   5   4   -0.38    1.66
  -3  -5  -4   -0.37    2.17
   3   5   4   -2.83    3.07
   3  -5   4    0.17    2.68
   3  -5   4   11.17    4.28
   3  -5   4   -0.16    2.57
   3   5   4    0.86    2.62
  -3   5  -4    1.81    2.58
  -3   5  -4    0.14    2.13
  -3  -5  -4   -0.44    1.77
  -3   5  -4   -0.91    2.80
   3  -5   4    1.00    2.60
   3  -5   5   14.16    3.67
   3   5   5   10.14    2.30
  -3  -5  -5   17.72    3.31
   3   5   5    9.42    3.66
   3  -5   5   16.46    3.53
  -3   5  -5   12.48    3.81
  -3  -5  -5   12.00    3.00
  -3   5  -5   10.61    2.87
  -3  -5  -5   12.24    2.69
  -3   5  -5   10.99    3.69
   3  -5   5   15.55    4.19
   3   5   6    9.56    2.13
  -3  -5  -6   11.15    2.98
   3   5   6    5.24    3.21
   3  -5   6   10.73    3.13
   3  -5   6    8.55    3.17
  -3   5  -6    7.81    3.53
  -3  -5  -6   11.40    2.78
  -3  -5  -6   12.25    2.50
  -3   5  -6    8.23    3.65
   3  -5   6    9.90    3.81
   3   5   7    3.75    1.75
  -3  -5  -7    5.66    2.44
   3   5   7    4.30    2.98
   3  -5   7    6.41    2.68
   3  -5   7   10.28    3.18
  -3   5  -7    5.83    3.12
  -3  -5  -7    6.11    2.60
  -3  -5  -7    6.26    2.22
  -3   5  -7    5.27    3.14
   3  -5   7    7.76    3.46
  -3  -5  -8   19.07    3.41
   3   5   8   16.03    3.97
   3  -5   8   17.09    3.64
  -3   5  -8   19.86    3.79
  -3  -5  -8   27.60    3.44
  -3  -5  -8   17.68    2.91
   3  -5   8   18.82    4.35
  -3   5  -8   16.73    4.24
  -3  -5  -9   23.78    3.35
   3   5   9   17.97    4.19
   3  -5   9   29.27    3.97
  -3   5  -9   28.38    4.03
  -3  -5  -9   29.05    3.64
  -3  -5  -9   12.83    3.07
   3  -5   9   19.60    4.32
  -3   5  -9   21.73    4.59
   3   5  10   24.52    4.62
   3  -5  10   34.10    4.07
  -3   5 -10   40.51    4.32
  -3  -5 -10   42.43    4.24
  -3   5 -10   33.82    5.42
   3  -5  10   41.03    5.22
   3   5  11    7.40    3.12
   3  -5  11   12.90    2.90
  -3  -5 -11   15.01    2.87
   3  -5  11   19.23    3.61
  -3   5 -11    9.59    3.57
   3   5  12   11.36    2.96
   3  -5  12   16.10    3.34
  -3  -5 -12   18.60    2.82
  -3   5 -12   17.71    3.85
   3  -5  12   13.65    3.13
   3   5  13    5.09    2.33
  -3  -5 -13   11.11    2.50
  -3   5 -13    3.78    2.80
   3  -5  13    6.49    2.66
   3   5  14    2.17    1.50
  -3  -5 -14    6.32    1.93
  -3   5 -14    2.98    2.50
  -3  -6   9   44.29    3.07
   3   6  -9   61.42    4.14
   3   6  -8    9.61    2.40
   3   6  -8    2.26    1.41
  -3  -6   8    8.12    1.77
   3  -6  -8    1.82    2.49
   3   6  -7    2.08    1.84
  -3  -6   7   18.49    2.34
  -3   6   7   18.40    2.20
   3  -6  -7   -0.21    3.03
  -3  -6   7   12.32    1.55
   3   6  -7   30.11    3.37
   3   6  -6   10.82    2.51
  -3  -6   6   51.29    3.55
   3  -6  -6   46.34    4.10
  -3   6   6   39.75    3.06
  -3   6   6   41.79    3.51
   3  -6  -6   27.74    2.56
  -3  -6   6   42.80    2.95
   3   6  -6   78.85    5.03
   3   6  -5    1.30    1.58
  -3  -6   5    8.48    1.83
   3  -6  -5    8.94    2.40
   3  -6  -5    7.20    2.16
  -3   6   5    8.88    2.44
  -3  -6   5    6.54    1.93
  -3  -6   4   31.80    3.03
   3  -6  -4   29.14    3.40
  -3   6   4   32.90    3.28
   3  -6  -4   20.45    2.66
  -3  -6   4   28.32    2.80
   3   6  -3    2.15    1.66
  -3  -6   3   12.77    2.07
   3  -6  -3   19.81    2.98
   3  -6  -3   15.89    2.37
  -3   6   3    8.72    2.38
  -3  -6   2    2.12    1.52
   3  -6  -2    4.03    1.91
  -3   6   2    2.65    2.11
  -3  -6   2    5.95    1.56
   3   6  -1   18.71    2.71
  -3  -6   1   62.35    3.92
   3  -6  -1   62.17    4.29
  -3   6   1   41.30    4.07
   3  -6  -1   22.20    3.06
  -3  -6   1   55.80    3.37
   3   6   0   21.00    2.57
  -3  -6   0   46.09    3.34
   3  -6   0   52.72    4.10
  -3   6   0   19.55    3.28
  -3  -6   0   26.77    2.47
  -3  -6   0   46.06    3.06
   3   6   1   14.31    2.10
  -3  -6  -1   30.54    2.91
   3  -6   1   28.69    3.28
  -3  -6  -1   19.26    2.32
  -3   6  -1   12.22    2.76
  -3  -6  -1   35.74    2.66
   3   6   2    9.89    1.91
  -3  -6  -2   24.89    2.64
   3  -6   2   18.18    2.80
  -3  -6  -2   13.67    1.96
  -3   6  -2   10.87    2.82
  -3  -6  -2   23.24    2.22
   3   6   3   18.76    2.11
  -3  -6  -3   37.86    3.09
   3  -6   3   30.72    3.04
  -3   6  -3   30.46    3.48
  -3  -6  -3   27.03    2.54
  -3  -6  -3   42.23    2.85
  -3  -6  -4   66.20    3.77
   3  -6   4   49.02    3.23
  -3   6  -4   43.17    4.32
  -3  -6  -4   45.63    2.97
  -3  -6  -4   70.39    3.48
  -3  -6  -5   32.66    2.73
  -3   6  -5   25.94    3.54
  -3  -6  -5   27.42    2.54
  -3   6  -6   31.66    3.09
  -3  -6  -6   26.84    2.37
   4   0 -24   -1.27    2.23
  -4   0  23   30.43    4.39
   4   0 -23    6.15    3.92
   4   0 -22    0.35    3.71
   4   0 -21   11.80    5.02
   4   0 -20    2.04    3.94
   4   0 -19    2.84    3.74
   4   0 -19    6.96    4.61
  -4   0  19   12.11    8.26
   4   0 -18   20.02    5.02
   4   0 -18   13.88    5.86
  -4   0  18   24.94    9.84
   4   0 -17    9.45    4.91
   4   0 -17    7.39    5.29
  -4   0  17   16.45    8.66
   4   0 -16    8.67    3.65
   4   0 -16    5.16    4.44
   4   0 -16    2.50    5.29
  -4   0  16   18.88    5.89
   4   0 -15  134.97    8.55
   4   0 -15  169.85   10.75
   4   0 -15  139.51   12.75
  -4   0  15  190.42   15.23
   4   0 -14  538.12   15.63
   4   0 -14  646.89   19.33
   4   0 -14  554.15   22.65
  -4   0  14  820.49   29.61
  -4   0  14  778.61   27.82
   4   0 -13  460.14   14.52
   4   0 -13  563.25   17.88
   4   0 -13  482.62   20.68
   4   0 -13  353.25   24.53
  -4   0  13  681.34   26.31
   4   0 -12   56.96    5.53
   4   0 -12   36.98    5.90
   4   0 -12   36.39    7.01
   4   0 -12   40.35   10.74
  -4   0  12   60.81   11.82
  -4   0  12   52.87    8.25
   4   0 -11  125.71    7.72
   4   0 -11   94.76    8.05
   4   0 -11   87.66    9.57
   4   0 -11   74.18   12.96
  -4   0  11  138.32   15.68
   4   0 -10  379.93   12.69
   4   0 -10  345.82   13.53
   4   0 -10  288.93   15.85
   4   0 -10  281.84   18.93
  -4   0  10  319.41   20.73
  -4   0  10  379.10   23.08
   4   0  -9  137.11    7.84
   4   0  -9  110.72    8.22
   4   0  -9   98.52    9.85
   4   0  -9   82.45   11.15
  -4   0   9  128.64   12.36
  -4   0   9  128.27    9.92
  -4   0   9  128.12   13.83
   4   0  -8   34.03    4.55
   4   0  -8   27.13    4.94
   4   0  -8   25.20    6.57
   4   0  -8   20.27    6.48
  -4   0   8   35.82    7.75
  -4   0   8   35.76    4.98
   4   0  -7    1.58    2.96
   4   0  -7    3.41    3.63
   4   0  -7   -1.38    4.35
   4   0  -7    2.69    3.94
  -4   0   7    2.95    4.33
  -4   0   7    1.86    2.93
   4   0  -6   96.66    6.58
   4   0  -6   89.36    7.15
  -4   0   6  102.71   11.26
  -4   0   6   79.87    7.74
   4   0  -5    8.40    3.04
   4   0  -5    3.73    1.86
   4   0  -5    2.81    3.15
   4   0  -5    9.01    3.71
   4   0  -5    4.45    3.92
  -4   0   5    7.59    3.26
   4   0  -4   38.49    4.50
   4   0  -4   33.21    3.71
   4   0  -4   41.76    4.78
   4   0  -4   27.95    6.14
  -4   0   4   30.12    5.46
   4   0  -3  198.60    8.44
   4   0  -3  199.20    7.45
  -4   0   3  225.98   13.45
   4   0  -3  231.34    9.42
  -4   0   3  195.42   11.61
   4   0  -2   19.75    3.41
   4   0  -2   16.00    4.52
  -4   0   2   15.49    4.24
   4   0  -2    7.33    4.22
  -4   0   2   16.07    4.43
   4   0  -1  115.87    7.72
   4   0  -1  199.62    9.47
  -4   0   1   98.05    8.93
   4   0  -1  109.41    9.52
   4   0  -1  135.81    9.61
  -4   0   1  210.86   11.56
   4   0  -1  145.60    9.80
   4   0   0 1270.52   20.93
   4   0   0 1337.78   19.06
  -4   0   0 1225.05   29.03
   4   0   0 1298.89   27.90
  -4   0   0 1416.10   31.41
  -4   0   0 1378.90   28.49
   4   0   0 1362.38   28.53
   4   0   0 1511.67   31.05
   4   0   1  430.13   17.37
   4   0   1  314.92   10.95
   4   0   1  382.09   10.52
  -4   0  -1  281.89   15.46
   4   0   1  355.05   15.30
   4   0   1  206.09   17.72
  -4   0  -1  382.52   17.49
  -4   0  -1  415.77   16.43
   4   0   1  394.74   16.44
   4   0   2  285.18   15.00
   4   0   2  201.15    9.32
   4   0   2  263.76    9.04
  -4   0  -2  188.13   12.78
   4   0   2  202.88   11.84
   4   0   2  138.54   15.15
  -4   0  -2  237.70   14.34
  -4   0  -2  258.77   13.53
   4   0   2  241.93   13.02
   4   0   3  206.11   13.74
   4   0   3  185.13    7.69
  -4   0  -3  138.77   11.49
   4   0   3  131.74   15.53
  -4   0  -3  153.64   11.52
   4   0   3  168.50   11.95
   4   0   4   38.88    8.10
   4   0   4   34.58    4.18
  -4   0  -4   29.52    6.42
  -4   0  -4   27.35    5.66
   4   0   4   26.83    9.02
   4   0   4   33.73    6.88
   4   0   5   26.04    6.22
   4   0   5   21.60    3.73
   4   0   5   29.43    7.68
  -4   0  -5   19.91    5.53
  -4   0  -5   18.84    5.86
   4   0   5   12.31    9.52
   4   0   6   -1.16    4.50
   4   0   6    0.93    2.53
   4   0   6   -2.28    5.68
  -4   0  -6   -4.27    4.27
  -4   0  -6    2.92    6.16
   4   0   6    6.19    9.78
   4   0   7   23.88    5.59
   4   0   7   18.51    3.82
  -4   0  -7    9.31    5.39
   4   0   7   19.32    6.55
  -4   0  -7   12.54    7.97
  -4   0  -7   14.89    5.43
   4   0   7   14.18   12.03
   4   0   8    4.25    3.99
  -4   0  -8    3.63    4.79
   4   0   8    4.66    2.86
   4   0   8    6.14    4.60
  -4   0  -8   -3.90    7.33
  -4   0  -8    0.93    4.12
   4   0   8   -5.30   11.17
   4   0   9    4.20    3.46
  -4   0  -9   -1.92    6.11
   4   0   9   -0.16    2.70
   4   0   9    4.18    4.81
  -4   0  -9  -10.95    6.06
  -4   0  -9   -0.17    3.74
   4   0  10  336.01   19.86
   4   0  10  252.63   12.51
  -4   0 -10  334.35   16.42
  -4   0 -10  189.52   18.96
   4   0  10  244.78   14.48
  -4   0 -11   35.50    6.59
   4   0  11   40.64    8.39
   4   0  11   27.58    6.40
  -4   0 -11   27.84    6.86
   4   0  11   33.85    6.38
  -4   0 -11   19.67    9.08
   4   0  12   12.46    4.54
  -4   0 -12   10.28    5.01
   4   0  12    8.55    6.07
   4   0  12   13.96    6.39
  -4   0 -12   10.27    5.20
  -4   0 -12    5.25   10.40
   4   0  13   12.47    4.58
  -4   0 -13    8.89    4.78
   4   0  13   13.42    5.72
  -4   0 -13    8.25    4.77
  -4   0 -13    6.86   10.44
   4   0  14   -0.70    3.57
  -4   0 -14    1.77    4.09
   4   0  14    3.79    4.62
  -4   0 -14   -0.06    4.04
  -4   0 -14   -1.25   12.67
   4   0  15    0.24    2.99
  -4   0 -15    1.59    3.79
   4   0  15    0.80    4.34
  -4   0 -15    0.88    3.82
  -4   0 -15    1.37    9.38
  -4   0 -16   14.11    4.88
   4   0  16   19.40    5.45
  -4   0 -16   18.13    4.91
  -4   0 -16    8.74    6.57
   4   0  16   21.57    4.34
  -4   0 -17   14.07    4.89
   4   0  17   18.20    5.10
  -4   0 -17   17.70    4.94
  -4   0 -17    6.82    4.49
   4   0  17   18.77    3.91
  -4   0 -17   12.83    4.91
   4   0  18   -0.92    2.16
   4   0  18    0.24    3.13
  -4   0 -18    0.92    3.07
  -4   0 -18   -1.29    3.21
   4   0  19   10.61    3.55
  -4   0 -19   15.24    3.41
   4   0  19   15.15    3.11
   4   0  20    4.53    2.61
  -4   0 -20    5.02    2.82
   4   0  21  106.06    6.51
  -4   0 -21  138.15    7.00
   4   1 -23    9.20    4.12
   4  -1 -23    6.34    4.10
   4   1 -22    3.77    3.13
   4  -1 -22    2.33    2.97
   4   1 -21    7.88    4.25
   4  -1 -21   -0.14    3.70
   4   1 -20   15.34    6.42
   4  -1 -20   25.13    6.52
   4   1 -19    7.92    5.50
   4  -1 -19   11.73    5.31
   4   1 -18  103.75    9.11
   4  -1 -18  106.35    8.04
   4   1 -18   71.83   10.36
   4  -1 -18   58.81    9.80
  -4  -1  18  134.52   15.13
  -4   1  18  152.09   14.04
  -4   1  18  159.28   14.68
   4   1 -17   11.79    3.14
   4   1 -17    9.24    4.63
   4  -1 -17    5.38    3.92
   4   1 -17    3.89    4.98
   4  -1 -17    1.47    4.82
  -4  -1  17    4.95    8.57
  -4   1  17   17.09    7.79
  -4   1  17   11.49    7.82
   4   1 -16   15.23    3.72
   4  -1 -16    6.22    4.48
   4   1 -16   17.54    5.23
   4  -1 -16   13.23    4.62
   4   1 -16   10.17    5.96
   4  -1 -16   11.83    5.55
  -4  -1  16   11.03    7.08
  -4   1  16   32.56    6.74
   4   1 -15  114.71    7.67
   4  -1 -15   58.06    7.76
   4   1 -15   64.98    8.76
   4  -1 -15   72.07    7.64
   4   1 -15   55.22    9.90
   4  -1 -15   66.35    9.66
  -4   1  15  122.05   12.55
   4   1 -14   99.08    7.41
   4   1 -14   61.31    8.17
   4  -1 -14   68.98    7.35
   4   1 -14   57.95    9.40
   4  -1 -14   64.66    9.21
  -4   1  14  113.83   12.39
  -4   1  14  102.66   11.77
  -4  -1  14  101.39    9.97
   4  -1 -13  105.21    8.12
   4   1 -13  174.92    9.18
   4   1 -13  196.55   22.14
   4   1 -13  140.54   10.75
   4  -1 -13  144.71    9.70
   4   1 -13  121.94   12.23
   4  -1 -13  166.21   12.56
   4  -1 -13   92.39   13.43
  -4  -1  13  197.61   16.13
  -4   1  13  239.46   17.30
  -4   1  13  116.02   14.92
   4  -1 -12  121.03    8.42
   4   1 -12  183.55    9.47
   4   1 -12  131.57   19.29
   4   1 -12  145.33   10.51
   4  -1 -12  128.65    9.13
   4   1 -12  110.55   11.35
   4  -1 -12  153.95   12.05
   4  -1 -12   91.86   13.17
  -4   1  12  190.82   16.80
  -4  -1  12  193.30   13.38
  -4   1  12   99.23   14.36
   4  -1 -11   68.28    6.64
   4   1 -11  102.71    7.19
   4   1 -11   76.85   16.59
   4   1 -11   60.96    7.50
   4  -1 -11   67.97    6.91
   4   1 -11   55.19    8.21
   4  -1 -11   75.22    8.57
   4  -1 -11   59.13   11.29
  -4   1  11   89.67   12.94
  -4  -1  11   90.88    9.28
  -4   1  11   60.39   11.14
   4  -1 -10   42.46    5.25
   4   1 -10   64.22    5.69
   4   1 -10   56.46   13.11
   4   1 -10   35.47    6.04
   4  -1 -10   55.57    5.76
   4  -1 -10   44.70    6.91
   4   1 -10   27.64    6.47
   4  -1 -10   38.33    8.74
  -4  -1  10   55.47    8.29
  -4  -1  10   32.89    8.63
  -4   1  10   55.38   11.50
  -4  -1  10   46.74   11.06
  -4  -1  10   64.21    7.53
  -4   1  10   42.06    9.87
   4  -1  -9   10.53    3.64
   4   1  -9   12.84    3.26
   4   1  -9   10.42    7.05
   4   1  -9    6.63    4.23
   4  -1  -9   12.51    3.72
   4   1  -9    0.67    4.49
   4  -1  -9   12.22    4.84
   4  -1  -9    5.65    5.11
  -4   1   9    9.15    6.19
  -4  -1   9   15.30    4.25
  -4  -1   9    9.18    8.11
  -4   1   9   17.81    7.43
  -4  -1   9    4.03    7.30
   4  -1  -8  254.80   10.99
   4   1  -8  326.22   11.40
   4   1  -8  282.14   22.49
   4   1  -8  241.02   12.19
   4  -1  -8  358.41   12.37
   4   1  -8  225.41   14.35
   4  -1  -8  310.17   14.85
   4   1  -8  157.85   16.11
   4  -1  -8  277.45   16.37
  -4   1   8  255.13   18.87
  -4   1   8  273.08   21.57
  -4  -1   8  257.13   14.07
  -4  -1   8  269.06   25.02
  -4   1   8  301.53   20.45
   4  -1  -7   26.84    4.59
   4   1  -7   37.03    4.78
   4   1  -7   45.72    4.43
   4  -1  -7   42.57    6.50
   4   1  -7   29.44    8.50
   4   1  -7   27.44    5.53
   4  -1  -7   57.63    5.60
   4  -1  -7   46.49    6.99
   4   1  -7   37.37    7.88
   4  -1  -7   35.02    6.55
   4   1  -7   17.54    6.93
  -4   1   7   33.12    7.87
  -4   1   7   31.05    8.59
  -4  -1   7   34.10    5.66
  -4  -1   7   39.13   12.35
  -4   1   7   39.20    8.23
   4  -1  -6  156.88    8.91
   4   1  -6  201.09    9.20
   4   1  -6  199.52    7.79
   4  -1  -6  198.74   11.66
   4   1  -6  201.48   17.89
  -4  -1   6  184.45   15.14
   4   1  -6  121.30    9.36
   4  -1  -6  270.20   10.45
   4  -1  -6  226.85   11.92
   4   1  -6   87.39   11.67
   4  -1  -6  187.08   12.80
  -4   1   6  180.13   15.03
  -4   1   6  165.75   13.86
  -4  -1   6  145.75   10.86
  -4  -1   6  193.87   20.09
   4  -1  -5  110.72    7.77
   4   1  -5  150.63    7.67
   4  -1  -5  116.52    7.39
   4   1  -5  137.10    6.55
  -4  -1   5  119.06   12.10
   4  -1  -5  133.94    9.79
   4   1  -5  128.10   14.24
   4   1  -5   83.48    7.74
   4  -1  -5  173.12    8.35
   4  -1  -5  132.60   10.63
   4   1  -5   41.16    9.18
  -4   1   5  113.08   12.17
  -4   1   5   87.41   10.96
  -4  -1   5  108.14    9.38
  -4  -1   5  134.11   16.64
   4  -1  -4   25.56    4.91
   4   1  -4   44.27    4.79
   4  -1  -4   33.75    4.94
   4   1  -4   42.21    4.00
   4  -1  -4   48.97    6.55
   4  -1  -4   53.45    5.31
   4   1  -4   26.87    5.52
   4  -1  -4   42.15    6.62
   4   1  -4   13.82    6.30
  -4  -1   4   38.35    7.43
  -4   1   4   36.17    7.70
  -4   1   4   17.90    6.68
  -4  -1   4   34.47    5.59
   4  -1  -3   57.58    6.12
   4   1  -3   73.02    5.86
   4  -1  -3   67.93    5.90
   4   1  -3   79.94    5.01
  -4  -1   3   78.73    9.93
   4  -1  -3   83.07    7.77
   4   1  -3   53.61    6.29
   4  -1  -3  100.98    6.42
   4  -1  -3   77.52    8.13
   4   1  -3   32.21    7.51
  -4   1   3   73.88    9.70
  -4   1   3   55.65    8.92
  -4  -1   3   70.76    7.64
  -4  -1   3   74.63    8.93
   4  -1  -2   55.02    5.86
   4   1  -2   69.49    5.15
   4  -1  -2   74.58    6.07
   4   1  -2   73.30    5.03
  -4  -1   2   68.80    9.60
   4   1  -2   65.83    7.11
   4  -1  -2   69.66    7.36
   4   1  -2   70.53    6.16
   4  -1  -2   81.48    5.83
  -4   1   2   74.37    7.64
   4  -1  -2   60.69    7.31
   4   1  -2   34.75    7.69
   4   1  -2   33.45    8.73
  -4   1   2   66.29    9.61
  -4   1   2   64.51    9.77
  -4  -1   2   47.83    6.43
  -4  -1   2   67.69    8.71
   4   1  -2   62.84    6.82
   4  -1  -2   76.80    8.29
   4  -1  -1  170.02    8.88
   4   1  -1  203.39    8.26
   4  -1  -1  160.33    8.17
   4   1  -1  231.32    8.11
   4   1  -1  210.11   11.26
   4  -1  -1  227.90   12.35
   4  -1  -1  279.42    9.63
  -4   1   1  178.85   11.40
   4   1  -1  124.98   12.14
   4  -1  -1  235.68   12.77
   4   1  -1  137.17   14.18
  -4   1   1  209.65   15.30
  -4   1   1  191.25   14.81
  -4  -1   1  187.03   12.27
  -4  -1   1  222.22   14.48
  -4  -1   1  215.94   16.01
   4   1  -1  206.76   11.81
   4  -1  -1  247.48   13.52
   4   1   0   57.14    4.69
   4  -1   0   39.16    5.29
   4   1   0   57.79    4.64
   4   1   0   60.04    7.00
   4  -1   0   66.69    7.64
  -4  -1   0   36.27    7.00
   4  -1   0   70.49    5.54
  -4   1   0   76.87    8.96
   4  -1   0   67.86    7.57
  -4  -1   0   62.83    8.71
   4   1   0   32.84    7.41
  -4  -1   0   57.18    9.16
   4   1   0   43.80    9.48
  -4   1   0   57.93   10.23
  -4  -1   0   59.96    7.53
   4   1   0   64.70    7.13
   4  -1   0   70.40    8.61
   4   1   1  326.41   10.22
   4  -1   1  347.18   11.89
   4   1   1  354.61    9.94
   4   1   1  372.51   14.90
   4  -1   1  381.39   16.20
  -4  -1  -1  200.53   12.98
  -4  -1  -1  328.59   17.54
  -4  -1  -1  308.18   19.40
  -4   1  -1  262.98   14.82
   4  -1   1  384.46   11.14
   4  -1   1  323.22   14.62
   4   1   1  252.76   19.65
  -4   1  -1  344.17   19.04
  -4  -1  -1  345.57   16.16
   4   1   1  340.29   15.08
   4  -1   1  384.98   17.11
   4   1   2   50.49    7.57
   4  -1   2   62.79    8.50
   4  -1   2   48.94    5.62
   4   1   2   55.60    4.56
   4   1   2   50.36    6.90
   4  -1   2   60.93    8.07
  -4  -1  -2   48.49    7.58
  -4  -1  -2   27.85    5.93
  -4   1  -2   29.56    6.72
   4  -1   2   42.26    6.06
   4   1   2   37.02    9.37
  -4   1  -2   36.61    8.20
  -4  -1  -2   47.28    6.75
   4  -1   2   55.08    7.37
   4   1   2   54.33    8.13
   4  -1   3   67.41    8.77
   4   1   3   63.43    8.78
  -4   1  -3   30.45    7.18
   4  -1   3   55.62    5.86
   4   1   3   57.91    4.63
   4   1   3   55.90    7.11
  -4  -1  -3   50.48    8.25
   4  -1   3   67.82    8.69
  -4  -1  -3   31.78    6.25
   4  -1   3   61.42    6.76
   4   1   3   39.80   10.41
  -4   1  -3   43.19    7.99
  -4   1  -3   43.06    8.54
  -4  -1  -3   56.19    7.41
   4  -1   3   58.83    7.40
   4   1   3   57.65    8.06
  -4   1  -4  188.17   10.47
   4  -1   4  166.56   12.68
   4   1   4  159.15   12.64
   4  -1   4  141.38    8.74
   4   1   4  142.39    6.86
   4   1   4  136.94   10.00
   4  -1   4  167.90   12.55
  -4  -1  -4   86.30   10.47
  -4   1  -4   60.23   10.81
   4  -1   4  103.68   14.30
   4   1   4  100.48   15.29
  -4   1  -4  127.56   12.34
  -4   1  -4  101.63   12.48
  -4  -1  -4  146.09   11.73
   4  -1   4  127.58   10.13
  -4  -1  -4  138.06   11.01
   4   1   4  150.58   11.55
  -4   1  -5   16.92    6.93
   4  -1   5   44.91    7.67
   4  -1   5   28.95    5.08
   4   1   5   34.80    3.86
   4   1   5   41.01    8.66
   4   1   5   32.85    5.41
   4  -1   5   38.45    7.76
  -4   1  -5   38.72    9.15
  -4  -1  -5   18.33    7.18
   4  -1   5   16.67   11.02
   4   1   5   19.51   10.80
  -4   1  -5   32.22    7.45
  -4   1  -5   25.75    7.80
  -4  -1  -5   29.79    6.53
  -4  -1  -5   37.42    6.52
   4  -1   5   29.64    5.76
   4   1   5   34.89    6.60
  -4   1  -5   38.52    6.49
   4  -1   6  307.12   17.13
   4   1   6  286.51   16.75
   4  -1   6  271.04   12.22
   4   1   6  281.16    9.46
   4   1   6  234.86   12.12
   4  -1   6  323.92   17.16
  -4   1  -6  229.00   18.88
  -4  -1  -6  173.88   16.32
  -4   1  -6  159.51   16.89
   4  -1   6  168.32   21.92
   4   1   6  167.81   21.60
  -4   1  -6  245.90   17.49
  -4   1  -6  175.04   18.06
  -4  -1  -6  244.63   16.16
  -4  -1  -6  270.67   15.78
   4  -1   6  232.52   13.03
   4   1   6  256.35   15.52
  -4   1  -6  283.47   13.18
   4  -1   7  115.81   11.33
   4   1   7  116.15   11.28
   4  -1   7   81.68    8.55
   4   1   7  105.33    6.21
   4   1   7  108.28    8.42
   4  -1   7  123.05   11.18
  -4   1  -7   85.03   12.28
  -4  -1  -7   70.50   12.05
  -4   1  -7   65.36   11.73
   4  -1   7   66.20   17.85
   4   1   7   67.66   15.79
  -4   1  -7   91.45   12.57
  -4  -1  -7   98.89   10.63
  -4   1  -7   63.93   11.01
   4  -1   7   96.14    8.67
   4   1   7  100.84   10.27
  -4   1  -7  101.80    8.70
   4  -1   8    1.42    3.20
   4   1   8    2.12    3.98
  -4   1  -8    3.09    3.61
   4  -1   8    4.08    6.97
   4   1   8    3.81    2.38
   4  -1   8    3.09    4.33
   4   1   8    1.09    4.89
  -4  -1  -8    7.74    5.02
   4   1   8    6.17    3.43
  -4   1  -8    4.17    3.65
  -4  -1  -8   -2.99    5.56
   4  -1   8   10.79    5.55
   4  -1   8   12.82    9.17
   4   1   8    7.97    6.86
  -4   1  -8    0.93    6.06
  -4   1  -8    2.44    5.11
   4  -1   9  304.52   18.00
   4   1   9  256.22   16.76
   4  -1   9  199.20   14.03
   4   1   9  257.58    9.90
   4   1   9  287.30   13.16
   4  -1   9  271.70   17.24
  -4  -1  -9  268.92   18.25
  -4   1  -9  149.90   19.26
  -4   1  -9  221.85   15.58
   4  -1   9  252.04   13.08
   4   1   9  316.86   16.40
  -4   1  -9  257.90   14.32
   4  -1  10   77.63   10.06
   4   1  10   63.00    9.31
   4   1  10   67.55    5.94
  -4  -1 -10   44.18   10.08
   4  -1  10   24.65    8.19
   4   1  10   66.80    7.07
  -4  -1 -10   70.08    9.49
   4  -1  10   57.61    8.87
  -4   1 -10   38.07   16.33
  -4   1 -10   53.98    9.45
   4  -1  10   59.04    6.77
   4   1  10   70.98    8.91
  -4   1 -10   63.50    8.16
   4  -1  11   39.64    7.74
   4   1  11   36.55    7.93
   4   1  11   35.80    4.97
  -4  -1 -11   17.04    7.33
   4  -1  11   15.51    5.90
   4   1  11   30.74    5.28
  -4   1 -11   32.14    6.37
   4  -1  11   31.22    7.07
  -4  -1 -11   28.11    7.20
  -4   1 -11   31.86    9.52
   4  -1  11   34.50    5.65
   4   1  11   36.53    7.02
  -4   1 -11   34.27    6.66
   4  -1  12    3.93    3.44
   4   1  12    2.98    4.21
  -4   1 -12    1.29    3.78
  -4  -1 -12    7.07    5.62
   4  -1  12    1.44    4.38
   4  -1  12    2.16    4.48
   4   1  12    5.98    5.18
   4   1  12    0.69    3.13
   4  -1  12    5.68    4.54
  -4   1 -12    5.47    4.63
  -4  -1 -12    5.65    4.66
  -4   1 -12    1.70    8.99
  -4   1 -13   11.22   14.25
   4   1  13   28.45    6.08
  -4   1 -13   23.80    5.89
   4  -1  13   21.31    6.37
   4   1  13   27.43    7.10
   4   1  13   24.86    4.55
   4  -1  13   27.42    6.71
  -4   1 -13   31.21    5.99
  -4  -1 -13   16.04    6.10
  -4   1 -13   21.23    9.46
   4  -1  13   25.20    5.13
  -4  -1 -13   21.58   11.26
   4  -1  14   17.35    4.02
  -4   1 -14   11.10    4.81
   4   1  14   13.97    5.02
  -4  -1 -14    9.90    4.89
   4  -1  14   12.49    5.15
   4   1  14   12.16    5.19
   4  -1  14   12.21    5.42
  -4   1 -14   12.81    4.61
  -4  -1 -14    8.98    5.13
  -4   1 -14   10.86   15.19
  -4   1 -14   12.90    6.43
  -4   1 -14   12.13    5.46
  -4   1 -15    9.07    4.52
   4   1  15   11.17    4.10
  -4  -1 -15    9.86    4.43
   4  -1  15   11.10    4.44
   4   1  15   10.03    4.78
   4  -1  15   10.97    4.63
  -4   1 -15   16.54    4.57
  -4  -1 -15   10.97    4.72
  -4   1 -15    5.92    4.95
  -4  -1 -15   11.05   12.76
  -4   1 -15   10.82    5.33
   4  -1  15   15.54    3.84
  -4  -1 -16   27.43    5.97
   4   1  16   30.72    6.38
   4  -1  16   24.53    5.84
  -4   1 -16   35.24    5.47
  -4  -1 -16   27.37    6.04
   4  -1  16   35.07    5.84
  -4   1 -16   30.10    7.36
  -4   1 -16   12.24    5.72
  -4  -1 -16   13.69    9.76
  -4   1 -16   34.69    6.79
   4   1  16   37.79    5.55
   4   1  17   -4.19    2.78
  -4  -1 -17    0.81    3.21
   4  -1  17    1.91    2.97
   4   1  17   -0.46    3.08
   4  -1  17   -2.11    2.85
  -4   1 -17    3.22    2.96
  -4  -1 -17    1.42    3.10
  -4  -1 -17    0.55    4.17
  -4   1 -17    2.85    3.79
   4   1  18    2.03    2.49
  -4  -1 -18    3.93    3.14
   4  -1  18    1.05    2.60
   4   1  18    1.20    3.06
  -4   1 -18    3.50    2.50
  -4  -1 -18    1.17    3.30
  -4  -1 -18   -3.38    3.06
  -4   1 -18    2.57    3.02
  -4  -1 -19   14.99    3.71
   4  -1  19   13.75    3.39
   4   1  19   12.10    3.45
  -4   1 -19   20.31    3.96
  -4  -1 -19   17.09    3.99
   4   1  19   15.61    3.03
   4  -1  20   94.68    6.75
   4   1  20   82.01    6.15
  -4   1 -20  115.25    6.08
  -4  -1 -20  136.14    8.17
   4   1  20  114.32    5.94
  -4   2  22   13.36    2.85
  -4   2  22   10.23    3.08
   4  -2 -22    5.50    3.84
   4   2 -21   -2.12    3.75
   4  -2 -21    3.82    3.30
   4   2 -20   -1.03    3.45
   4  -2 -20    1.84    3.10
   4   2 -19    3.24    3.43
   4   2 -19    0.09    4.08
   4  -2 -19    1.86    3.90
   4   2 -18   -4.73    4.66
   4   2 -18    0.29    2.01
   4  -2 -18    1.36    3.36
   4   2 -18    2.49    4.23
   4  -2 -18   -2.03    3.75
   4   2 -17   -0.99    4.77
   4   2 -17    1.04    2.56
   4  -2 -17   -1.10    3.64
   4   2 -17   -1.07    4.48
   4  -2 -17    2.32    3.69
  -4  -2  17   -8.48    8.86
  -4   2  17   -9.06    7.16
  -4   2  17   -8.61    3.32
   4   2 -16  132.11    7.87
   4  -2 -16   91.25    7.34
   4   2 -16   57.26    9.94
   4  -2 -16   65.16    9.28
  -4  -2  16   -1.04   11.39
  -4   2  16  123.39   12.73
   4   2 -16   67.54    9.01
   4   2 -15   11.96    3.62
   4   2 -15    4.12    4.76
   4  -2 -15   12.29    4.19
   4   2 -15   10.45    5.90
   4  -2 -15    3.31    4.53
  -4   2  15    5.46    4.65
   4   2 -14  401.49   18.32
   4  -2 -14  406.79   14.60
   4   2 -14  380.32   19.73
   4  -2 -14  467.34   20.01
  -4   2  14  489.98   23.66
   4   2 -13   55.40    6.21
   4  -2 -13   37.30    5.66
   4   2 -13   33.86    7.06
   4  -2 -13   37.14    7.11
   4   2 -13   24.76    7.29
  -4   2  13   25.33    8.25
  -4   2  13   37.99    7.85
   4   2 -12   16.41    4.13
   4   2 -12   12.42    5.61
   4  -2 -12   12.59    3.87
   4   2 -12    2.99    5.11
   4  -2 -12   13.47    5.33
  -4  -2  12    4.48    9.88
  -4   2  12    7.39    8.03
   4   2 -11   77.32    9.36
   4  -2 -11  113.63    8.42
   4   2 -11   53.21    9.17
   4  -2 -11  124.19   10.53
  -4  -2  11   70.52   16.08
  -4   2  11   71.63   14.56
   4   2 -10   46.52    9.26
   4  -2 -10   44.55    5.67
   4   2 -10   33.04    6.66
   4  -2 -10   52.48    7.91
   4   2 -10   19.45    6.22
   4  -2 -10   36.21    7.49
  -4   2  10   44.59    8.65
  -4  -2  10   25.50   10.93
  -4   2  10   25.97   13.04
   4   2  -9   56.60    4.67
   4   2  -9   49.11   12.04
   4  -2  -9   51.60    5.62
   4   2  -9   28.97    6.44
   4  -2  -9   53.30    7.64
   4   2  -9   30.95    7.16
   4  -2  -9   46.46    8.68
  -4   2   9   59.24    8.98
  -4  -2   9   31.80   10.18
  -4   2   9   26.10   12.17
   4   2  -8   67.87    5.17
   4  -2  -8   67.17    7.55
   4   2  -8   71.21   14.02
   4   2  -8   41.00    6.83
   4  -2  -8   73.75    6.32
   4   2  -8   50.27    7.60
   4  -2  -8   60.77    7.85
   4  -2  -8   82.40   10.12
  -4   2   8   69.82   11.15
  -4   2   8   48.38   11.31
   4   2  -7   75.64    5.42
   4  -2  -7   66.81    7.51
   4   2  -7   71.38   13.10
   4   2  -7   38.04    6.62
   4  -2  -7   78.61    6.38
   4  -2  -7   60.10    7.88
   4   2  -7   37.97    7.79
   4  -2  -7   67.02    9.46
  -4   2   7   66.01   12.08
  -4   2   7   50.51   10.76
   4   2  -6   26.55    3.60
   4  -2  -6   26.51    5.15
   4   2  -6   25.29    9.64
   4  -2  -6   25.35    4.24
   4   2  -6    9.48    4.69
   4   2  -6    9.59    6.50
   4  -2  -6   23.06    5.71
   4  -2  -6   21.19    6.55
  -4   2   6   22.19    8.61
  -4  -2   5  108.81   13.84
   4  -2  -5   92.69   12.15
   4   2  -5  143.24    7.38
   4  -2  -5  142.45   10.10
   4   2  -5  111.65   14.96
   4   2  -5   69.22    8.16
   4  -2  -5  153.63    8.67
   4  -2  -5  172.36   10.96
   4  -2  -5  132.22   12.49
  -4   2   5   27.12    7.94
  -4  -2   5  178.28   18.72
  -4   2   5  117.47   13.41
  -4  -2   5  118.67   14.85
   4  -2  -4  151.56   14.04
   4   2  -4  225.14    8.94
   4   2  -4  173.49   11.49
  -4  -2   4  191.09   16.94
   4  -2  -4  231.28   12.92
   4   2  -4  189.57   18.22
   4   2  -4  135.43   10.55
   4  -2  -4  287.29   11.11
   4  -2  -4  296.16   13.26
   4  -2  -4  230.19   15.38
   4   2  -4  158.98   18.18
  -4   2   4  173.57   15.99
  -4   2   4   25.11   11.60
  -4  -2   4  209.63   18.66
   4   2  -3   24.27    3.73
   4  -2  -3   15.90   10.47
   4   2  -3   20.93    5.59
   4  -2  -3   29.84    6.18
   4   2  -3   50.28    8.26
   4  -2  -3   30.88    4.63
   4  -2  -3   26.06    6.49
  -4  -2   3   26.89    7.52
   4   2  -3   20.03   10.96
  -4   2   3   16.02    6.51
  -4   2   3   10.12    8.65
  -4  -2   3   20.94    7.73
  -4  -2   2   61.97    9.72
   4   2  -2   73.26    5.26
   4  -2  -2   42.47   11.59
   4   2  -2   55.31    7.28
   4  -2  -2   65.57    7.60
   4   2  -2   59.30    7.69
   4  -2  -2   72.41    6.38
  -4  -2   2   56.09    9.76
   4  -2  -2   61.13    9.07
   4   2  -2   39.08   11.88
  -4   2   2   49.33    9.79
  -4   2   2   20.60    9.69
  -4  -2   2   78.69   11.61
   4  -2  -1  112.03   13.43
   4   2  -1  198.77    8.11
   4   2  -1  180.49   11.21
  -4  -2   1  154.59   15.97
   4  -2  -1  184.43   12.20
   4  -2  -1  237.32   10.04
   4  -2  -1  186.53   13.74
   4   2  -1  133.54   16.94
  -4   2   1  134.21   15.06
  -4   2   1  108.79   17.47
  -4  -2   1  183.09   16.27
  -4  -2   1  179.91   15.37
   4   2   0  470.80   12.66
  -4  -2   0  456.52   26.11
   4  -2   0  342.54   16.84
   4   2   0  505.88   12.60
   4   2   0  500.98   17.98
   4  -2   0  469.72   18.91
   4  -2   0  514.16   14.30
   4  -2   0  442.97   19.78
   4   2   0  311.72   24.33
  -4   2   0  390.31   22.46
  -4   2   0  323.01   27.51
   4  -2   0  602.69   19.97
  -4  -2   0  514.54   26.30
  -4  -2   0  432.95   23.78
   4   2   0  411.48   16.64
   4  -2   0  474.86   19.35
   4   2   1   18.23    5.89
   4  -2   1   25.13    6.39
   4   2   1   16.50    3.27
   4  -2   1    0.80   10.27
  -4  -2  -1   15.22    6.26
   4   2   1   19.01    5.70
  -4   2  -1   19.20    9.46
   4  -2   1   16.70    5.44
   4  -2   1   10.38    4.27
   4  -2   1   14.70    5.67
   4   2   1    3.51   11.70
  -4   2  -1  -11.22   10.89
  -4   2  -1   -2.48   11.16
  -4  -2  -1   13.85    6.35
  -4  -2  -1   20.16    6.98
   4  -2   1   18.07    5.91
   4  -2   2   97.50   11.98
   4   2   2  143.57    6.95
   4   2   2  134.28   10.44
   4  -2   2  142.22   11.25
  -4   2  -2  113.84   15.19
   4  -2   2  134.59    7.61
  -4  -2  -2  129.29   13.49
  -4  -2  -2  126.94   14.39
   4  -2   2  123.19   10.91
   4   2   2   83.51   17.32
  -4   2  -2   80.89   11.94
  -4   2  -2   85.02   17.18
  -4  -2  -2  122.75   12.25
   4  -2   2  169.25   11.66
   4   2   2  129.76   10.42
   4  -2   2  141.17   10.80
   4  -2   3  336.22   16.00
   4   2   3  374.33   11.00
   4   2   3  380.59   16.51
  -4  -2  -3  344.22   23.58
  -4   2  -3  303.09   22.59
   4  -2   3  386.19   18.31
  -4  -2  -3  199.25   17.79
  -4  -2  -3  354.66   21.33
   4  -2   3  420.53   12.37
   4  -2   3  384.06   17.58
   4   2   3  242.59   23.75
  -4   2  -3  299.03   19.93
  -4   2  -3  222.27   25.35
  -4  -2  -3  338.06   18.66
  -4   2  -3  322.96   15.52
   4   2   3  351.77   16.66
   4  -2   3  364.21   17.18
   4   2   4   14.97    5.33
  -4  -2  -4   18.34    6.07
   4   2   4   21.09    3.16
   4  -2   4   17.06    5.28
   4  -2   4   11.64    8.53
   4   2   4   21.93    5.23
  -4   2  -4   16.66   10.50
  -4  -2  -4   18.26   10.61
   4  -2   4   21.16    5.90
   4  -2   4   12.25    3.31
   4  -2   4   16.53    6.41
   4   2   4    9.19   10.68
  -4   2  -4   12.84    8.44
  -4   2  -4   11.10   10.16
  -4  -2  -4   16.53    7.10
  -4   2  -4   17.60    5.13
   4  -2   5  192.96   13.14
   4  -2   5  165.04   12.11
   4   2   5  200.40    7.93
   4   2   5  209.59   12.47
  -4  -2  -5  204.64   16.89
  -4   2  -5  128.15   16.26
   4  -2   5  213.73   14.48
  -4  -2  -5  101.15   13.64
   4   2   5  122.84   17.15
  -4   2  -5  173.82   17.17
  -4   2  -5   71.40   20.47
  -4  -2  -5  188.79   14.67
  -4   2  -5  178.27   12.42
   4   2   5  188.15   13.43
   4  -2   6  110.46   10.43
   4  -2   6   66.27    8.72
   4   2   6  107.37    6.03
   4   2   6   93.31    8.87
   4  -2   6  127.92   11.50
  -4   2  -6   64.13   10.97
  -4  -2  -6   34.12    9.10
  -4   2  -6   10.02   23.88
  -4  -2  -6  116.59   11.35
  -4   2  -6  102.93    9.93
  -4  -2  -6   89.37   10.81
   4   2   6  118.98   10.42
  -4   2  -6  104.66    8.37
   4   2   7   19.12    5.44
   4  -2   7   26.69    5.97
   4   2   7   25.54    3.44
   4  -2   7   11.74    5.48
  -4  -2  -7   20.57    5.76
   4   2   7   30.23    5.61
   4  -2   7   30.72    6.64
  -4  -2  -7   33.33    4.09
  -4   2  -7   26.58    6.54
  -4   2  -7   31.38    5.49
   4   2   8   16.92    5.17
   4   2   8   20.48    3.13
   4  -2   8    3.98    4.63
   4  -2   8   16.33    5.51
  -4  -2  -8   18.84    6.19
   4   2   8   22.67    5.15
   4  -2   8   20.68    5.88
  -4  -2  -8   23.18    4.04
  -4   2  -8   18.35    6.26
  -4   2  -8   19.81    6.03
   4  -2   9   47.48    7.73
   4   2   9   55.13    4.85
   4   2   9   59.66    7.14
   4  -2   9   58.65    8.93
  -4  -2  -9   55.24    5.38
  -4  -2  -9   58.98    8.76
  -4   2  -9   62.87    9.03
  -4   2  -9   50.02    8.62
   4   2   9   66.62    8.53
   4  -2  10   40.47    7.02
   4   2  10   53.01    4.71
   4   2  10   47.56    6.51
   4  -2  10   53.21    8.53
  -4  -2 -10   46.71    8.74
  -4  -2 -10   45.57    4.73
  -4   2 -10   45.47    8.20
  -4   2 -10   46.95    8.64
   4   2  10   48.29    7.40
   4  -2  11   55.93    7.96
  -4  -2 -11   43.44    9.38
   4   2  11   64.31    7.04
  -4  -2 -11   54.68    9.28
   4  -2  11   60.39    9.03
  -4  -2 -11   64.24    5.76
  -4   2 -11   41.09   18.66
  -4   2 -11   59.12    9.05
  -4   2 -11   64.26    9.75
   4   2  11   68.18    8.30
   4   2  12    1.08    3.74
  -4  -2 -12    6.21    6.90
   4  -2  12   -3.08    4.28
   4  -2  12    1.05    3.50
   4   2  12    4.29    3.25
   4  -2  12    1.63    4.09
  -4  -2 -12    3.58    4.44
  -4  -2 -12    2.79    2.84
  -4   2 -12    4.49   11.14
  -4   2 -12    2.12    4.07
  -4   2 -12    2.20    4.54
   4  -2  13   35.96    6.46
   4   2  13   41.50    5.47
  -4  -2 -13   35.97    7.59
  -4   2 -13   48.30   12.17
   4  -2  13   45.96    7.46
  -4  -2 -13   37.16    4.71
  -4   2 -13   40.04    7.25
  -4   2 -13   30.39    7.22
  -4   2 -13   41.61    7.84
   4   2  13   51.56    7.23
  -4  -2 -13   17.01   13.24
   4   2  14   12.20    4.43
   4  -2  14   10.73    4.10
   4   2  14   13.35    3.44
  -4   2 -14    4.93    5.99
   4  -2  14   15.27    4.76
  -4  -2 -14    9.80    4.94
  -4  -2 -14   10.69    3.40
  -4   2 -14   11.10    4.04
  -4   2 -14   16.06    5.51
  -4  -2 -15   14.97    5.01
   4  -2  15   16.14    4.32
   4   2  15   24.98    3.80
   4  -2  15   22.53    4.98
  -4  -2 -15   17.51    5.25
  -4   2 -15   18.08    4.32
  -4  -2 -15   21.43   11.63
   4   2  15   22.50    4.88
  -4   2 -15   22.43    5.75
   4   2  16    1.10    2.47
  -4  -2 -16    1.01    3.05
   4  -2  16    1.68    2.47
   4  -2  16    2.42    2.84
  -4  -2 -16    1.26    3.17
  -4   2 -16    0.60    3.48
   4  -2  17   64.18    6.33
  -4  -2 -17   76.20    7.95
   4  -2  17   72.71    6.83
  -4   2 -17   81.75    7.80
   4   2  17   75.77    6.97
  -4  -2 -17   82.50    7.45
   4   2  18   12.59    2.93
  -4  -2 -18    8.85    3.38
   4  -2  18   10.86    2.87
   4  -2  18    6.54    2.83
  -4  -2 -18   11.14    3.67
  -4   2 -18   10.04    3.85
  -4  -2 -19   53.35    6.15
   4  -2  19   51.74    4.10
   4   2  19   67.33    5.19
   4  -2  19   53.46    4.57
  -4   3  21    1.11    1.54
  -4   3  20    3.78    2.31
   4  -3 -20   -1.58    3.09
   4   3 -19   -1.34    3.45
   4  -3 -19    2.28    2.76
   4   3 -18   15.13    3.67
   4  -3 -18   18.36    5.14
   4   3 -17    1.38    2.79
   4   3 -17    1.44    2.14
  -4   3  17    3.32    2.36
   4  -3 -17    0.83    3.07
   4   3 -16    0.58    3.16
   4   3 -16    7.18    2.67
  -4   3  16    7.06    2.85
   4  -3 -16    3.53    3.77
   4   3 -15  149.23    8.61
  -4   3  15  106.13    8.32
   4  -3 -15  119.28    7.34
   4  -3 -15   92.61    9.91
  -4   3  15  128.43   10.93
   4   3 -15   76.33    8.31
   4  -3 -14   64.61    6.00
   4  -3 -14   53.08    7.79
  -4   3  14   78.74   10.38
   4   3 -14   36.81    6.27
  -4   3  13  119.22    7.29
   4  -3 -13  108.38    7.04
   4   3 -13   53.64    9.72
   4  -3 -13  105.35    9.94
  -4  -3  13   22.46   11.07
  -4   3  13   96.79   11.61
   4   3 -13   60.24    7.74
  -4   3  12   63.55    6.02
   4  -3 -12   65.12    5.99
   4   3 -12   37.15    8.44
   4  -3 -12   62.99    8.44
  -4  -3  12   20.11   12.32
  -4   3  12   63.51    9.21
   4   3 -12   43.75    7.02
   4   3 -11    3.52    4.22
   4  -3 -11    3.72    3.13
   4   3 -11    0.80    5.55
   4  -3 -11    2.16    4.57
  -4  -3  11   -2.56    9.94
  -4   3  11   12.76    4.84
   4   3 -10  287.79   10.44
   4  -3 -10  342.06   12.05
   4   3 -10  145.97   15.03
   4  -3 -10  404.56   17.10
  -4   3  10  252.15   11.13
  -4  -3  10  119.11   16.77
  -4   3  10  121.02   16.85
  -4   3  10  265.34   17.22
   4   3 -10  193.66   12.84
   4   3  -9   53.04    4.96
   4  -3  -9   79.98    6.54
   4  -3  -9   72.24    8.62
  -4   3   9   53.70    6.07
  -4  -3   9   35.54    9.15
  -4   3   9   32.26    9.90
   4   3  -9   43.97    6.60
   4   3  -8  163.00    8.29
   4  -3  -8  163.65    9.22
   4  -3  -8  168.35   11.79
  -4  -3   8   86.04   13.65
  -4  -3   8   75.84   13.75
  -4   3   8   64.12   14.21
   4   3  -7  119.34    7.31
   4  -3  -7   77.15    7.73
   4  -3  -7  115.98    9.87
   4  -3  -7  113.18    7.76
   4  -3  -7  115.28   10.14
  -4  -3   7   69.19   12.46
  -4   3   7   45.05   15.00
   4   3  -6  165.06    8.40
   4  -3  -6  193.84   11.90
   4  -3  -6  158.83    9.46
  -4   3   6  143.97    9.84
   4  -3  -6  141.50   11.11
  -4  -3   6  145.52   16.98
  -4   3   6   97.24   20.00
   4   3  -5  184.92    9.06
   4  -3  -5  237.38   13.45
   4  -3  -5  208.67   10.57
  -4   3   5  186.03   10.95
  -4  -3   5  196.53   19.16
  -4  -3   5  220.55   21.37
   4   3  -4   24.15    4.17
   4  -3  -4    5.08    4.95
  -4  -3   4   25.52    9.74
   4  -3  -4   35.11    6.32
   4   3  -4   33.35    7.77
   4  -3  -4   19.13    4.54
  -4  -3   4   24.88    8.26
  -4   3   4    4.90   18.66
   4  -3  -3   52.00    6.95
   4   3  -3   78.90    6.39
   4   3  -3   52.71    6.57
   4  -3  -3   92.32    8.67
   4  -3  -3   78.52    7.14
   4  -3  -3   57.38    9.26
  -4   3   3   67.68    7.97
  -4  -3   3   94.00   13.09
  -4   3   3   30.76   19.78
  -4  -3   3   84.22   14.91
   4  -3  -2   -3.81    5.81
   4   3  -2    0.97    2.56
  -4  -3   2   11.67    5.32
   4   3  -2    1.97    3.07
   4  -3  -2   12.23    4.92
  -4  -3   2    8.19    7.86
   4  -3  -2   -0.81    2.73
  -4   3   2   -3.54    7.06
  -4  -3   2    9.36    5.43
  -4   3   2  -11.18   19.52
   4  -3  -1   70.59    8.60
   4   3  -1  150.58    7.66
  -4  -3   1  134.83   17.96
   4   3  -1   85.69    8.26
   4  -3  -1  139.72   10.66
   4  -3  -1  124.29   12.36
  -4   3   1   98.65   11.08
   4  -3  -1  135.75   11.17
  -4  -3   1  154.97   16.28
  -4   3   1   62.87   21.16
  -4  -3   1  138.31   14.77
  -4  -3   0  279.24   23.69
   4  -3   0  107.42   10.98
   4   3   0  302.62   10.65
   4   3   0  172.44   11.68
   4  -3   0  272.33   15.15
   4  -3   0  238.82   17.42
  -4   3   0  218.49   15.23
   4  -3   0  272.80   15.51
  -4   3   0  223.36   14.29
  -4  -3   0  290.31   21.07
  -4   3   0  114.70   23.28
   4  -3   1  442.49   18.10
   4   3   1  680.15   15.24
   4   3   1  501.12   18.82
   4  -3   1  574.12   21.93
  -4  -3  -1  613.89   29.79
  -4   3  -1  505.99   20.26
  -4  -3  -1  589.93   32.94
   4  -3   1  581.56   21.46
  -4   3  -1  562.22   20.88
   4   3   2   52.30    5.16
   4  -3   2   20.35    6.75
   4   3   2   38.22    7.25
   4  -3   2   54.61    7.85
  -4  -3  -2   63.08   12.70
  -4  -3  -2   62.14   10.32
  -4   3  -2   36.92   12.44
   4  -3   2   39.45    7.11
  -4   3  -2   23.48   18.96
  -4   3  -2   23.35    7.33
   4  -3   3   54.20    8.47
   4   3   3  103.06    6.27
   4   3   3  106.30    9.67
   4  -3   3  103.79    9.95
  -4  -3  -3  106.63   15.22
  -4  -3  -3  115.19   12.96
  -4   3  -3   80.35   13.73
   4  -3   3  100.51    9.77
  -4   3  -3   84.77    9.53
  -4   3  -3   36.27   20.26
   4  -3   4  358.52   17.80
   4   3   4  514.47   13.05
   4   3   4  532.07   20.32
   4  -3   4  521.99   21.07
  -4  -3  -4  572.98   27.56
  -4   3  -4  514.32   21.16
   4  -3   4  474.43   19.75
  -4   3  -4  455.83   20.03
   4   3   4  386.64   16.13
   4  -3   4  498.25   18.88
   4  -3   5  457.40   19.20
   4   3   5  612.40   13.58
   4   3   5  693.93   22.33
  -4  -3  -5  650.69   29.88
   4  -3   5  621.34   23.14
  -4   3  -5  572.29   22.28
   4  -3   5  497.93   20.25
  -4   3  -5  543.10   21.92
   4   3   5  346.06   15.98
   4  -3   5  570.54   20.11
   4  -3   6  172.48   12.46
   4   3   6  239.44    8.68
  -4   3  -6  166.37   16.45
   4   3   6  268.35   14.23
   4  -3   6  243.66   15.14
  -4   3  -6  240.36   15.76
   4  -3   6  215.48   13.40
  -4   3  -6  202.06   14.81
   4   3   6  158.83   11.24
  -4  -3  -6  198.17   15.31
   4  -3   6  237.53   13.40
   4  -3   7   80.66    9.82
   4   3   7  145.55    6.76
  -4   3  -7  110.61   13.89
   4   3   7  178.55   11.72
   4  -3   7  148.39   12.00
  -4  -3  -7  144.49    8.10
  -4   3  -7  147.23   12.19
  -4   3  -7  164.80   12.59
   4  -3   7  119.20    9.98
  -4  -3  -7  131.11   12.31
   4   3   7  115.55   10.24
   4  -3   7  132.41   10.27
   4   3   8  208.66    7.92
  -4   3  -8  144.81   16.45
   4   3   8  235.49   12.96
   4  -3   8  211.10   13.97
  -4  -3  -8  198.28    9.51
  -4   3  -8  223.92   13.55
  -4  -3  -8  194.72   14.99
  -4   3  -8  206.40   14.54
   4  -3   8  200.05   12.23
   4   3   8  175.98   12.39
   4  -3   8  186.72   11.62
   4   3   9   55.89    4.27
   4   3   9   57.35    7.14
  -4   3  -9   40.21   11.34
   4  -3   9   49.59    7.48
  -4  -3  -9   53.65    5.26
  -4  -3  -9   53.49    9.04
  -4   3  -9   45.75    7.13
  -4   3  -9   51.65    8.11
   4  -3   9   53.26    6.75
   4   3   9   49.73    6.96
   4  -3   9   46.16    6.35
  -4   3 -10   82.36   14.93
   4   3  10  123.93    9.31
   4  -3  10  110.03   10.09
  -4  -3 -10  106.40   13.05
  -4  -3 -10  102.59    6.85
  -4   3 -10   93.61    9.10
  -4   3 -10  101.53   10.79
   4   3  10   95.20    9.06
   4  -3  10   88.56    8.14
   4   3  11   82.89    7.48
  -4   3 -11   58.51   12.59
  -4  -3 -11   89.80   10.12
   4  -3  11   77.33    8.58
  -4  -3 -11   70.84    5.69
  -4   3 -11   85.62    8.18
  -4   3 -11   82.98    9.78
   4   3  11   69.27    8.01
   4  -3  11   58.79    6.60
   4   3  12   42.93    5.45
  -4  -3 -12   34.80    6.99
   4  -3  12   38.62    6.22
  -4   3 -12   36.64    5.43
  -4  -3 -12   39.73    4.45
  -4   3 -12   42.33    5.93
  -4   3 -12   38.84    7.19
   4   3  12   41.37    6.09
   4  -3  12   31.91    5.03
   4   3  13   39.15    4.96
   4  -3  13   44.70    6.02
  -4   3 -13   31.69    4.70
  -4  -3 -13   29.93    6.38
  -4  -3 -13   29.88    4.14
  -4   3 -13   35.24    5.40
  -4   3 -13   42.03    6.91
   4   3  13   35.70    5.72
   4  -3  13   32.17    4.72
   4   3  14    6.64    3.35
   4  -3  14    7.20    2.79
   4   3  14   12.27    2.94
   4  -3  14   11.19    3.69
  -4  -3 -14    4.69    4.25
  -4  -3 -14   15.96    3.03
  -4   3 -14   14.02    4.45
   4   3  15   14.03    3.48
  -4  -3 -15   17.55    4.10
   4  -3  15   14.42    3.23
   4   3  15   14.05    2.78
   4  -3  15   16.25    3.69
  -4  -3 -15   13.81    4.17
  -4  -3 -15   14.72    2.81
  -4   3 -15   16.41    4.12
  -4  -3 -16   16.57    3.63
   4   3  16   15.88    2.98
   4  -3  16   16.46    3.46
  -4  -3 -16   15.13    3.95
  -4  -3 -16   15.65    3.13
  -4   3 -16   20.40    3.83
   4   3  16   20.13    3.45
   4   3  17   14.88    3.25
   4  -3  17   15.75    3.26
  -4  -3 -17    8.35    3.59
  -4   3 -17   14.76    3.58
  -4   4  18   10.28    2.35
   4  -4 -18   11.07    2.70
  -4   4  17    3.07    2.48
   4   4 -17    2.09    1.97
  -4   4  17    4.53    1.87
   4  -4 -17    1.44    2.60
   4   4 -16    1.52    2.92
   4   4 -16    4.79    1.98
  -4   4  16    5.19    2.20
   4  -4 -16    0.85    2.87
   4   4 -15   11.34    3.08
   4   4 -15   14.66    2.93
  -4   4  15   20.40    3.05
   4  -4 -15   13.11    4.05
   4   4 -14   -0.44    2.15
   4   4 -14    3.77    2.35
  -4   4  14    2.77    1.91
  -4   4  14    2.21    2.17
   4  -4 -14    0.35    3.34
   4   4 -13   11.37    3.32
  -4   4  13   14.12    2.79
  -4   4  13   17.63    3.54
   4  -4 -13   21.00    3.17
   4  -4 -13   17.42    4.63
  -4   4  12   38.54    4.19
  -4   4  12   33.49    4.72
   4  -4 -12   42.33    4.14
   4  -4 -12   26.62    5.43
   4   4 -12   25.92    4.51
   4   4 -11    0.15    2.59
  -4   4  11    0.10    2.12
   4   4 -11   -0.70    1.90
  -4   4  11   -1.83    2.37
   4  -4 -11    0.90    2.16
   4  -4 -11   -2.55    3.15
   4   4 -10    5.65    3.23
  -4   4  10    6.59    2.78
   4   4 -10    7.09    2.59
   4  -4 -10    9.48    2.93
   4  -4 -10    8.49    4.17
  -4   4  10    9.01    2.82
   4   4  -9   20.57    4.44
   4   4  -9   17.00    3.52
  -4   4   9   22.48    3.98
   4  -4  -9   26.74    3.95
   4  -4  -9   20.44    5.56
  -4   4   9   21.42    3.65
  -4   4   9   15.56    4.24
   4   4  -8    1.55    2.82
  -4   4   8    2.68    2.49
   4   4  -8    3.12    2.38
   4  -4  -8    6.77    2.75
   4  -4  -8    5.45    3.84
  -4   4   8    2.83    2.57
  -4   4   8   11.03    5.55
   4   4  -7   10.54    3.31
   4   4  -7    4.37    2.61
   4  -4  -7    6.07    3.18
   4  -4  -7    6.21    3.24
   4  -4  -7    4.49    3.96
  -4   4   7    6.38    3.11
  -4   4   7    6.23    2.93
  -4   4   7   11.63    7.17
   4   4  -6   85.50    6.50
   4  -4  -6   96.74    7.36
   4  -4  -6   83.92    6.51
  -4   4   6   73.75    6.37
  -4   4   6   71.85    6.37
  -4  -4   6   81.71   10.71
  -4   4   6   61.71   11.10
   4   4  -6   76.48    7.07
   4   4  -5   19.87    4.04
   4   4  -5   16.68    3.78
   4  -4  -5   28.53    5.18
   4  -4  -5   14.60    3.97
   4  -4  -5   19.29    4.18
  -4   4   5   19.98    4.45
  -4   4   5   18.33    4.19
  -4  -4   5   33.82    7.15
   4   4  -4   28.49    4.35
  -4  -4   4   45.43    8.75
   4  -4  -4   50.77    6.16
   4  -4  -4   30.49    4.95
   4  -4  -4   20.71    4.74
  -4   4   4   24.17    5.01
  -4   4   4   27.80    4.69
  -4  -4   4   42.48    9.19
   4   4  -4   39.14    5.21
   4   4  -3   31.27    4.49
  -4  -4   3   44.29    9.65
   4  -4  -3   43.76    5.96
  -4   4   3   30.77    5.39
   4  -4  -3   19.34    4.51
  -4   4   3   28.39    4.92
  -4  -4   3   51.06    9.57
   4   4  -3   33.88    4.94
   4   4  -2   11.76    3.40
   4   4  -2    9.35    3.06
  -4  -4   2   18.01    8.31
   4  -4  -2   15.19    4.46
   4  -4  -2   -0.09    3.82
  -4   4   2    8.80    4.03
  -4   4   2   11.97    3.82
   4   4  -1    7.55    3.10
   4   4  -1    4.42    2.50
  -4  -4   1    3.55    7.12
   4   4  -1    4.57    3.54
   4  -4  -1    4.74    3.76
  -4   4   1    4.35    3.52
  -4   4   1    4.06    3.16
  -4   4   1    5.48    3.22
   4   4   0    0.45    2.02
  -4  -4   0   -5.22    6.22
  -4  -4   0    2.11    2.85
   4   4   0    0.05    3.29
   4  -4   0   -0.60    3.18
  -4   4   0   -0.23    3.03
  -4   4   0    2.68    2.73
  -4   4   0    1.26    2.73
   4  -4   0    0.88    3.31
   4   4   1    3.63    2.21
  -4  -4  -1   10.33    5.94
   4   4   1    1.10    3.68
   4  -4   1    1.11    3.06
  -4   4  -1   -0.78    3.41
  -4   4  -1    1.49    2.81
  -4   4  -1   -0.45    3.13
   4  -4   1    1.23    3.12
  -4   4  -1   -2.56    4.18
  -4  -4  -2    0.81    2.99
   4   4   2    0.62    2.04
   4   4   2   -1.26    3.29
   4  -4   2   -1.96    3.58
  -4   4  -2    1.36    3.09
  -4   4  -2    4.10    2.83
  -4   4  -2    4.25    2.94
  -4  -4  -2   -0.09    2.02
   4  -4   2    2.17    3.40
  -4   4  -2    2.07    3.32
   4   4   3   13.78    2.89
  -4  -4  -3    6.83    4.25
   4   4   3   12.33    4.38
   4  -4   3   14.63    4.31
  -4   4  -3    9.42    4.02
  -4   4  -3   11.44    3.68
  -4   4  -3   12.99    4.07
  -4  -4  -3   13.07    2.70
   4  -4   3   15.26    4.82
  -4   4  -3   14.48    4.48
   4   4   4   49.39    4.24
   4   4   4   46.11    6.46
   4  -4   4   59.35    6.86
  -4   4  -4   37.29    5.91
  -4   4  -4   42.64    5.37
  -4   4  -4   48.36    6.21
   4  -4   4   56.58    7.34
  -4   4  -4   42.95    6.34
  -4  -4  -4   48.96    4.43
   4   4   5   37.22    3.77
   4   4   5   46.11    6.17
   4  -4   5   46.60    6.21
  -4   4  -5   30.89    5.47
  -4   4  -5   31.82    4.81
  -4   4  -5   29.90    5.26
  -4   4  -5   28.48    5.73
   4  -4   5   45.16    6.49
  -4  -4  -5   42.74    4.00
   4   4   6   78.93    4.86
   4   4   6   71.56    7.62
   4  -4   6   76.10    7.66
  -4   4  -6   66.77    7.25
  -4  -4  -6   75.41    5.97
  -4   4  -6   61.23    5.98
  -4   4  -6   74.07    7.26
  -4   4  -6   65.07    7.76
   4  -4   6   93.31    8.42
  -4  -4  -6   81.38    5.19
   4   4   7   57.08    4.10
   4   4   7   64.40    7.07
   4  -4   7   62.86    6.90
   4  -4   7   51.61    4.45
  -4   4  -7   48.62    6.42
  -4  -4  -7   76.70    5.36
  -4   4  -7   45.58    5.03
  -4   4  -7   59.81    6.58
  -4   4  -7   54.31    7.22
   4  -4   7   68.27    7.17
  -4  -4  -7   56.65    4.47
   4   4   8  126.98    5.41
   4   4   8  157.32    9.67
   4  -4   8  137.54    9.51
  -4   4  -8  113.67    8.69
  -4  -4  -8  146.83    7.16
  -4   4  -8   97.50    6.57
  -4   4  -8  141.87    9.20
  -4   4  -8  126.11   10.05
   4  -4   8  155.93    9.75
  -4  -4  -8   91.74    5.69
   4   4   9   33.63    5.19
   4  -4   9   32.73    4.98
  -4   4  -9   26.67    4.59
  -4  -4  -9   33.58    3.99
  -4   4  -9   27.41    5.34
   4  -4   9   38.49    5.17
  -4   4 -10   31.28    5.52
   4   4  10  130.75    8.66
  -4  -4 -10  226.55   11.32
   4  -4  10  120.70    8.70
  -4   4 -10  132.51    8.11
  -4  -4 -10  119.64    6.86
  -4   4 -10  122.92   10.01
   4  -4  10  156.96    8.64
   4   4  11   16.18    3.40
  -4   4 -11    3.69    2.50
   4   4  11   16.02    3.56
   4  -4  11   15.28    3.54
  -4  -4 -11   12.79    4.46
  -4  -4 -11   19.87    3.11
  -4   4 -11   14.36    3.02
   4  -4  11   18.02    3.39
  -4   4 -11   10.41    4.13
   4   4  12   11.08    3.54
  -4   4 -12    0.40    2.71
   4   4  12   12.01    2.81
   4  -4  12   11.98    2.99
  -4  -4 -12   11.33    3.67
  -4  -4 -12   13.77    2.70
  -4   4 -12   10.29    3.64
  -4   4 -12   12.01    3.52
   4   4  13    1.21    1.93
  -4   4 -13   -0.49    2.91
   4   4  13    3.66    1.92
   4  -4  13    3.95    2.00
  -4  -4 -13    3.05    2.92
  -4  -4 -13    4.15    2.03
  -4   4 -13    4.37    2.61
   4   4  14    2.65    1.92
   4  -4  14    1.65    2.04
  -4  -4 -14   -1.66    2.20
  -4  -4 -14    4.12    2.04
  -4   4 -14    2.48    2.71
   4  -4  15    0.04    1.18
  -4   5  13    7.17    1.91
   4  -5 -13    9.22    2.49
   4   5 -12    0.43    1.46
  -4   5  12   -1.91    1.92
   4  -5 -12    1.69    2.60
   4   5 -11    5.33    1.93
   4   5 -11    0.32    1.73
  -4   5  11    8.19    2.17
   4  -5 -11    8.24    2.77
   4   5 -10   28.69    2.76
  -4   5  10   36.46    3.48
  -4   5  10   45.31    4.07
   4  -5 -10   49.62    3.71
   4  -5 -10   43.05    5.00
   4   5 -10   39.96    4.11
   4   5  -9   13.03    2.87
  -4   5   9   10.14    2.28
   4   5  -9    8.21    1.96
  -4   5   9   12.52    2.66
   4  -5  -9   14.50    2.41
   4  -5  -9    8.44    3.06
   4   5  -8   36.07    3.35
  -4   5   8   45.66    4.16
  -4   5   8   51.24    4.38
   4  -5  -8   45.08    3.74
   4  -5  -8   33.87    5.04
   4   5  -8   51.37    4.42
   4   5  -7    5.93    1.91
  -4   5   7    4.41    2.12
   4   5  -7    2.07    1.81
  -4   5   7    3.04    2.07
   4  -5  -7    3.44    2.06
   4  -5  -7   -0.65    2.66
   4   5  -6   12.09    2.66
  -4   5   6    8.41    2.43
   4   5  -6    5.42    2.19
  -4   5   6    9.03    2.57
   4  -5  -6    6.08    2.30
   4  -5  -6    8.07    3.32
  -4   5   6    9.40    1.92
   4   5  -5    3.15    1.97
  -4   5   5    2.47    2.19
   4   5  -5    3.07    1.87
  -4   5   5    3.90    2.30
   4  -5  -5    1.73    2.09
   4  -5  -5   -0.39    3.08
  -4   5   5    0.11    1.66
  -4   5   5    0.93    1.92
   4   5  -4   22.86    3.41
  -4   5   4   39.10    4.22
  -4  -5   4   46.17    4.01
   4  -5  -4   41.99    3.99
  -4   5   4   29.32    3.92
  -4   5   4   37.08    3.95
   4  -5  -4   23.60    3.77
   4  -5  -4   26.08    4.38
  -4   5   4   28.22    3.75
  -4   5   3    2.67    2.59
   4   5  -3    3.34    2.17
  -4  -5   3    6.96    2.18
  -4   5   3    2.67    2.40
   4  -5  -3    2.27    3.34
   4  -5  -3    2.71    2.66
  -4   5   3    9.22    2.49
  -4   5   3    3.64    2.56
  -4   5   2   10.87    2.79
   4   5  -2    5.20    2.23
  -4  -5   2   11.59    2.40
  -4   5   2   13.38    2.81
   4  -5  -2    3.36    2.57
   4  -5  -2    9.14    2.84
  -4   5   2   10.39    2.66
  -4   5   2    7.85    2.70
   4   5  -1   18.90    3.02
  -4   5   1   20.66    3.26
  -4  -5   1   34.07    3.29
   4  -5  -1   40.01    4.01
  -4   5   1   24.80    3.61
   4  -5  -1   11.36    3.15
  -4   5   1   17.83    3.20
  -4  -5   1   23.09    2.80
  -4   5   0    6.70    2.37
   4   5   0    7.69    2.19
  -4  -5   0    8.50    2.14
   4  -5   0   11.45    2.85
   4  -5   0    0.26    2.82
  -4   5   0    4.36    2.49
  -4   5   0    3.70    2.30
  -4  -5   0    8.91    1.95
  -4   5  -1    6.22    2.19
   4   5   1    4.14    1.81
  -4  -5  -1   10.24    2.22
   4  -5   1   10.90    2.44
   4  -5   1    2.71    2.21
  -4   5  -1    5.37    2.30
  -4   5  -1    5.57    2.25
  -4  -5  -1    6.29    1.67
  -4   5  -2    1.97    1.87
   4   5   2    3.50    1.63
   4   5   2   -0.42    2.15
   4  -5   2    8.53    2.30
   4  -5   2    0.46    2.00
  -4   5  -2    1.68    2.02
  -4   5  -2    3.78    2.16
  -4  -5  -2    3.94    1.50
  -4   5  -3    5.16    1.97
   4   5   3    6.61    1.74
   4   5   3    2.69    2.18
   4  -5   3    7.10    2.34
   4  -5   3    3.37    1.98
  -4   5  -3    2.49    2.44
  -4  -5  -3    3.56    1.96
  -4   5  -3    4.01    2.12
  -4  -5  -3    7.45    1.68
  -4   5  -3    6.60    2.27
  -4   5  -4   -1.12    2.24
   4   5   4    0.72    1.19
   4   5   4   -2.19    2.39
   4  -5   4    0.25    1.83
   4  -5   4    1.37    1.64
  -4   5  -4   -1.72    2.51
  -4  -5  -4   -0.95    1.77
  -4   5  -4   -0.04    1.58
  -4  -5  -4    0.14    1.14
  -4   5  -4    0.04    1.92
   4   5   5   25.77    2.35
   4   5   5   16.06    3.10
   4  -5   5   27.30    3.31
  -4   5  -5   22.07    3.51
   4  -5   5   20.48    2.61
  -4  -5  -5   20.88    2.68
  -4   5  -5   24.97    3.43
  -4  -5  -5   27.13    2.49
   4   5   6   10.36    1.79
   4   5   6    7.27    2.38
   4  -5   6    9.95    2.45
   4  -5   6    7.65    2.03
  -4   5  -6    6.96    2.50
  -4  -5  -6    8.72    2.03
  -4  -5  -6    7.21    1.68
  -4   5  -6    5.79    2.29
   4   5   7   17.07    3.14
   4  -5   7   23.05    3.18
  -4   5  -7   19.85    3.12
   4  -5   7   17.96    2.36
  -4  -5  -7   15.43    3.51
  -4  -5  -7   21.23    2.50
  -4   5  -7   19.83    3.33
   4   5   8   31.93    3.86
   4  -5   8   34.35    3.53
  -4   5  -8   46.73    4.08
  -4  -5  -8   33.17    2.96
  -4   5  -8   34.28    4.23
   4   5   9    1.13    1.96
  -4  -5  -9    0.64    1.67
  -4   5  -9    2.70    2.04
   5   0 -21   -0.69    3.31
   5   0 -20   -2.47    3.25
   5   0 -19    1.47    2.32
   5   0 -19    4.23    3.57
   5   0 -18    0.82    2.88
   5   0 -18   -1.82    3.91
   5   0 -17    4.05    3.45
   5   0 -17    3.62    3.67
   5   0 -16   20.63    4.69
   5   0 -16    8.73    5.33
   5   0 -15   27.05    4.97
   5   0 -15   37.77    5.80
   5   0 -15   18.20    6.59
   5   0 -14   61.79    6.81
   5   0 -14   55.32    7.20
   5   0 -13   35.06    5.46
   5   0 -13   28.06    6.01
   5   0 -12    5.09    3.37
   5   0 -12    4.01    4.11
   5   0 -12    4.47    4.75
   5   0 -11  400.87   13.94
   5   0 -11  371.03   14.71
   5   0 -10  552.82   16.37
   5   0 -10  493.17   16.61
   5   0  -9    3.22    3.18
   5   0  -9   -1.65    4.05
   5   0  -9    0.26    4.88
   5   0  -8   -0.91    2.99
   5   0  -8   -0.82    3.19
   5   0  -8    0.67    4.97
   5   0  -7    3.33    3.20
   5   0  -7    3.41    3.07
   5   0  -7   -3.29    3.94
  -5   0   7  -10.28    4.05
  -5   0   7   -0.05    4.88
   5   0  -6   78.33    6.79
   5   0  -6   45.88    5.25
   5   0  -6   30.24    5.73
  -5   0   6   80.81   11.82
  -5   0   6   -2.56    8.11
   5   0  -5    0.13    3.12
   5   0  -5    0.40    2.67
   5   0  -5   -5.82    3.67
   5   0  -5   -3.64    4.03
  -5   0   5   -4.81    5.21
   5   0  -4   12.30    3.63
   5   0  -4   10.08    3.22
   5   0  -4    5.77    3.59
   5   0  -3   11.04    3.32
   5   0  -3   11.69    2.94
  -5   0   3   11.65    4.53
   5   0  -3    6.06    3.50
   5   0  -3    1.80    2.98
  -5   0   3   14.82    7.53
   5   0  -2    1.63    2.97
   5   0  -2    4.35    2.61
  -5   0   2    9.76    4.51
   5   0  -2    1.39    3.03
   5   0  -2    9.15    4.01
  -5   0   2    6.80    7.33
   5   0  -1   19.26    4.54
   5   0  -1   24.80    4.33
   5   0  -1   25.08    4.41
   5   0   0   46.33    5.76
   5   0   0   63.96    5.82
  -5   0   0   52.32    7.83
   5   0   1    9.68    4.41
   5   0   1    8.46    3.29
  -5   0  -1   -0.91    4.59
   5   0   2   -0.30    3.90
   5   0   2   -0.28    2.61
  -5   0  -2    2.32    4.38
   5   0   3   24.79    4.25
   5   0   3   32.06    6.09
   5   0   3   38.73    6.85
   5   0   4   50.39    5.72
  -5   0  -4   38.02    8.27
   5   0   4   51.97    7.42
   5   0   4   67.57    8.69
   5   0   5  303.40   11.88
   5   0   5  274.32   15.47
  -5   0  -6   -0.73    3.49
  -5   0  -6   -2.47    4.50
   5   0   6   -1.37    4.33
   5   0   6   -0.57    2.76
   5   0   6    0.70    3.63
  -5   0  -7   47.09    7.39
   5   0   7  110.43   11.07
  -5   0  -7   24.71    9.41
   5   0   7   66.14    7.41
  -5   0  -7   27.45   13.18
   5   0   7   84.98    8.96
  -5   0  -8    5.97    4.25
   5   0   8    6.51    5.25
   5   0   8   23.14    6.51
  -5   0  -8    4.09    9.65
  -5   0  -8    4.27    6.19
   5   0   8   14.97    4.68
  -5   0  -9   -1.14    3.48
   5   0   9    0.71    6.54
   5   0   9    3.93    4.28
  -5   0  -9    5.68    3.83
  -5   0  -9   -0.79    7.52
   5   0   9    3.67    3.40
  -5   0 -10    4.17    3.82
   5   0  10    3.75    8.29
   5   0  10   11.83    5.13
  -5   0 -10    5.47    4.11
   5   0  10   11.94    4.00
   5   0  11  109.17   10.27
   5   0  11   43.47    8.42
  -5   0 -11   78.06    7.62
  -5   0 -11   41.57   11.48
   5   0  11  100.91    8.68
  -5   0 -11   48.40    8.02
   5   0  12   48.08    7.02
  -5   0 -12   21.90    5.49
   5   0  12   13.02    5.10
  -5   0 -12   35.54    5.26
  -5   0 -12   26.45   11.67
   5   0  12   47.04    5.67
   5   0  13   83.66    8.49
  -5   0 -13   39.84    6.58
  -5   0 -13   63.16    6.36
  -5   0 -13   41.16   10.78
   5   0  13   75.65    6.65
  -5   0 -14   -1.21    2.67
   5   0  14   -1.84    2.90
  -5   0 -14    1.11    2.38
  -5   0 -14   -1.51    5.24
   5   0  14   -1.80    2.42
  -5   0 -15    1.88    2.56
   5   0  15    5.32    2.84
  -5   0 -15    2.18    2.57
  -5   0 -15    1.05    2.89
  -5   0 -15    1.14    3.04
   5   0  16    5.41    2.44
  -5   0 -16    3.61    2.82
  -5   0 -16   -1.42    2.97
  -5   0 -16    2.68    3.58
   5   0  17    9.00    2.60
   5   1 -21   -1.14    2.89
   5  -1 -21   -1.10    2.96
   5   1 -20   10.35    5.06
   5  -1 -20   16.60    5.11
   5   1 -19    1.50    3.66
   5  -1 -19    5.64    3.77
   5  -1 -18    3.41    2.72
   5   1 -18    5.53    3.80
   5  -1 -18    4.03    4.10
   5   1 -17    6.06    2.74
   5   1 -17    9.25    3.70
   5  -1 -17    6.77    3.36
   5   1 -17    6.32    4.32
   5  -1 -17    1.89    4.11
   5   1 -16   15.75    3.55
   5   1 -16   10.13    4.07
   5  -1 -16   12.56    3.73
   5   1 -16    4.09    4.76
   5  -1 -16    7.69    5.07
   5   1 -15   19.84    3.92
   5   1 -15   14.36    4.68
   5  -1 -15   17.24    4.44
   5   1 -15    4.60    5.12
   5  -1 -15   13.32    5.85
   5   1 -14    8.50    3.35
   5   1 -14    5.86    3.97
   5  -1 -14    9.00    3.75
   5   1 -14    5.24    4.77
   5  -1 -14    7.98    5.19
  -5   1  14   21.48    8.36
   5   1 -13    7.33    3.29
   5   1 -13    4.47    4.04
   5  -1 -13    3.48    3.62
   5   1 -13    4.18    4.58
   5  -1 -13    2.83    4.45
  -5   1  13   11.43    8.57
   5   1 -12  174.44    9.42
   5   1 -12  108.86    9.51
   5  -1 -12  143.41    9.63
   5   1 -12   72.32   10.33
   5  -1 -12   89.38   10.99
  -5   1  12   52.00   15.98
   5   1 -11  157.29   11.08
   5   1 -11  131.36   12.08
   5  -1 -11  127.36   12.81
  -5   1  11  105.61   16.48
   5   1 -10   66.46    8.44
   5   1 -10   56.84    8.42
   5  -1 -10   83.42   10.38
  -5   1  10   52.83   11.72
   5   1  -9   43.92    7.11
   5  -1  -9   59.48    7.09
   5   1  -9   49.00    8.32
   5  -1  -9   49.44    7.70
  -5   1   9   45.47   10.87
   5   1  -8    6.68    3.13
   5   1  -8   11.04    2.89
   5   1  -8    4.76    4.05
   5  -1  -8    4.59    3.73
   5  -1  -8    1.75    4.64
   5   1  -7   27.37    4.41
   5   1  -7   22.16    3.49
   5   1  -7    7.23    4.77
   5  -1  -7   19.01    4.80
  -5   1   7   -3.19   11.45
   5   1  -6  147.16    8.41
   5   1  -6  111.50    6.52
   5  -1  -6   42.19   10.95
   5   1  -6   53.66    7.57
   5  -1  -6  149.11    9.69
  -5   1   6   48.57   14.69
   5   1  -5   12.77    3.67
   5  -1  -5    4.28    7.45
   5   1  -5   15.45    3.14
   5  -1  -5   14.83    4.76
   5   1  -5   -1.02    5.17
   5  -1  -5   12.04    4.09
  -5   1   5    8.44    6.36
   5   1  -4   44.17    5.13
   5   1  -4   37.96    4.33
   5  -1  -4   27.59    7.06
   5  -1  -4   49.76    6.55
   5  -1  -4   27.43    4.87
   5   1  -4   13.14    4.48
  -5   1   4   26.95    7.37
  -5   1   4   20.38    9.06
   5   1  -3   49.78    5.46
   5   1  -3   45.82    4.60
   5  -1  -3   30.14    6.99
   5  -1  -3   52.65    6.47
   5  -1  -3   31.38    5.27
   5   1  -3   15.84    5.06
  -5   1   3   47.61    8.69
  -5   1   3   16.97    9.90
   5   1  -2   83.50    6.54
   5  -1  -2   44.33    7.21
   5   1  -2   94.37    6.18
   5  -1  -2   97.12    8.53
   5   1  -2   40.20    5.99
   5  -1  -2   80.60    6.79
  -5   1   2   88.96   12.11
  -5   1   2   37.95   10.46
  -5  -1   2   57.38    8.70
   5   1  -1   48.14    5.12
   5   1  -1   44.77    5.20
   5  -1  -1   18.33    6.28
   5  -1  -1   60.49    7.30
   5  -1  -1   44.35    5.50
  -5   1   1   57.13   10.47
  -5   1   1   28.49    9.78
  -5  -1   1   54.07    7.51
   5   1   0  116.48    7.59
   5  -1   0  100.52    9.12
   5   1   0  149.53    7.43
   5  -1   0  133.93   10.14
   5  -1   0   96.42    7.39
  -5   1   0  111.27   13.21
  -5  -1   0  109.23   11.01
   5   1   1   13.98    3.73
   5  -1   1    9.76    5.92
   5   1   1   14.62    3.25
  -5  -1  -1   14.19    5.50
   5  -1   1   20.82    5.18
   5  -1   1    2.11    3.37
  -5   1  -1   -0.95    7.88
  -5   1  -1   -4.66    8.14
   5  -1   1   24.54    6.25
  -5   1  -1   -7.81    9.52
   5   1   1   18.02    5.20
   5  -1   2  133.14   10.82
   5   1   2  191.78    8.56
   5  -1   2  157.21   10.88
  -5   1  -2   59.33   12.95
  -5  -1  -2  153.75   12.47
   5   1   2  199.59   12.60
   5  -1   2  207.49   13.67
  -5   1  -2   41.27   11.73
   5  -1   3  337.69   15.00
   5   1   3  392.23   11.74
   5  -1   3  322.60   15.29
  -5   1  -3  158.93   16.83
  -5  -1  -3  304.93   17.85
  -5   1  -3  109.65   18.84
   5   1   3  405.97   17.83
   5   1   3  302.61   14.58
   5  -1   3  449.85   19.76
   5   1   4   34.77    4.28
   5   1   4   26.43    5.64
   5  -1   4   17.31    9.37
  -5  -1  -4   20.61    5.73
   5  -1   4   29.74    5.91
  -5   1  -4   18.90    8.73
   5   1   4   30.44    6.77
  -5   1  -4   23.94    7.22
   5  -1   4   41.89    7.29
   5   1   5   38.62    4.48
   5  -1   5   25.10   10.65
   5  -1   5   43.17    6.71
  -5  -1  -5   41.93    7.97
  -5   1  -5   22.16   10.85
   5   1   5   48.06    7.11
   5   1   5   37.41    6.78
   5  -1   5   53.66    8.05
   5   1   6   44.60    4.91
   5  -1   6   16.13   12.56
  -5  -1  -6   38.31    8.09
   5  -1   6   55.39    7.04
  -5   1  -6   23.21   12.76
  -5   1  -6   23.11    6.24
   5   1   6   60.73    7.97
  -5   1  -6   32.09    5.84
   5   1   6   42.42    6.76
   5  -1   6   64.93    8.52
  -5   1  -7   12.71    4.59
   5   1   7   17.74    3.81
   5   1   7   19.11    5.20
   5  -1   7   25.59    6.21
   5  -1   7   10.04   11.84
  -5  -1  -7   15.70    6.17
   5  -1   7   20.28    5.05
  -5  -1  -7   21.91    5.76
  -5   1  -7   18.85   16.52
  -5   1  -7   10.24    5.30
   5   1   7   27.36    5.82
   5  -1   8   47.57    7.51
  -5   1  -8   28.91    5.63
   5   1   8   36.22    4.90
  -5  -1  -8   23.05    8.21
   5  -1   8    8.79    9.54
  -5  -1  -8   31.83    6.77
   5  -1   8   57.84    7.05
  -5   1  -8   16.28   17.69
  -5   1  -8   26.26    7.30
   5   1   8   48.98    7.39
   5   1   8   45.48    7.19
   5   1   9   13.82    4.64
  -5   1  -9    8.49    3.86
  -5  -1  -9   -1.35    7.28
   5   1   9   10.12    4.64
   5  -1   9   14.61    5.16
   5  -1   9   -0.51    5.26
   5   1   9    9.87    3.39
   5  -1   9    9.89    4.33
  -5  -1  -9    7.76    4.66
  -5   1  -9    9.09    7.38
   5   1  10   14.94    4.49
  -5   1 -10   11.98    3.89
  -5  -1 -10   10.76    8.68
   5  -1  10    2.21    4.24
   5   1  10   15.60    4.82
   5  -1  10   18.52    5.09
   5   1  10   10.33    3.67
   5  -1  10   15.62    4.34
  -5  -1 -10    5.42    4.34
  -5   1 -10   13.57    7.71
   5   1  11   21.76    4.78
  -5   1 -11   18.44    4.44
  -5  -1 -11    7.05    4.38
   5  -1  11    5.36    4.16
   5   1  11   19.58    5.04
   5  -1  11   20.38    5.21
   5   1  11   16.68    5.38
  -5  -1 -11    5.15    4.36
  -5   1 -11   14.69    6.89
  -5  -1 -11   10.48    7.75
  -5  -1 -12    7.48    3.98
   5   1  12   15.37    4.46
   5  -1  12   17.06    4.57
  -5  -1 -12    5.22    4.16
  -5   1 -12   11.30    5.26
   5   1  12   19.23    4.26
  -5   1 -12    9.25    4.85
   5   1  13    2.93    2.56
  -5  -1 -13   -2.98    3.34
   5  -1  13    2.06    2.84
   5   1  13   -0.23    3.06
   5  -1  13    1.71    2.66
  -5  -1 -13    0.79    3.23
  -5   1 -13   -4.88    8.74
  -5   1 -13   -0.16    3.11
  -5  -1 -13   -2.17   11.39
  -5   1 -13    2.68    3.60
   5   1  14    6.46    2.77
  -5  -1 -14    3.83    3.11
   5   1  14    7.02    2.57
   5  -1  14    4.06    2.84
  -5  -1 -14    6.55    3.22
  -5   1 -14    3.83    3.26
  -5   1 -14    2.72    3.05
  -5  -1 -14    2.40    8.06
  -5   1 -14    3.78    3.64
  -5  -1 -15   57.20    5.71
  -5  -1 -15   24.22    6.65
  -5   1 -15   41.21    6.60
   5   1  15   70.15    5.76
  -5  -1 -15   36.59    5.84
   5   1  15   57.84    5.34
   5  -1  15   61.47    6.03
  -5  -1 -16    0.88    2.47
   5  -1  16    3.92    1.92
  -5  -1 -16    0.97    2.70
  -5  -1 -16    1.45    2.93
  -5   1 -16    0.56    3.10
   5   1  16    1.45    1.89
   5  -1  17    6.07    2.05
   5  -2 -20    9.76    3.67
   5  -2 -19   11.30    4.53
   5   2 -18   40.89    3.73
   5  -2 -18   11.83    4.81
   5   2 -17   14.45    5.28
   5  -2 -17   22.10    5.80
   5   2 -16    4.53    2.41
   5  -2 -16   -0.18    2.54
   5   2 -16   -2.76    3.78
   5  -2 -16    6.03    3.90
   5   2 -15    8.10    2.99
   5  -2 -15   10.81    3.45
   5   2 -15    1.48    3.62
   5  -2 -15    3.72    4.56
   5   2 -14   20.90    3.78
   5  -2 -14   16.02    4.13
   5   2 -14    7.13    4.61
   5  -2 -14   11.83    5.21
   5   2 -13   18.42    3.83
   5   2 -13    9.60    4.56
   5  -2 -13   14.20    3.71
   5   2 -13    8.20    4.48
   5  -2 -13    5.33    4.79
  -5   2  13   24.62    5.78
   5   2 -12    8.43    3.16
   5   2 -12    4.88    3.84
   5  -2 -12    5.80    3.17
   5   2 -12    3.97    4.00
   5  -2 -12    5.46    4.68
  -5   2  12   -2.02    7.15
  -5   2  12    9.80    6.67
   5   2 -11    0.13    2.65
   5   2 -11    0.67    3.59
   5  -2 -11    1.28    2.99
   5   2 -11   -2.54    4.28
   5  -2 -11   -1.11    4.11
  -5   2  11    9.68   11.61
   5   2 -10    5.90    3.27
   5   2 -10    1.92    3.93
   5  -2 -10    4.95    3.49
   5   2 -10   -6.65    5.20
   5  -2 -10   -0.60    4.49
  -5   2  10   -7.56   13.71
   5   2  -9   68.16    6.39
   5   2  -9   73.94    5.12
   5  -2  -9   52.23    6.35
   5   2  -9   24.42    6.17
   5  -2  -9   40.51    7.44
   5   2  -9   33.00    6.98
  -5   2   9   24.91   15.95
   5   2  -8   51.17    5.72
   5   2  -8   38.87    4.12
   5  -2  -8   44.86    6.10
   5   2  -8   20.57    5.83
   5  -2  -8   30.23    6.35
  -5   2   8   21.54   16.55
   5   2  -7   25.62    4.36
   5   2  -7   27.09    3.75
   5   2  -7   -1.60    5.08
   5  -2  -7   17.59    4.64
   5  -2  -7   16.01    6.02
  -5   2   7   18.50   13.45
   5   2  -6  110.52    7.72
   5   2  -6  122.21    6.91
   5  -2  -6  123.78    9.96
   5  -2  -6  129.98    8.71
   5   2  -5   94.26    6.95
   5   2  -5   98.77    6.38
   5  -2  -5   24.07   11.83
   5  -2  -5  110.89    9.44
   5  -2  -5  103.76    7.85
   5   2  -5   17.27    6.44
  -5  -2   5  107.59   14.37
  -5   2   5   33.05   11.23
   5   2  -4  135.30    8.33
   5   2  -4  159.03    8.19
   5  -2  -4   53.83   12.32
   5  -2  -4  177.97   11.76
   5  -2  -4  161.85    9.72
   5   2  -4   32.90    7.13
  -5  -2   4  184.02   16.71
   5   2  -3  431.64   13.19
   5  -2  -3  300.53   17.63
   5   2  -3  459.38   12.67
   5  -2  -3  553.15   19.75
   5   2  -3  233.83   12.74
   5  -2  -3  523.12   15.80
  -5  -2   3  532.36   25.15
   5   2  -2    5.32    3.02
   5  -2  -2    8.79   11.66
  -5  -2   2   38.66    9.99
   5   2  -2    4.38    3.03
   5  -2  -2   50.88    8.19
   5  -2  -2    5.85    4.18
   5   2  -1   41.35    4.73
   5   2  -1   48.72    4.84
   5  -2  -1   67.14    7.85
  -5  -2   1   66.02   10.75
   5  -2  -1   54.17    5.81
   5   2   0   80.35    5.97
   5   2   0   96.91    6.19
  -5  -2   0   99.42   12.20
   5  -2   0  105.54    9.61
   5  -2   0   94.51    7.18
   5   2   1  133.07    7.09
   5  -2   1   61.96   12.80
  -5  -2  -1  136.23   14.44
   5  -2   1  137.75   11.06
   5  -2   1  108.76    7.42
  -5   2  -1    1.44   22.11
  -5   2  -1   41.15    8.99
   5   2   1   83.83    7.95
   5   2   2  134.32    7.05
   5  -2   2   59.26   11.65
   5   2   2  122.35    9.95
   5  -2   2  139.69   11.17
   5  -2   2   88.93    6.51
  -5   2  -2   53.10    9.16
  -5  -2  -2  100.75   11.17
   5   2   2  118.41    9.86
   5   2   3   80.06    5.59
   5  -2   3   31.76   10.13
   5   2   3   70.29    7.86
   5  -2   3   95.04    9.29
   5  -2   3   75.02    5.83
  -5  -2  -3   77.74    9.36
   5   2   3   70.40    7.75
  -5   2  -3   29.80    7.15
   5  -2   4  127.01   12.30
   5   2   4  252.40    9.30
   5   2   4  248.51   13.45
   5  -2   4  295.21   15.45
  -5   2  -4  140.66   11.24
  -5  -2  -4  205.24   15.51
  -5   2  -4  140.40   12.12
   5   2   4  222.92   13.33
   5  -2   4  244.75   14.25
   5  -2   5   93.99   11.34
   5   2   5  219.43    8.57
   5   2   5  203.56   11.93
   5  -2   5  246.04   14.33
  -5  -2  -5  203.41   15.04
  -5   2  -5  139.00   11.11
  -5   2  -5  168.27   12.56
   5   2   5  190.92   12.63
   5  -2   5  212.45   13.48
   5   2   6  153.46    7.26
   5   2   6  147.02   10.06
  -5  -2  -6  143.11   12.96
  -5   2  -6  117.53   10.19
  -5   2  -6  148.54   11.40
   5   2   6  130.29   10.93
   5  -2   6  145.26   11.13
   5   2   7   75.97    5.34
   5   2   7   82.47    7.75
   5  -2   7   93.14    8.99
  -5  -2  -7   75.21   11.47
  -5   2  -7   68.21    7.85
  -5   2  -7   56.91    8.23
   5   2   7   73.17    8.51
   5  -2   7   79.59    8.41
   5   2   8   38.89    4.28
  -5  -2  -8   33.60    9.61
   5   2   8   55.38    6.33
   5  -2   8   76.17    7.94
  -5   2  -8   40.79    6.50
  -5   2  -8   41.75    7.33
   5   2   8   59.62    7.40
   5  -2   8   53.74    6.93
   5   2   9   11.49    4.33
   5  -2   9   12.11    3.81
  -5  -2  -9    1.83    4.44
   5  -2   9    0.98    4.01
   5   2   9    8.48    2.49
   5  -2   9    8.62    4.05
  -5  -2  -9    4.25    4.15
  -5   2  -9   -1.02   14.56
  -5   2  -9    5.43    3.70
  -5   2  -9    5.39    3.96
   5   2  10    2.56    3.43
   5  -2  10    0.20    2.94
   5  -2  10    3.23    3.20
   5   2  10    4.71    2.56
   5  -2  10   11.47    3.86
  -5  -2 -10   -0.60    3.41
  -5   2 -10    0.50   10.26
  -5   2 -10    2.01    3.09
  -5   2 -10    0.87    3.28
   5  -2  11   48.68    5.97
  -5  -2 -11   18.53    5.56
  -5   2 -11   24.83    6.62
  -5   2 -11   26.12    5.75
   5   2  11   41.84    5.98
   5  -2  11   34.93    5.32
   5   2  12    1.95    2.94
  -5  -2 -12    0.07    2.93
   5  -2  12    2.51    2.28
   5  -2  12    0.43    2.41
  -5  -2 -12   -0.14    3.11
  -5   2 -12   -0.68    2.85
  -5   2 -12    1.19    3.17
   5   2  13    7.89    3.10
  -5  -2 -13    1.13    3.33
   5  -2  13    9.73    2.86
   5  -2  13   11.86    2.96
  -5  -2 -13    2.37    3.24
  -5   2 -13   11.60    3.05
  -5  -2 -13    7.46    9.92
  -5   2 -13    5.01    3.55
  -5  -2 -14   71.86    7.67
   5  -2  14  135.69    7.06
  -5   2 -14   84.94    6.38
  -5  -2 -14   62.65    9.27
  -5   2 -14  100.15    8.90
   5   2  14  147.42    8.00
   5  -2  14  123.10    7.41
  -5  -2 -14   64.21    7.54
   5   2  15    4.61    2.30
  -5  -2 -15    4.06    2.97
   5  -2  15    2.23    2.27
  -5  -2 -15    3.09    2.91
  -5   2 -15    6.02    3.22
   5   2  16   22.47    2.70
   5  -3 -17    8.76    4.62
   5   3 -16    7.36    2.32
  -5   3  16    5.38    1.93
   5  -3 -16    4.49    3.48
   5   3 -15   28.20    3.50
  -5   3  15   16.38    3.09
   5  -3 -15   21.81    3.63
   5  -3 -15   11.64    4.43
   5   3 -14    6.82    2.56
  -5   3  14    4.65    2.18
   5  -3 -14    3.58    2.53
   5  -3 -14    2.49    3.53
   5   3 -13  104.00    6.86
   5  -3 -13   87.41    6.07
   5   3 -12   77.61    6.03
  -5   3  12   69.40    4.81
   5  -3 -12   46.67    5.33
   5  -3 -12   48.85    6.97
   5   3 -11    2.73    2.39
  -5   3  11    1.09    2.38
   5  -3 -11    2.23    2.57
   5  -3 -11    2.28    3.60
   5   3 -10   19.85    3.76
   5  -3 -10   19.18    3.86
   5  -3 -10   17.45    5.13
  -5   3  10   14.42    3.40
   5   3  -9   12.59    3.32
   5   3  -9   13.95    2.82
   5  -3  -9   10.82    3.37
   5  -3  -9   10.77    4.50
  -5   3   9    6.60    3.06
  -5   3   9    2.58    3.08
  -5   3   9    0.87    3.76
   5   3  -8   23.53    4.26
   5   3  -8   28.02    3.61
   5  -3  -8   26.89    4.64
   5  -3  -8   29.52    5.53
  -5   3   8   18.90    3.64
   5   3  -7   14.05    3.40
   5   3  -7   16.76    3.06
   5  -3  -7   13.40    3.66
   5  -3  -7   13.00    4.89
   5   3  -6    1.90    2.40
   5   3  -6    3.39    2.27
   5  -3  -6    2.32    2.92
   5  -3  -6   -1.30    3.90
  -5   3   6    1.61    2.91
  -5   3   6   -0.90   10.86
   5   3  -5    1.65    2.63
   5   3  -5    6.48    2.65
   5  -3  -5    3.85    3.62
   5  -3  -5   -2.22    3.59
  -5   3   5    3.57    2.96
  -5   3   5   -7.90   13.24
   5   3  -4  138.20    7.61
   5   3  -4  129.85    7.16
   5  -3  -4  154.85   10.47
   5  -3  -4  158.67    8.69
   5   3  -3   40.88    4.73
   5   3  -3   46.23    4.81
   5  -3  -3   49.25    5.82
  -5   3   3   44.30    6.42
  -5   3   3   29.46    5.27
  -5   3   3   23.14   17.90
   5   3  -2   45.07    4.57
   5   3  -2   53.40    4.71
   5  -3  -2   65.16    7.25
   5  -3  -2   44.06    5.38
  -5   3   2   20.80    5.03
  -5   3   2   17.08   18.57
   5   3  -1   19.44    3.10
   5   3  -1   17.50    3.20
   5  -3  -1   -3.22    5.77
   5  -3  -1   26.71    5.15
   5  -3  -1   11.49    3.76
  -5   3   1   14.19    4.72
  -5   3   1    2.67   18.15
   5   3   0   20.09    3.40
   5  -3   0   -6.89    5.89
   5  -3   0   18.78    4.87
   5  -3   0   17.00    3.73
  -5   3   0    9.16    4.78
  -5   3   0    1.89   18.46
   5   3   1   35.85    3.92
   5  -3   1    8.03    5.66
   5  -3   1   38.63    5.87
   5  -3   1   33.99    4.57
  -5   3  -1   12.13    5.76
  -5   3  -1    4.23   18.15
   5   3   2   27.75    3.54
   5  -3   2    2.94    5.23
  -5  -3  -2   14.93    7.02
   5   3   2   20.72    5.02
   5  -3   2   29.30    5.18
   5  -3   2   27.75    4.05
  -5   3  -2   10.28    5.90
  -5   3  -2    0.78   15.96
  -5   3  -2   13.86    4.74
   5   3   3   11.09    2.51
   5  -3   3    3.07    4.69
  -5  -3  -3    9.62    5.58
   5   3   3    9.18    3.83
   5  -3   3   15.41    4.27
   5  -3   3   11.37    3.05
  -5  -3  -3    6.46    2.51
  -5   3  -3    4.80    4.77
  -5   3  -3    9.42    3.88
   5  -3   4    2.12    4.02
   5   3   4    6.73    2.24
  -5  -3  -4    3.56    3.96
   5   3   4    9.28    3.84
   5  -3   4   10.46    3.79
   5  -3   4    7.84    2.67
  -5  -3  -4    7.81    2.50
  -5   3  -4    6.73    4.58
  -5   3  -4    1.60    3.09
   5   3   5   22.51    3.09
   5   3   5   24.29    4.87
   5  -3   5   28.99    5.28
  -5  -3  -5   25.85    3.12
  -5   3  -5   13.42    4.67
  -5   3  -5   14.68    4.24
   5   3   5   21.46    4.35
   5   3   6    7.50    2.10
   5   3   6    5.82    3.36
   5  -3   6    7.46    3.56
  -5   3  -6    3.71    3.26
  -5   3  -6    2.75    3.25
   5   3   6    8.79    3.29
   5   3   7    3.11    1.95
   5   3   7    6.16    3.25
   5  -3   7    7.52    3.23
  -5   3  -7    2.67    2.84
  -5   3  -7    5.56    3.27
   5   3   7    1.49    2.78
   5   3   8   10.14    2.17
   5   3   8    9.28    3.27
   5  -3   8   11.67    3.48
  -5   3  -8    4.58    2.45
  -5   3  -8    6.71    3.14
  -5   3  -8    7.94    3.77
   5   3   8    7.42    2.94
   5   3   9   18.31    3.57
   5   3   9   27.79    2.85
   5   3   9   24.86    4.30
  -5  -3  -9   23.53    5.18
   5  -3   9   28.39    4.48
  -5   3  -9   14.22    3.83
  -5   3  -9   19.27    4.20
  -5   3  -9   25.64    4.95
   5   3  10    0.85    1.96
   5  -3  10    3.46    2.40
  -5  -3 -10    5.11    3.01
  -5   3 -10   -1.11    2.46
  -5   3 -10    1.82    2.20
  -5   3 -10    0.83    2.34
   5  -3  11   15.30    3.09
  -5  -3 -11    6.40    3.47
  -5   3 -11   11.67    2.99
  -5   3 -11   10.59    3.15
  -5   3 -11   11.65    3.63
   5   3  11   15.74    3.01
  -5  -3 -12   11.79    3.92
   5  -3  12   26.31    3.67
  -5  -3 -12   14.75    3.83
  -5   3 -12   14.45    2.73
  -5  -3 -12    0.66    6.63
   5   3  12   23.76    3.65
  -5   3 -12   16.47    3.78
  -5  -3 -13    6.90    3.01
   5  -3  13   12.78    2.64
  -5  -3 -13    2.31    2.96
  -5   3 -13   12.68    3.28
   5   3  13    8.52    1.97
   5   4 -14   23.72    2.39
   5   4 -13   23.61    2.89
  -5   4  13   17.78    2.71
   5  -4 -13   20.54    3.50
   5   4 -12   10.21    2.31
  -5   4  12    7.76    2.23
   5  -4 -12   13.39    2.49
   5  -4 -12   10.20    3.62
   5   4 -11   18.38    2.93
  -5   4  11   20.16    2.80
  -5   4  11   15.59    2.62
   5  -4 -11   22.32    2.99
   5  -4 -11   19.63    4.37
   5   4 -10   15.97    2.85
  -5   4  10   21.80    2.81
  -5   4  10   11.08    2.58
   5  -4 -10   23.28    3.05
   5  -4 -10   17.03    3.96
   5   4  -9    6.10    2.23
  -5   4   9    6.56    1.93
   5   4  -9    6.76    2.00
   5  -4  -9   11.33    2.41
   5  -4  -9   10.52    3.43
  -5   4   9    3.91    2.12
   5   4  -8    7.25    2.52
   5   4  -8   13.48    2.21
  -5   4   8    8.57    2.43
   5  -4  -8   14.97    2.96
   5  -4  -8   12.51    3.50
  -5   4   8    7.16    2.06
   5   4  -7   18.88    3.19
   5   4  -7   26.26    2.96
  -5   4   7   20.80    3.17
   5  -4  -7   22.14    3.56
   5  -4  -7   22.08    3.91
  -5   4   7   13.90    2.76
   5   4  -6    6.51    2.30
   5   4  -6   10.78    2.39
   5  -4  -6    4.32    2.55
  -5   4   6    4.92    2.29
   5   4  -5   10.05    2.60
   5   4  -5   18.25    2.87
   5  -4  -5   14.41    3.21
  -5   4   5   11.69    2.42
  -5   4   5    8.12    2.57
   5   4  -4   22.99    3.27
   5   4  -4   31.30    3.53
   5  -4  -4   29.12    4.12
  -5   4   4   27.42    3.52
  -5   4   4   16.74    3.54
   5   4  -3    6.56    2.19
   5   4  -3   14.19    2.79
  -5   4   3   14.75    3.08
   5  -4  -3    9.91    3.22
  -5   4   3    8.96    3.13
   5   4  -2    1.24    2.38
   5  -4  -2   24.99    4.34
   5  -4  -2   26.34    3.87
  -5   4   2    5.07    2.66
  -5   4   2    4.65    2.70
   5   4  -1  153.43    6.56
   5  -4  -1  171.94    8.81
   5  -4  -1  141.33    7.05
  -5   4   1   80.91    6.40
  -5   4   1   68.91    5.85
   5   4   0    4.82    2.51
   5  -4   0   25.23    4.41
   5  -4   0   15.49    3.40
  -5   4   0    6.46    3.84
  -5   4   0   19.79    3.78
   5   4   1   59.00    4.12
   5  -4   1   68.34    5.85
   5  -4   1   56.67    4.52
  -5   4  -1   27.33    4.49
  -5   4  -1   30.39    4.19
   5   4   2    7.01    2.02
   5  -4   2    9.73    2.89
   5  -4   2   -2.69    2.52
  -5   4  -2    1.00    2.57
  -5  -4  -2    5.18    2.04
  -5   4  -2    3.17    2.47
   5   4   3   88.78    4.74
   5  -4   3  100.47    6.80
   5  -4   3   86.80    4.73
  -5   4  -3   35.72    4.94
  -5  -4  -3   56.51    3.79
  -5   4  -3   46.79    4.81
   5   4   4    3.75    1.58
   5  -4   4    3.44    2.18
   5  -4   4    3.64    1.83
  -5   4  -4    1.68    2.19
  -5  -4  -4    4.44    1.73
  -5   4  -4    2.09    1.92
  -5   4  -4    1.04    2.71
   5   4   5   40.95    3.01
   5  -4   5   45.98    4.56
  -5   4  -5   23.17    3.84
  -5  -4  -5   28.42    2.83
  -5   4  -5   18.70    2.99
  -5   4  -5   24.63    3.53
   5   4   6    3.19    1.51
   5  -4   6    3.47    1.83
  -5   4  -6    0.81    1.99
  -5  -4  -6    1.85    2.03
  -5   4  -6    0.66    2.05
  -5   4  -6    0.07    2.15
   5   4   7   23.61    2.38
  -5  -4  -7   33.02    4.17
   5  -4   7   25.65    3.34
  -5   4  -7   11.97    2.96
  -5  -4  -7   13.10    2.42
  -5   4  -7   24.75    3.61
  -5  -4  -8   41.31    4.95
   5  -4   8   56.11    4.49
  -5   4  -8   47.68    4.62
  -5  -4  -9   21.94    5.77
   5  -4   9  127.52    6.29
  -5   4  -9   53.87    4.38
  -5   4  -9  110.56    5.95
   5   5  -3    2.48    1.37
   5  -5  -3   11.87    2.00
   5   5  -2    6.15    1.60
   5  -5  -2   16.25    2.17
   5   5  -1   18.53    2.17
   6   0 -16    1.41    2.77
   6   0 -15    3.70    2.79
   6   0 -15    5.37    4.47
   6   0 -14    4.00    3.44
   6   0 -14   12.25    5.30
   6   0 -13   -2.63    3.18
   6   0 -12   -0.01    3.58
   6   0 -11    2.05    3.52
   6   0 -10    7.57    4.36
   6   0  -9    3.26    3.86
   6   0  -8    2.68    3.49
   6   0  -6   24.49    8.48
   6   0  -6    7.27    4.28
   6   0  -5    8.62    6.46
   6   0  -5   -3.23    4.36
   6   0  -4   13.91    5.50
   6   0  -4    6.98    3.76
   6   0  -3   17.32    5.40
   6   0  -3   14.27    4.23
   6   0  -2    8.36    4.83
   6   0  -2   17.89    4.14
   6   0  -1   -2.23    6.12
   6   0   0  255.66   11.72
   6   0   1   -6.62    6.01
   6   0   2   11.17    5.92
   6   0   3    1.09    6.26
   6   0   4    7.94    7.76
   6   0   5    3.74    9.37
   6   0   6    6.34   10.51
  -6   0  -6    0.05    3.46
   6   0   7    6.44   10.69
  -6   0  -7    1.06    5.92
  -6   0  -8    5.45    2.71
   6   0   8    5.30    8.69
  -6   0  -8    0.66    6.36
  -6   0  -9    2.24    2.71
   6   0   9    5.28    7.64
  -6   0  -9   -3.02    5.93
   6   0  10    0.51    8.20
  -6   0 -10   -0.11    4.42
  -6   0 -10    2.49    2.90
  -6   0 -11   -3.07    8.40
  -6   0 -11    1.71    2.49
  -6   0 -11   -2.79    2.95
  -6   0 -12    0.30    2.28
  -6   0 -12    1.13    2.27
   6  -1 -16    5.52    2.83
   6  -1 -15    1.11    2.61
   6  -1 -15    2.40    2.84
   6   1 -14    7.17    4.05
   6  -1 -14   18.60    4.22
   6  -1 -14   20.58    6.11
   6   1 -13    2.00    3.42
   6  -1 -13    6.47    3.31
   6  -1 -13    6.74    5.65
   6   1 -12    4.57    2.85
   6   1 -12   -1.19    3.52
   6  -1 -12    0.31    3.26
   6   1 -11    6.47    4.65
   6  -1 -11   13.24    4.76
   6   1 -10   20.92    4.31
   6   1 -10    9.17    4.60
   6  -1 -10   10.18    4.68
   6   1  -9   35.25    5.23
   6   1  -9   19.37    5.38
   6  -1  -9   19.55    5.67
   6   1  -8    6.12    4.94
   6  -1  -8    7.99    5.40
   6   1  -7   30.65    5.07
   6   1  -7   50.65    5.08
   6   1  -7    5.03    5.19
   6  -1  -7   -4.34    5.64
   6  -1  -6   39.30    6.57
   6   1  -6   26.74    5.54
   6  -1  -5   21.75   11.78
   6   1  -5    8.86    3.38
   6  -1  -4   69.58   13.48
   6   1  -4   56.06    6.32
   6  -1  -4   75.84    7.61
   6   1  -3   18.59    4.17
   6   1  -3   39.64    5.21
   6  -1  -3   43.04   14.39
   6  -1  -3   31.29    5.27
   6   1  -2   87.67    6.54
   6  -1  -2   92.17    6.99
   6   1  -1   27.16    4.53
   6  -1  -1   42.16    5.00
   6   1   0   22.91    4.26
   6  -1   0    1.83   13.83
   6  -1   1   10.12   13.09
  -6   1  -1   -0.54    4.61
   6  -1   2   -2.03   13.12
   6   1   2    7.64    3.05
   6  -1   3    8.79   13.13
  -6   1  -3    8.31    5.17
  -6   1  -3   14.78    5.77
  -6  -1  -4   29.70    4.63
   6   1   4   25.34    4.35
   6  -1   4   -3.30   10.85
  -6   1  -4    1.46    4.38
  -6   1  -4    4.80    4.40
   6   1   5   24.22    4.50
   6  -1   5    0.83    9.80
  -6   1  -5   15.37    4.94
  -6   1  -5    6.51    4.72
  -6  -1  -5   31.48    4.51
   6   1   6   92.31    8.08
   6  -1   6   -2.49   10.90
  -6   1  -6   65.74    7.55
  -6   1  -6   19.59    7.80
  -6  -1  -6  106.62    7.58
   6   1   7   35.91    6.80
   6  -1   7   -2.42   10.39
  -6   1  -7   28.59    5.28
  -6   1  -7   10.75    5.45
  -6  -1  -7   41.46    5.09
   6   1   8   43.91    8.64
  -6   1  -8   43.36    5.77
  -6  -1  -8   54.00    5.50
   6  -1   9   -2.45    8.13
   6   1   9   20.98    7.87
  -6   1  -9   -6.53   10.88
  -6   1  -9   14.75    4.13
  -6  -1  -9    5.97    7.63
  -6   1  -9    8.87    4.37
  -6  -1  -9   26.89    4.16
   6  -1  10    0.87    4.38
   6   1  10   15.42    7.04
  -6   1 -10   -2.01    6.01
  -6   1 -10   13.25    3.87
  -6  -1 -10   -1.60    7.69
  -6   1 -10    8.52    4.13
  -6  -1 -10   20.86    3.96
  -6  -1 -11    1.22    1.97
  -6   1 -11   -0.08    2.24
  -6  -1 -11    0.61    4.91
  -6   1 -11    0.32    2.43
  -6  -1 -12   -0.56    2.21
   6   2 -14   10.89    2.87
   6  -2 -14    6.10    2.90
   6   2 -13    0.31    2.13
   6  -2 -13   -1.77    2.51
   6   2 -12    0.05    1.81
   6  -2 -12    1.09    2.23
   6   2 -11    6.89    2.59
   6  -2 -11    2.45    2.84
   6   2 -10  114.87    6.90
   6  -2 -10   38.00    6.65
   6   2  -9   94.82    6.58
   6  -2  -9   29.74    6.55
   6   2  -8    1.19    2.43
   6  -2  -8    2.04    3.11
   6   2  -7   31.24    4.32
   6   2  -7   35.84    3.94
   6   2  -6   20.29    3.99
   6   2  -6   26.15    3.73
   6   2  -5   54.23    5.26
   6   2  -5   70.70    5.29
   6   2  -4   27.75    3.97
   6   2  -4   40.89    4.21
   6  -2  -4   36.74    9.14
   6  -2  -4   20.70    4.72
   6   2  -3    0.48    2.40
   6  -2  -3   -1.73   10.89
   6   2  -3    3.88    2.61
   6  -2  -3    1.09    3.16
  -6   2   3   -5.40    6.27
   6   2  -2   14.86    2.82
   6  -2  -2    5.02   11.72
   6   2  -2   12.62    3.25
   6  -2  -2   14.82    3.59
   6   2  -1   18.15    3.55
   6  -2  -1   -7.41   12.68
   6  -2  -1   23.12    3.91
  -6   2   1   -0.16    8.69
   6   2   0   19.98    3.53
   6  -2   0  -11.59   12.41
   6  -2   0   41.05    5.39
   6  -2   0   22.64    3.63
  -6   2   0    4.44   10.20
   6   2   1   19.35    3.33
   6  -2   1   -5.53   11.89
  -6   2  -1    0.37   10.51
   6   2   2   16.25    3.18
   6  -2   2    8.93   11.33
   6  -2   2   28.13    4.34
  -6   2  -2    2.87   10.47
   6  -2   3   -4.53   10.03
   6   2   3    4.51    2.17
   6  -2   3    9.40    3.09
  -6  -2  -3    9.46    2.97
  -6   2  -3    5.81    9.74
  -6   2  -3    0.83    2.48
   6   2   4   21.02    3.34
   6  -2   4    3.34    8.48
  -6  -2  -4   25.37    4.00
   6  -2   4   38.87    4.36
  -6   2  -4    8.75    8.75
  -6   2  -4    9.75    3.16
   6   2   5   33.64    3.82
   6  -2   5    0.03    7.29
  -6  -2  -5   31.61    4.22
   6  -2   5   50.80    4.65
  -6   2  -5    8.88    7.46
  -6   2  -5   16.66    3.82
  -6  -2  -6   28.17    4.37
   6   2   6   34.18    3.70
   6  -2   6   -3.55    5.41
  -6  -2  -6   28.59    4.23
   6  -2   6   56.98    4.77
  -6   2  -6    6.35    5.47
  -6   2  -6   18.17    3.97
  -6  -2  -7   13.62    3.39
   6   2   7   16.61    3.16
   6  -2   7   -3.28    3.73
   6  -2   7   32.23    3.97
  -6  -2  -7   13.80    3.62
  -6   2  -7    0.30    3.38
  -6   2  -7   11.16    3.32
  -6  -2  -8    1.73    2.42
   6   2   8    3.68    4.19
  -6  -2  -8    2.95    2.59
  -6   2  -8    1.09    2.12
  -6   2  -8    2.33    2.64
  -6  -2  -9    1.99    2.52
  -6   2  -9    0.16    2.19
  -6  -2  -9    4.85    6.75
  -6   2  -9    5.17    2.78
  -6   2 -10    0.48    1.16
  -6  -2 -10    2.83    5.64
  -6   2 -10   -0.33    1.22
   6   3 -11    5.04    1.94
  -6   3  11    3.10    1.44
   6  -3 -11    2.37    2.08
   6   3 -10   22.39    3.54
   6  -3 -10    8.11    3.76
   6   3  -9   34.58    4.02
   6  -3  -9    7.86    4.22
   6   3  -8    4.35    2.20
  -6   3   8    4.37    2.14
   6  -3  -8    3.46    2.45
   6   3  -7    4.48    2.21
   6   3  -7    6.13    2.36
   6  -3  -7    1.84    2.42
  -6   3   7    1.96    2.15
   6   3  -6    2.65    2.04
   6   3  -6    3.50    2.15
   6  -3  -6   -2.13    2.53
  -6   3   6    0.28    1.78
   6   3  -5    2.90    2.03
   6   3  -5    1.70    1.83
   6  -3  -5   -0.48    2.28
  -6   3   5    1.57    1.76
   6   3  -4    1.28    2.47
   6   3  -4    6.03    2.18
  -6   3   4    1.65    1.65
   6   3  -3   44.59    4.08
   6  -3  -3   40.25    4.45
  -6   3   3   32.24    3.65
   6  -3  -2   53.75    4.61
  -6   3   2   54.53    4.61
   6   3  -1    3.14    2.01
   6  -3  -1    7.68    2.59
  -6   3   1   16.55    3.03
  -6   3   1   13.14    3.21
   6   3   0   -0.50    1.73
   6  -3   0    0.27    2.52
  -6   3   0    0.50    1.65
  -6   3   0   -0.42    2.25
   6   3   1   10.34    2.33
  -6   3  -1    6.43    2.34
  -6   3  -1    5.31    2.42
   6   3   2    5.37    1.95
  -6   3  -2    2.70    2.04
  -6   3  -2    3.61    1.99
  -6   3  -2    1.57    2.04
   6   3   3    3.94    1.72
   6  -3   3    8.08    2.56
  -6  -3  -3    4.42    2.88
  -6   3  -3    1.66    1.82
  -6   3  -3    1.87    1.81
  -6   3  -3    1.35    1.93
   6   3   4    1.42    1.69
   6  -3   4    4.64    2.34
  -6  -3  -4    1.29    2.54
  -6   3  -4   -0.96    1.83
  -6   3  -4    1.09    1.97
  -6   3  -4    0.07    1.75
   6   3   5    9.15    2.20
  -6  -3  -5    6.76    2.46
  -6   3  -5    1.84    2.06
  -6   3  -5    5.17    2.16
  -6   3  -6    1.38    1.82
  -6   3  -6    1.02    1.54
   7   0  -1   22.98    8.59
   7   0   0    5.72    8.64
   7   0   1   -6.29    8.60
   7   0   2   -4.18    8.42
   0   0   0    0.00    0.00


TITL 17090410 in P2(1)/m
REM P2(1)/m (#11 in standard setting)
CELL 1.54184   5.696645   5.622276  22.235518  90.0000  95.8947  90.0000
ZERR   13.00   0.000313   0.000241   0.001377   0.0000   0.0059   0.0000
LATT  1
SYMM -x, y+1/2,-z
SFAC C H N O
UNIT 13.00 13.00 13.00 13.00
TREF
HKLF 4
END
_computing_structure_solution     'SHELXT 2014/5 (Sheldrick, 2014)'
;
_shelx_hkl_checksum              58488
_shelx_shelxl_version_number     2014/7
_olex2_submission_special_instructions 'No special instructions were received'
_oxdiff_exptl_absorpt_empirical_details
;
Empirical correction (ABSPACK) includes:
- Absorption correction using spherical harmonics
- Frame scaling
;
_oxdiff_exptl_absorpt_empirical_full_max 2.130
_oxdiff_exptl_absorpt_empirical_full_min 0.486
loop_
_space_group_symop_operation_xyz
'x, y, z'
'-x, y+1/2, -z'
loop_
_atom_site_label
_atom_site_type_symbol
_atom_site_fract_x
_atom_site_fract_y
_atom_site_fract_z
_atom_site_U_iso_or_equiv
_atom_site_adp_type
_atom_site_occupancy
_atom_site_site_symmetry_order
_atom_site_calc_flag
_atom_site_refinement_flags_posn
O4 O 0.3748(6) 0.4385(6) 0.46935(14) 0.0377(8) Uani 1 1 d .
O5 O 0.6788(6) 0.7451(6) 0.42094(15) 0.0387(8) Uani 1 1 d .
H5 H 0.6417 0.7377 0.4556 0.058 Uiso 1 1 calc GR
O3 O 0.1574(6) 0.0902(6) 0.39892(16) 0.0441(9) Uani 1 1 d .
H3 H 0.0852 0.0092 0.3725 0.066 Uiso 1 1 calc GR
O2 O 0.8479(6) 0.5056(6) 0.24542(16) 0.0429(8) Uani 1 1 d .
O1 O 0.9662(6) 0.7942(7) 0.30967(16) 0.0452(8) Uani 1 1 d .
O6 O 0.1345(9) 0.3237(8) 0.1001(2) 0.0774(16) Uani 1 1 d .
C7 C 0.5944(8) 0.5538(8) 0.3896(2) 0.0348(10) Uani 1 1 d .
C7A C 0.6669(8) 0.5051(8) 0.3326(2) 0.0360(10) Uani 1 1 d .
C5 C 0.3290(9) 0.2144(8) 0.3749(2) 0.0379(10) Uani 1 1 d .
C3A C 0.5736(8) 0.3132(8) 0.2988(2) 0.0373(10) Uani 1 1 d .
C6 C 0.4308(9) 0.4017(8) 0.4113(2) 0.0364(10) Uani 1 1 d .
C3 C 0.6898(9) 0.2996(9) 0.2414(2) 0.0399(10) Uani 1 1 d .
H3A H 0.7837 0.1536 0.2415 0.048 Uiso 1 1 calc R
C1 C 0.8406(8) 0.6215(9) 0.2983(2) 0.0382(10) Uani 1 1 d .
C8 C 0.5224(9) 0.3109(9) 0.1836(2) 0.0408(11) Uani 1 1 d .
H8A H 0.4216 0.1715 0.1818 0.049 Uiso 1 1 calc R
H8B H 0.6147 0.3040 0.1494 0.049 Uiso 1 1 calc R
C4 C 0.3994(9) 0.1694(8) 0.3184(2) 0.0402(11) Uani 1 1 d .
H4 H 0.3322 0.0468 0.2943 0.048 Uiso 1 1 calc R
C9 C 0.3664(10) 0.5319(9) 0.1773(2) 0.0433(11) Uani 1 1 d .
H9A H 0.2972 0.5577 0.2149 0.052 Uiso 1 1 calc R
H9B H 0.4633 0.6691 0.1704 0.052 Uiso 1 1 calc R
C10 C 0.1711(10) 0.5112(9) 0.1261(2) 0.0447(12) Uani 1 1 d .
C11 C 0.0238(10) 0.7279(10) 0.1104(2) 0.0473(12) Uani 1 1 d .
H11A H 0.1269 0.8557 0.1001 0.057 Uiso 1 1 calc R
H11B H -0.0493 0.7771 0.1459 0.057 Uiso 1 1 calc R
C14 C 0.1551(9) 0.5662(9) 0.4720(3) 0.0472(12) Uani 1 1 d .
H14A H 0.0302 0.4842 0.4482 0.071 Uiso 1 1 calc GR
H14B H 0.1702 0.7240 0.4563 0.071 Uiso 1 1 calc GR
H14C H 0.1193 0.5752 0.5132 0.071 Uiso 1 1 calc GR
C12 C -0.1679(11) 0.6939(11) 0.0584(3) 0.0520(13) Uani 1 1 d .
H12A H -0.0946 0.6586 0.0220 0.062 Uiso 1 1 calc R
H12B H -0.2638 0.5580 0.0671 0.062 Uiso 1 1 calc R
C13 C -0.3265(11) 0.9088(12) 0.0470(3) 0.0564(14) Uani 1 1 d .
H13A H -0.4341 0.8823 0.0115 0.085 Uiso 1 1 calc GR
H13B H -0.2319 1.0466 0.0412 0.085 Uiso 1 1 calc GR
H13C H -0.4140 0.9338 0.0811 0.085 Uiso 1 1 calc GR
loop_
_atom_site_aniso_label
_atom_site_aniso_U_11
_atom_site_aniso_U_22
_atom_site_aniso_U_33
_atom_site_aniso_U_23
_atom_site_aniso_U_13
_atom_site_aniso_U_12
O4 0.0371(17) 0.0321(16) 0.0439(17) 0.0020(13) 0.0033(13) 0.0033(14)
O5 0.0378(18) 0.0327(16) 0.0455(18) -0.0046(13) 0.0030(14) -0.0042(13)
O3 0.047(2) 0.0350(19) 0.0502(19) 0.0012(14) 0.0059(15) -0.0123(15)
O2 0.0418(18) 0.0402(19) 0.0476(18) -0.0026(15) 0.0093(14) -0.0080(15)
O1 0.0404(18) 0.0403(18) 0.055(2) -0.0020(16) 0.0061(15) -0.0131(16)
O6 0.094(3) 0.039(2) 0.089(3) -0.010(2) -0.039(3) 0.005(2)
C7 0.035(2) 0.026(2) 0.042(2) 0.0026(17) -0.0005(18) 0.0000(17)
C7A 0.035(2) 0.028(2) 0.043(2) 0.0009(18) 0.0006(18) -0.0024(19)
C5 0.040(3) 0.026(2) 0.048(3) 0.0061(18) 0.002(2) -0.0050(19)
C3A 0.037(2) 0.027(2) 0.047(2) 0.0021(19) 0.0013(19) -0.0016(19)
C6 0.041(2) 0.027(2) 0.041(2) 0.0045(17) 0.000(2) -0.0009(18)
C3 0.041(3) 0.031(2) 0.048(3) -0.005(2) 0.005(2) -0.002(2)
C1 0.031(2) 0.038(2) 0.045(2) 0.0042(19) 0.0027(18) -0.004(2)
C8 0.044(3) 0.034(2) 0.044(2) -0.0010(19) 0.004(2) -0.007(2)
C4 0.046(3) 0.028(2) 0.045(3) -0.0011(18) 0.002(2) -0.0057(19)
C9 0.050(3) 0.033(2) 0.047(3) 0.0007(19) 0.003(2) -0.005(2)
C10 0.050(3) 0.034(2) 0.049(3) 0.001(2) -0.001(2) -0.006(2)
C11 0.048(3) 0.040(3) 0.054(3) 0.001(2) 0.004(2) 0.000(2)
C14 0.047(3) 0.036(3) 0.059(3) 0.007(2) 0.009(2) 0.011(2)
C12 0.054(3) 0.045(3) 0.055(3) -0.001(2) -0.002(2) 0.004(3)
C13 0.055(3) 0.049(3) 0.064(3) -0.002(3) -0.002(3) 0.005(3)
loop_
_atom_type_symbol
_atom_type_description
_atom_type_scat_dispersion_real
_atom_type_scat_dispersion_imag
_atom_type_scat_source
C C 0.0181 0.0091 'International Tables Vol C Tables 4.2.6.8 and 6.1.1.4'
H H 0.0000 0.0000 'International Tables Vol C Tables 4.2.6.8 and 6.1.1.4'
O O 0.0492 0.0322 'International Tables Vol C Tables 4.2.6.8 and 6.1.1.4'
loop_
_geom_angle_atom_site_label_1
_geom_angle_atom_site_label_2
_geom_angle_atom_site_label_3
_geom_angle
C6 O4 C14 113.4(4)
C7 O5 H5 109.5
C5 O3 H3 109.5
C1 O2 C3 111.2(4)
O5 C7 C7A 120.2(4)
O5 C7 C6 122.1(4)
C6 C7 C7A 117.7(4)
C7 C7A C1 131.5(4)
C3A C7A C7 120.7(4)
C3A C7A C1 107.8(4)
O3 C5 C6 115.3(4)
O3 C5 C4 123.6(4)
C4 C5 C6 121.1(4)
C7A C3A C3 108.8(4)
C4 C3A C7A 122.0(4)
C4 C3A C3 129.2(4)
O4 C6 C7 117.5(4)
O4 C6 C5 121.8(4)
C7 C6 C5 120.7(4)
O2 C3 C3A 103.4(4)
O2 C3 H3A 109.3
O2 C3 C8 110.3(4)
C3A C3 H3A 109.3
C3A C3 C8 115.1(4)
C8 C3 H3A 109.3
O2 C1 C7A 108.8(4)
O1 C1 O2 119.8(4)
O1 C1 C7A 131.4(5)
C3 C8 H8A 108.6
C3 C8 H8B 108.6
C3 C8 C9 114.9(4)
H8A C8 H8B 107.5
C9 C8 H8A 108.6
C9 C8 H8B 108.6
C5 C4 C3A 117.6(4)
C5 C4 H4 121.2
C3A C4 H4 121.2
C8 C9 H9A 109.1
C8 C9 H9B 109.1
H9A C9 H9B 107.8
C10 C9 C8 112.5(4)
C10 C9 H9A 109.1
C10 C9 H9B 109.1
O6 C10 C9 120.3(5)
O6 C10 C11 122.1(5)
C11 C10 C9 117.6(4)
C10 C11 H11A 108.6
C10 C11 H11B 108.6
C10 C11 C12 114.6(4)
H11A C11 H11B 107.6
C12 C11 H11A 108.6
C12 C11 H11B 108.6
O4 C14 H14A 109.5
O4 C14 H14B 109.5
O4 C14 H14C 109.5
H14A C14 H14B 109.5
H14A C14 H14C 109.5
H14B C14 H14C 109.5
C11 C12 H12A 108.9
C11 C12 H12B 108.9
H12A C12 H12B 107.7
C13 C12 C11 113.4(5)
C13 C12 H12A 108.9
C13 C12 H12B 108.9
C12 C13 H13A 109.5
C12 C13 H13B 109.5
C12 C13 H13C 109.5
H13A C13 H13B 109.5
H13A C13 H13C 109.5
H13B C13 H13C 109.5
loop_
_geom_bond_atom_site_label_1
_geom_bond_atom_site_label_2
_geom_bond_distance
O4 C6 1.377(6)
O4 C14 1.450(6)
O5 H5 0.8200
O5 C7 1.343(5)
O3 H3 0.8200
O3 C5 1.355(6)
O2 C3 1.464(6)
O2 C1 1.348(6)
O1 C1 1.218(6)
O6 C10 1.210(7)
C7 C7A 1.401(7)
C7 C6 1.387(6)
C7A C3A 1.389(6)
C7A C1 1.464(7)
C5 C6 1.415(6)
C5 C4 1.382(7)
C3A C3 1.497(7)
C3A C4 1.385(7)
C3 H3A 0.9800
C3 C8 1.521(6)
C8 H8A 0.9700
C8 H8B 0.9700
C8 C9 1.525(7)
C4 H4 0.9300
C9 H9A 0.9700
C9 H9B 0.9700
C9 C10 1.513(7)
C10 C11 1.500(7)
C11 H11A 0.9700
C11 H11B 0.9700
C11 C12 1.518(7)
C14 H14A 0.9600
C14 H14B 0.9600
C14 H14C 0.9600
C12 H12A 0.9700
C12 H12B 0.9700
C12 C13 1.515(8)
C13 H13A 0.9600
C13 H13B 0.9600
C13 H13C 0.9600
loop_
_geom_torsion_atom_site_label_1
_geom_torsion_atom_site_label_2
_geom_torsion_atom_site_label_3
_geom_torsion_atom_site_label_4
_geom_torsion
O5 C7 C7A C3A -177.4(4)
O5 C7 C7A C1 4.3(7)
O5 C7 C6 O4 -6.7(6)
O5 C7 C6 C5 174.1(4)
O3 C5 C6 O4 6.1(6)
O3 C5 C6 C7 -174.7(4)
O3 C5 C4 C3A 178.7(4)
O2 C3 C8 C9 -59.2(5)
O6 C10 C11 C12 -1.7(9)
C7 C7A C3A C3 -177.8(4)
C7 C7A C3A C4 3.0(7)
C7 C7A C1 O2 179.4(5)
C7 C7A C1 O1 -1.4(9)
C7A C7 C6 O4 174.8(4)
C7A C7 C6 C5 -4.4(6)
C7A C3A C3 O2 -2.1(5)
C7A C3A C3 C8 -122.4(5)
C7A C3A C4 C5 -3.6(7)
C3A C7A C1 O2 1.0(5)
C3A C7A C1 O1 -179.8(5)
C3A C3 C8 C9 57.2(6)
C6 C7 C7A C3A 1.2(7)
C6 C7 C7A C1 -177.1(5)
C6 C5 C4 C3A 0.3(7)
C3 O2 C1 O1 178.2(4)
C3 O2 C1 C7A -2.5(5)
C3 C3A C4 C5 177.3(5)
C3 C8 C9 C10 -168.4(4)
C1 O2 C3 C3A 2.8(5)
C1 O2 C3 C8 126.3(4)
C1 C7A C3A C3 0.8(5)
C1 C7A C3A C4 -178.4(4)
C8 C9 C10 O6 8.8(8)
C8 C9 C10 C11 -172.7(5)
C4 C5 C6 O4 -175.3(4)
C4 C5 C6 C7 3.8(7)
C4 C3A C3 O2 177.0(5)
C4 C3A C3 C8 56.7(7)
C9 C10 C11 C12 179.8(5)
C10 C11 C12 C13 175.2(5)
C14 O4 C6 C7 99.8(5)
C14 O4 C6 C5 -81.0(5)
