#------------------------------------------------------------------------------
#$Date: 2019-11-23 21:08:14 +0200 (Sat, 23 Nov 2019) $
#$Revision: 235011 $
#$URL: file:///home/coder/svn-repositories/cod/cif/1/55/34/1553450.cif $
#------------------------------------------------------------------------------
#
# This file is available in the Crystallography Open Database (COD),
# http://www.crystallography.net/
#
# All data on this site have been placed in the public domain by the
# contributors.
#
data_1553450
loop_
_publ_author_name
'Wen, Li-Rong'
'Shen, Qiang-Yu'
'Guo, Wei-Si'
'Li, Ming'
_publ_section_title
;
 Copper-catalyzed tandem arylation--cyclization of 2-alkynylaryl
 isothiocyanates with diaryliodonium salts: an efficient synthesis of
 thiochromeno[2,3-b]indoles
;
_journal_issue                   7
_journal_name_full               'Organic Chemistry Frontiers'
_journal_page_first              870
_journal_paper_doi               10.1039/C6QO00133E
_journal_volume                  3
_journal_year                    2016
_chemical_formula_moiety         'C21 H13 N S'
_chemical_formula_sum            'C21 H13 N S'
_chemical_formula_weight         311.38
_space_group_crystal_system      triclinic
_space_group_IT_number           2
_space_group_name_Hall           '-P 1'
_space_group_name_H-M_alt        'P -1'
_atom_sites_solution_hydrogens   geom
_atom_sites_solution_primary     direct
_audit_creation_date             2015-05-08
_audit_creation_method
;
Olex2 1.2
(compiled 2015.01.26 svn.r3150 for OlexSys, GUI svn.r4998)
;
_audit_update_record
;
2015-05-08 deposited with the CCDC.
2016-05-13 downloaded from the CCDC.
;
_cell_angle_alpha                66.214(10)
_cell_angle_beta                 86.273(17)
_cell_angle_gamma                89.284(17)
_cell_formula_units_Z            2
_cell_length_a                   7.187(3)
_cell_length_b                   10.356(4)
_cell_length_c                   11.075(4)
_cell_measurement_reflns_used    2423
_cell_measurement_temperature    173.1500
_cell_measurement_theta_max      27.4838
_cell_measurement_theta_min      2.8408
_cell_volume                     752.6(5)
_computing_cell_refinement       'CrystalClear (Rigaku Inc., 2007)'
_computing_data_collection       'CrystalClear (Rigaku Inc., 2007)'
_computing_data_reduction        'CrystalClear (Rigaku Inc., 2007)'
_computing_molecular_graphics    'Olex2 (Dolomanov et al., 2009)'
_computing_publication_material  'CIFTAB (Sheldrick, 2013)'
_computing_structure_refinement  'SHELXL (Sheldrick, 2014)'
_computing_structure_solution
;
'SHELXT (Sheldrick, 2014)'
;
_diffrn_ambient_temperature      173.1500
_diffrn_detector_area_resol_mean 28.5714
_diffrn_measured_fraction_theta_full 0.996
_diffrn_measured_fraction_theta_max 0.993
_diffrn_measurement_details
;
scan:
	Number of images: 180
	           Slice: -110.0000 - 70.0000
	     Image width: 1.0000
	        Exp time: 10.0000
	   Rotation axis: Omega
	           Omega: 0.0000
	             Chi: 45.0000
	             Phi: 270.0000
	             XTD: 40.0754
	          2theta: -20.0677
scan:
	Number of images: 180
	           Slice: -110.0000 - 70.0000
	     Image width: 1.0000
	        Exp time: 10.0000
	   Rotation axis: Omega
	           Omega: 0.0000
	             Chi: 45.0000
	             Phi: 90.0000
	             XTD: 40.0754
	          2theta: -20.0677
scan:
	Number of images: 172
	           Slice: -110.0000 - 62.0000
	     Image width: 1.0000
	        Exp time: 10.0000
	   Rotation axis: Omega
	           Omega: 0.0000
	             Chi: 45.0000
	             Phi: 0.0000
	             XTD: 40.0754
	          2theta: -20.0677
;
_diffrn_measurement_device
;
Saturn724+ (2x2 bin mode)
;
_diffrn_measurement_device_details
;
AFC10: Fixed Chi 2 circle
;
_diffrn_measurement_device_type  'Saturn724+ CCD'
_diffrn_measurement_method       '\w scans at fixed \c = 45\%'
_diffrn_orient_matrix_type       d*Trek
_diffrn_orient_matrix_UB_11      0.0016
_diffrn_orient_matrix_UB_12      -0.1369
_diffrn_orient_matrix_UB_13      0.0264
_diffrn_orient_matrix_UB_21      -0.0517
_diffrn_orient_matrix_UB_22      -0.0196
_diffrn_orient_matrix_UB_23      -0.0899
_diffrn_orient_matrix_UB_31      0.0981
_diffrn_orient_matrix_UB_32      0.0056
_diffrn_orient_matrix_UB_33      -0.0109
_diffrn_radiation_detector       CCD
_diffrn_radiation_monochromator  'Graphite Monochromator'
_diffrn_radiation_type           MoK\a
_diffrn_radiation_wavelength     0.71073
_diffrn_reflns_av_R_equivalents  0.0417
_diffrn_reflns_av_unetI/netI     0.0410
_diffrn_reflns_Laue_measured_fraction_full 0.996
_diffrn_reflns_Laue_measured_fraction_max 0.993
_diffrn_reflns_limit_h_max       9
_diffrn_reflns_limit_h_min       -9
_diffrn_reflns_limit_k_max       13
_diffrn_reflns_limit_k_min       -13
_diffrn_reflns_limit_l_max       14
_diffrn_reflns_limit_l_min       -14
_diffrn_reflns_number            9625
_diffrn_reflns_point_group_measured_fraction_full 0.996
_diffrn_reflns_point_group_measured_fraction_max 0.993
_diffrn_reflns_theta_full        26.000
_diffrn_reflns_theta_max         27.493
_diffrn_reflns_theta_min         2.841
_diffrn_source                   'Sealed Tube'
_diffrn_source_current           30.0000
_diffrn_source_power             1.5000
_diffrn_source_voltage           50.0000
_exptl_absorpt_coefficient_mu    0.213
_exptl_absorpt_correction_T_max  1.0000
_exptl_absorpt_correction_T_min  0.8779
_exptl_absorpt_correction_type   multi-scan
_exptl_absorpt_process_details   'CrystalClear (Rigaku Inc., 2007)'
_exptl_crystal_colour            red
_exptl_crystal_colour_primary    red
_exptl_crystal_density_diffrn    1.374
_exptl_crystal_description       rod
_exptl_crystal_F_000             324
_exptl_crystal_size_max          0.44
_exptl_crystal_size_mid          0.16
_exptl_crystal_size_min          0.13
_refine_diff_density_max         0.282
_refine_diff_density_min         -0.217
_refine_diff_density_rms         0.044
_refine_ls_extinction_method     none
_refine_ls_goodness_of_fit_ref   1.176
_refine_ls_hydrogen_treatment    constr
_refine_ls_matrix_type           full
_refine_ls_number_parameters     208
_refine_ls_number_reflns         3458
_refine_ls_number_restraints     0
_refine_ls_restrained_S_all      1.176
_refine_ls_R_factor_all          0.0659
_refine_ls_R_factor_gt           0.0583
_refine_ls_shift/su_max          0.000
_refine_ls_shift/su_mean         0.000
_refine_ls_structure_factor_coef Fsqd
_refine_ls_weighting_details
'w=1/[\s^2^(Fo^2^)+(0.0364P)^2^+0.3885P] where P=(Fo^2^+2Fc^2^)/3'
_refine_ls_weighting_scheme      calc
_refine_ls_wR_factor_gt          0.1187
_refine_ls_wR_factor_ref         0.1224
_reflns_Friedel_coverage         0.000
_reflns_number_gt                3156
_reflns_number_total             3458
_reflns_threshold_expression     'I > 2\s(I)'
_cod_data_source_file            c6qo00133e2.cif
_cod_data_source_block           sa4100
_cod_database_code               1553450
_shelx_space_group_comment
;
The symmetry employed for this shelxl refinement is uniquely defined
by the following loop, which should always be used as a source of
symmetry information in preference to the above space-group names.
They are only intended as comments.
;
_diffrn_number_total             3461
_olex2_refinement_description
;
1. Fixed Uiso
 At 1.2 times of:
  All C(H) groups
2.a Aromatic/amide H refined with riding coordinates:
 C2(H2), C3(H3), C4(H4), C5(H5), C12(H12), C13(H13), C14(H14), C15(H15),
 C17(H17), C18(H18), C19(H19), C20(H20), C21(H21)
;
_shelx_res_file
;
    sa4100.res created by SHELXL-2014/7

TITL sa4100 in P-1 #2
REM reset to P-1 #2
CELL 0.71073 7.1865 10.3564 11.075 66.214 86.273 89.284
ZERR 2 0.003 0.0038 0.0039 0.01 0.017 0.017
LATT 1
SFAC C H N S
UNIT 42 26 2 2

L.S. 4
PLAN  20
BOND
fmap 2
MORE -1
BOND $H
ACTA 52
CONF
OMIT 0 0 1
OMIT 0 1 1
OMIT 0 1 0
REM <olex2.extras>
REM <HklSrc "%.\\sa4100.hkl">
REM </olex2.extras>

WGHT    0.036400    0.388500
FVAR       0.99785
S1    4    0.198953    0.380227    1.210878    11.00000    0.03723    0.04259 =
         0.02628   -0.01729   -0.00279    0.00281
N1    3    0.253442    0.644892    1.038346    11.00000    0.03134    0.03807 =
         0.03482   -0.02305   -0.00310    0.00201
C1    1    0.286182    0.719199    0.899532    11.00000    0.02629    0.03417 =
         0.03604   -0.02000   -0.00222    0.00165
C2    1    0.315189    0.863536    0.832225    11.00000    0.03938    0.03500 =
         0.04932   -0.02570   -0.00135    0.00130
AFIX  43
H2    2    0.315382    0.922172    0.877439    11.00000   -1.20000
AFIX   0
C3    1    0.343863    0.917986    0.695838    11.00000    0.04359    0.02815 =
         0.05120   -0.01323   -0.00049   -0.00068
AFIX  43
H3    2    0.363851    1.014504    0.648838    11.00000   -1.20000
AFIX   0
C4    1    0.343196    0.830199    0.627978    11.00000    0.03931    0.03586 =
         0.03468   -0.01199   -0.00082    0.00123
AFIX  43
H4    2    0.361520    0.869241    0.536280    11.00000   -1.20000
AFIX   0
C5    1    0.315706    0.685820    0.694800    11.00000    0.03477    0.03533 =
         0.03184   -0.01651   -0.00235    0.00283
AFIX  43
H5    2    0.315990    0.627891    0.648856    11.00000   -1.20000
AFIX   0
C6    1    0.287609    0.628947    0.832184    11.00000    0.02373    0.02957 =
         0.03163   -0.01587   -0.00221    0.00231
C7    1    0.255486    0.486926    0.934977    11.00000    0.02422    0.03403 =
         0.02615   -0.01559   -0.00349    0.00378
C8    1    0.237348    0.512717    1.055898    11.00000    0.02326    0.03940 =
         0.02900   -0.01904   -0.00394    0.00367
C9    1    0.244057    0.357871    0.931150    11.00000    0.02723    0.03281 =
         0.02832   -0.01537   -0.00465    0.00501
C10   1    0.211558    0.229429    1.050839    11.00000    0.03150    0.03105 =
         0.03064   -0.01185   -0.00493    0.00373
C11   1    0.189606    0.229241    1.178306    11.00000    0.02660    0.03619 =
         0.03024   -0.01291   -0.00539    0.00397
C12   1    0.157737    0.102728    1.289765    11.00000    0.04090    0.04375 =
         0.03009   -0.00940   -0.00487    0.00183
AFIX  43
H12   2    0.142985    0.103844    1.373387    11.00000   -1.20000
AFIX   0
C13   1    0.148192   -0.022637    1.276206    11.00000    0.05283    0.03722 =
         0.03959   -0.00245   -0.00643   -0.00051
AFIX  43
H13   2    0.126919   -0.106175    1.350820    11.00000   -1.20000
AFIX   0
C14   1    0.169946   -0.026281    1.152244    11.00000    0.05886    0.03190 =
         0.04938   -0.01332   -0.00853    0.00320
AFIX  43
H14   2    0.164286   -0.111822    1.143653    11.00000   -1.20000
AFIX   0
C15   1    0.200093    0.098277    1.041646    11.00000    0.05215    0.03147 =
         0.03682   -0.01454   -0.00634    0.00442
AFIX  43
H15   2    0.213182    0.095289    0.958720    11.00000   -1.20000
AFIX   0
C16   1    0.268234    0.345854    0.800932    11.00000    0.03815    0.02468 =
         0.02656   -0.01315   -0.00440    0.00358
C17   1    0.445028    0.325875    0.753665    11.00000    0.03843    0.04123 =
         0.03245   -0.02048   -0.00472    0.00368
AFIX  43
H17   2    0.546885    0.317299    0.803917    11.00000   -1.20000
AFIX   0
C18   1    0.469391    0.318735    0.631261    11.00000    0.04217    0.05038 =
         0.03672   -0.02373    0.00026    0.00351
AFIX  43
H18   2    0.587903    0.304980    0.599876    11.00000   -1.20000
AFIX   0
C19   1    0.319625    0.331831    0.555729    11.00000    0.05733    0.03682 =
         0.02593   -0.01574   -0.00444    0.00193
AFIX  43
H19   2    0.337142    0.327661    0.473444    11.00000   -1.20000
AFIX   0
C20   1    0.144014    0.351109    0.602562    11.00000    0.05168    0.03210 =
         0.03378   -0.01511   -0.01560    0.00656
AFIX  43
H20   2    0.042830    0.360059    0.551637    11.00000   -1.20000
AFIX   0
C21   1    0.116912    0.357296    0.725792    11.00000    0.03928    0.03189 =
         0.03569   -0.01638   -0.00750    0.00594
AFIX  43
H21   2   -0.002245    0.369060    0.757583    11.00000   -1.20000
AFIX   0
HKLF 4

REM  sa4100 in P-1 #2
REM R1 =  0.0583 for    3156 Fo > 4sig(Fo)  and  0.0659 for all    3458 data
REM    208 parameters refined using      0 restraints

END

WGHT      0.0364      0.3885

REM Highest difference peak  0.282,  deepest hole -0.217,  1-sigma level  0.044
Q1    1   0.2158  0.2971  1.1938  11.00000  0.05    0.28
Q2    1   0.2152  0.2351  1.1126  11.00000  0.05    0.24
Q3    1   0.2496  0.2925  0.9950  11.00000  0.05    0.24
Q4    1   0.3084  0.6661  0.8762  11.00000  0.05    0.22
Q5    1   0.2427  0.4960  0.9960  11.00000  0.05    0.21
Q6    1   0.2467  0.6600  1.1002  11.00000  0.05    0.20
Q7    1   0.2515  0.3544  0.8588  11.00000  0.05    0.19
Q8    1   0.6660  0.3223  0.8644  11.00000  0.05    0.19
Q9    1   0.2783  0.5586  0.8694  11.00000  0.05    0.19
Q10   1   0.3633  0.8587  0.6785  11.00000  0.05    0.19
Q11   1   0.1393  0.1648  1.2413  11.00000  0.05    0.19
Q12   1   0.1441  0.3869  0.6470  11.00000  0.05    0.19
Q13   1   0.1795  0.3414  0.7803  11.00000  0.05    0.18
Q14   1   0.2162  0.4465  1.1247  11.00000  0.05    0.18
Q15   1   0.2750  0.6833  0.9793  11.00000  0.05    0.18
Q16   1   0.2054  0.1627  1.0570  11.00000  0.05    0.17
Q17   1   0.2817  0.6441  0.7788  11.00000  0.05    0.17
Q18   1  -0.0068 -0.0576  1.0791  11.00000  0.05    0.16
Q19   1   0.3264  0.7844  0.8613  11.00000  0.05    0.16
Q20   1   0.2443  0.5967  1.0431  11.00000  0.05    0.15
;
_shelx_res_checksum              72069
_shelx_hkl_file
;
   0   0   1    0.03    0.14
   0   0  -1    0.26    0.20
   0   0   1    0.19    0.20
   0   0   1    0.06    0.15
   0   0   2 1758.33   19.07
   0   0  -2 1765.57   19.23
   0   0   2 1757.76   19.15
   0   0   2 1776.68   19.23
   0   0  -3   49.08    2.19
   0   0   3   50.92    4.11
   0   0  -3   54.98    4.73
   0   0  -3   49.10    3.21
   0   0   3   43.82    1.60
   0   0   4   47.92    3.94
   0   0   4   53.76    2.23
   0   0  -4   61.48    2.56
   0   0   4   48.96    3.70
   0   0  -4   54.68    2.30
   0   0   4   49.04    2.02
   0   0   5  220.62    4.93
   0   0   5  235.13    5.50
   0   0  -5  229.76    5.33
   0   0   5  220.36    5.01
   0   0  -5  246.10    5.52
   0   0   5  231.19    5.11
   0   0   6   37.27    4.74
   0   0   6   46.97    3.49
   0   0  -6   47.15    4.39
   0   0   6   38.96    5.99
   0   0  -6   46.87    3.94
   0   0   6   45.09    4.85
   0   0   7  194.17    6.44
   0   0   7  212.01    7.36
   0   0  -7  205.10    6.96
   0   0  -7  219.99    7.25
   0   0   7  202.46    6.61
   0   0   8  437.28   14.04
   0   0  -8  427.25   22.53
   0   0   8  362.50   11.51
   0   0   9  193.61    7.13
   0   0  -9  196.58   13.17
   0   0  10    0.88    1.59
   0   0 -10    5.17    1.47
   0   0  10    1.26    1.58
   0   0  11   -0.38    1.76
   0   0  11    2.51    1.68
   0   0  11    4.55    2.29
   0   0  12  157.67    8.34
   0   0  12  128.66    7.54
   0   0  13   -0.22    1.63
   0  -1  12   10.07    2.07
   0  -1  12    2.59    1.62
   0  -1  11   87.56    6.41
   0  -1  11   77.08    5.54
   0  -1  11   89.11    6.05
   0  -1  10    3.04    2.15
   0  -1  10    6.04    1.76
   0  -1   9  171.16    6.81
   0  -1   9  156.65    6.45
   0  -1   8   25.97    4.18
   0  -1   8   20.98    3.86
   0   1  -8   30.03    4.73
   0  -1   7  915.36   79.47
   0  -1   7 1123.12   97.47
   0  -1   7 1066.01   92.65
   0   1  -7 1154.22  100.21
   0   1  -6  250.62    6.83
   0  -1   6  243.54    6.64
   0  -1   6  230.39    6.40
   0   1  -6  271.57    7.72
   0  -1   6  228.69    6.38
   0   1  -5 1222.74   22.78
   0  -1   5 1162.71   21.65
   0   1  -5 1271.29   23.78
   0  -1   5 1169.80   21.85
   0   1  -5 1250.89   23.47
   0   1  -4  124.76    5.10
   0  -1   4  123.16    9.18
   0   1  -4  127.52    5.45
   0  -1   4  120.27    8.68
   0   1  -4  131.21    5.42
   0  -1   4  123.63    5.09
   0   1  -3    0.51    0.72
   0  -1   3    2.15    0.77
   0  -1   3    0.59    0.66
   0   1  -3    2.21    0.68
   0  -1   3    1.13    0.74
   0   1  -2  309.84   11.76
   0  -1   2  301.58   11.53
   0  -1   2  332.36    5.63
   0   1  -2  298.48    8.54
   0  -1   2  304.68   11.62
   0   1  -1   46.25    2.36
   0  -1   1   48.48    1.68
   0  -1   1   46.35    1.67
   0   1  -1   47.87    1.77
   0  -1   1   49.09    1.73
   0  -1   0   -0.14    0.39
   0   1   0   -0.18    0.40
   0   1   1   -0.16    0.47
   0   1   1   -0.37    0.18
   0   1   2 2045.93   22.24
   0   1   2 2027.51   21.97
   0   1   3  687.93    8.96
   0   1   3  690.72    8.27
   0  -1  -3  706.38    7.86
   0   1   3  674.99    7.47
   0   1   4  153.95    4.68
   0   1   4  159.92    5.15
   0  -1  -4  170.87    5.29
   0   1   4  159.44    8.96
   0  -1  -4  172.62    5.01
   0   1   4  155.60    4.50
   0   1   5    4.01    0.55
   0   1   5    0.55    1.52
   0  -1  -5    2.84    0.96
   0   1   5    2.47    0.87
   0  -1  -5    3.63    0.47
   0   1   5    3.52    0.58
   0   1   6  266.17    5.70
   0   1   6  289.15    6.54
   0  -1  -6  281.96    6.22
   0   1   6  269.15    5.84
   0   1   6  281.17    5.67
   0   1   7  114.11    4.82
   0   1   7  134.85    4.66
   0  -1  -7  123.62    8.28
   0   1   7  120.80    3.83
   0   1   7  112.51    4.42
   0   1   8  234.24    8.61
   0  -1  -8  209.16   14.45
   0   1   8  213.27    7.27
   0   1   9   16.56    3.16
   0  -1  -9   18.47    3.43
   0   1   9    9.88    2.45
   0   1   9   13.37    2.69
   0   1  10   15.02    3.17
   0  -1 -10   17.59    3.18
   0   1  10   13.53    2.60
   0   1  11   23.78    3.29
   0  -1 -11   13.86    2.84
   0   1  11   17.95    1.98
   0   1  12   33.65    3.26
   0  -1 -12   24.46    2.37
   0   1  13    5.44    2.49
   0  -2  12    3.34    1.78
   0  -2  12    1.78    1.78
   0  -2  11   49.15    3.71
   0  -2  11   43.38    3.41
   0  -2  10  107.33    3.90
   0  -2  10  107.06    3.98
   0  -2   9   10.39    1.86
   0  -2   9   13.85    2.98
   0  -2   8  169.63    6.80
   0   2  -8  162.30    6.15
   0   2  -7   20.94    3.29
   0  -2   7   20.43    2.77
   0   2  -7   26.27    3.80
   0   2  -6    1.23    0.78
   0  -2   6    2.16    0.82
   0  -2   6   -1.29    1.71
   0   2  -6    0.48    1.33
   0   2  -5   40.86    4.44
   0  -2   5   28.11    3.29
   0  -2   5   33.77    4.93
   0  -2   5   41.25    2.91
   0   2  -5   52.27    6.15
   0   2  -4  902.21   18.04
   0  -2   4  848.31   16.89
   0  -2   4  862.73   17.20
   0  -2   4  922.52   18.48
   0   2  -4  910.44   18.52
   0  -2   4  889.23   17.84
   0   2  -3 1169.78   13.63
   0  -2   3 1130.03   13.44
   0  -2   3 1122.46   21.84
   0   2  -2  443.80    5.89
   0  -2   2  447.61    5.78
   0  -2   2  435.99    6.04
   0   2  -2  438.54    5.88
   0  -2   2  437.96    6.00
   0  -2   1 2118.04   23.58
   0   2  -1 2078.75   23.00
   0  -2   1 2098.98   23.25
   0  -2   0  439.61    5.54
   0  -2   0  442.68    5.75
   0   2   0  466.18    5.96
   0  -2   0  462.72    5.81
   0  -2  -1  526.43    6.51
   0   2   1  520.83    6.44
   0   2   1  521.93    6.19
   0   2   2  795.63    9.67
   0   2   2  779.69    9.23
   0  -2  -2  784.03    8.71
   0   2   3  889.62   10.80
   0  -2  -3  841.20   10.25
   0   2   3  848.37   10.02
   0   2   4  414.76    6.05
   0  -2  -4  396.35    5.52
   0  -2  -4  430.50    5.93
   0   2   4  403.56    5.65
   0   2   5 1633.30   31.66
   0  -2  -5 1515.99   29.28
   0  -2  -5 1651.12   31.97
   0   2   5 1592.78   30.74
   0   2   5 1620.04   30.61
   0   2   5 1617.38   30.56
   0   2   6   28.34    2.80
   0  -2  -6   24.90    2.24
   0  -2  -6   36.23    3.57
   0   2   6   26.54    3.00
   0   2   6   27.39    2.55
   0   2   6   30.33    2.22
   0   2   7    5.11    1.05
   0   2   7   10.13    2.60
   0  -2  -7    8.57    1.68
   0   2   7    6.01    1.03
   0   2   7    6.22    0.83
   0   2   7    6.67    0.94
   0   2   8  559.80   18.57
   0  -2  -8  557.81   18.32
   0   2   8  533.50   16.99
   0   2   8  535.23   17.08
   0   2   9  188.66    6.98
   0  -2  -9  185.01   11.63
   0   2   9  172.24    5.56
   0   2   9  194.00    6.39
   0   2  10   60.14    7.14
   0  -2 -10   62.83    9.84
   0   2  10   75.90    8.43
   0   2  11    1.10    1.85
   0  -2 -11    1.46    1.03
   0   2  11    3.31    1.32
   0   2  12    6.68    1.95
   0  -2 -12    4.67    1.53
   0   2  13    3.06    2.29
   0  -2 -13    0.64    1.06
   0  -3  11   31.02    2.91
   0  -3  10   87.86    3.38
   0  -3  10   93.66    3.80
   0  -3   9   10.15    2.12
   0  -3   9    7.64    2.02
   0   3  -8   22.59    4.11
   0  -3   8   33.13    3.09
   0   3  -8   20.94    2.12
   0   3  -7   19.87    3.62
   0  -3   7   13.52    2.94
   0   3  -7   19.98    4.97
   0   3  -6    4.20    1.64
   0  -3   6    3.30    2.85
   0   3  -6    6.53    1.88
   0   3  -5   36.26    4.63
   0  -3   5   21.83    3.32
   0  -3   5   27.79    2.91
   0   3  -5   35.42    5.05
   0   3  -4    2.29    1.24
   0  -3   4    1.20    0.54
   0  -3   4    1.91    0.63
   0  -3   4    0.11    1.93
   0   3  -3  916.53   19.60
   0  -3   3  904.43   17.86
   0  -3   3  935.01   18.88
   0   3  -2 1629.60   31.61
   0  -3   2 1477.92   28.93
   0   3  -2 1517.97   29.41
   0   3  -2 1601.23   31.23
   0  -3   2 1525.80   29.73
   0  -3   0 5031.06   54.22
   0  -3   0 5203.88   56.30
   0   3   0 5092.45   55.06
   0  -3  -1  557.02    7.17
   0  -3  -1  519.75    7.38
   0   3   1  522.36    6.96
   0   3   2  656.49    8.55
   0  -3  -2  664.76    8.39
   0   3   2  657.38    8.30
   0  -3  -2  669.96    7.81
   0   3   3  336.41    5.45
   0  -3  -3  337.54    5.46
   0   3   3  317.49   12.28
   0   3   3  334.27    4.14
   0  -3  -3  341.06    4.10
   0  -3  -5  359.86    7.87
   0  -3  -5  358.49    7.95
   0   3   5  348.36    7.59
   0   3   6  166.88    4.92
   0  -3  -6  156.59    4.02
   0  -3  -6  170.91    6.78
   0   3   6  161.92    4.10
   0   3   7    4.43    2.04
   0  -3  -7    5.75    2.36
   0   3   8   48.46    4.28
   0  -3  -8   50.11    6.48
   0   3   8   44.06    2.94
   0   3   8   43.96    2.95
   0   3   9  160.49    6.39
   0  -3  -9  168.59   12.10
   0   3   9  150.48    4.61
   0   3   9  144.81    4.49
   0   3  10    0.91    2.12
   0  -3 -10    3.79    1.80
   0   3  10    2.78    0.57
   0   3  10    1.84    0.74
   0   3  11   45.04    3.00
   0  -3 -11   50.15    7.31
   0   3  12   14.39    2.48
   0  -3 -12   13.25    3.07
   0   3  13   22.28    4.45
   0  -3 -13   18.67    4.79
   0   3  14    5.31    2.28
   0  -3 -14    2.10    1.23
   0  -4  10    5.18    2.49
   0   4  -9   73.67    5.10
   0  -4   9   69.41    5.25
   0   4  -8    7.46    1.33
   0  -4   8   12.04    2.74
   0   4  -8    6.78    1.67
   0   4  -7   56.88    8.42
   0  -4   7   64.04    7.71
   0   4  -7   69.62   10.45
   0   4  -6  134.27    5.96
   0  -4   6  125.28    6.17
   0   4  -6  149.70    7.00
   0   4  -5  301.36   10.46
   0  -4   5  301.61   10.86
   0   4  -5  318.05   11.69
   0   4  -4   53.40    6.77
   0  -4   4   34.34    4.38
   0  -4   4   41.18    3.95
   0   4  -4   55.51    7.29
   0   4  -3    3.78    1.03
   0  -4   3    2.17    0.77
   0  -4   3    3.94    2.91
   0   4  -2  597.18   11.87
   0  -4   2  555.43   10.99
   0   4  -2  557.11   11.31
   0   4  -2  582.04   12.12
   0   4  -1  127.24    5.48
   0  -4   1  114.99    4.90
   0  -4   1  123.81    5.73
   0   4  -1  122.84    5.47
   0   4  -1  121.48    5.23
   0   4   0 2656.29   30.03
   0  -4   0 2663.25   30.06
   0   4   0 2571.08   30.03
   0  -4   0 2551.98   28.69
   0   4   1 1158.96   14.06
   0  -4  -1 1151.74   13.77
   0  -4  -1 1190.78   14.51
   0   4   1 1165.82   15.57
   0  -4  -1 1136.04   13.32
   0   4   2  620.74    8.51
   0   4   2  592.86    7.92
   0   4   2  601.32    7.62
   0  -4  -2  585.44    8.50
   0   4   3  186.97    6.16
   0   4   3  177.35    5.65
   0   4   3  183.92    5.77
   0  -4  -3  183.19    5.40
   0   4   4 2163.56   41.86
   0   4   4 2170.30  132.74
   0  -4  -4 2165.17   41.03
   0   4   5  761.83   15.76
   0  -4  -5  692.79   14.09
   0  -4  -5  760.18   15.64
   0   4   5  726.86   14.79
   0  -4  -5  756.54   14.35
   0  -4  -5  750.51   14.23
   0   4   6  333.36    7.74
   0  -4  -6  333.93    7.48
   0   4   7    5.01    3.33
   0  -4  -7    3.20    2.09
   0   4   8   26.81    3.69
   0  -4  -8   38.74    5.29
   0   4   9   20.12    3.37
   0  -4  -9   22.53    3.09
   0   4  10  196.26    8.17
   0  -4 -10  208.65   16.00
   0   4  11    9.24    3.35
   0  -4 -11    4.52    1.90
   0   4  12  214.79    5.29
   0  -4 -12  202.95    4.56
   0   4  13    3.78    1.98
   0  -4 -13    8.00    2.05
   0   4  14   24.44    3.97
   0  -4 -14   15.29    5.11
   0  -5  10    4.56    1.90
   0   5  -9    2.18    1.12
   0  -5   9    8.01    2.35
   0   5  -8   14.49    2.01
   0  -5   8   12.66    2.38
   0   5  -8   10.91    2.30
   0   5  -7   30.65    4.49
   0  -5   7   36.40    3.36
   0   5  -7   32.67    4.30
   0   5  -6    7.73    2.33
   0  -5   6   12.24    3.01
   0   5  -6   15.88    2.88
   0  -5   5  607.13   24.20
   0   5  -4   81.69    6.75
   0  -5   4   79.79    7.90
   0   5  -4   89.05   10.79
   0   5  -3   39.18    4.51
   0  -5   3   33.17    3.33
   0   5  -2  246.86    7.29
   0  -5   2  254.57    7.89
   0   5  -2  261.42    8.30
   0  -5   1    7.10    1.20
   0  -5   1   14.19    3.38
   0   5  -1   13.46    2.28
   0   5   0  128.81    6.30
   0  -5   0  113.45    7.44
   0  -5   0  135.96    4.41
   0   5   0  112.62    7.44
   0  -5  -1    8.07    2.07
   0   5   1    3.18    1.08
   0   5   1   11.33    1.77
   0  -5  -1    9.59    1.31
   0  -5  -2  161.83    4.36
   0  -5  -2  157.69   10.26
   0   5   2  157.09   10.20
   0   5   2  157.84   10.02
   0  -5  -2  168.97    8.57
   0  -5  -3 1743.44   33.89
   0   5   3 1813.73   34.99
   0   5   4  122.61    5.88
   0  -5  -4  121.69    5.70
   0   5   4  118.02    5.28
   0   5   4  124.64    5.83
   0  -5  -4  116.37    4.98
   0   5   5   10.48    2.42
   0  -5  -5   12.31    2.71
   0   5   5   12.94    2.13
   0  -5  -5    9.72    1.18
   0   5   6   52.63    3.87
   0  -5  -6   45.76    9.97
   0  -5  -6   41.66    1.87
   0  -5  -6   42.13    1.90
   0   5   7   11.85    2.36
   0  -5  -7    8.88    1.83
   0   5   8    4.69    2.57
   0  -5  -8    4.83    1.45
   0   5   9   18.68    3.88
   0  -5  -9   21.31    3.80
   0   5  10   28.18    4.09
   0  -5 -10   30.32    4.07
   0   5  11    5.44    2.50
   0  -5 -11    1.52    1.45
   0   5  12   41.79    5.00
   0  -5 -12   51.18    5.10
   0   5  13   35.23    3.98
   0  -5 -13   36.92    5.82
   0   5  14   45.91    3.81
   0  -5 -14   35.35    7.33
   0  -6   9   14.22    3.10
   0   6  -8   23.31    8.36
   0  -6   8   41.35    4.40
   0   6  -8   28.34    2.95
   0   6  -7    4.11    1.55
   0  -6   7    4.83    2.29
   0   6  -7    1.41    1.43
   0   6  -6   42.67    7.22
   0  -6   6   48.97    4.12
   0   6  -6   51.77    8.14
   0   6  -5    6.31    1.89
   0  -6   5    4.27    2.71
   0   6  -5   14.56    4.09
   0   6  -4  189.14    8.16
   0  -6   4  191.16    8.89
   0   6  -4  187.62   11.51
   0   6  -3   13.15    2.42
   0  -6   3   15.81    2.63
   0   6  -3   22.74    4.08
   0   6  -2   35.74    5.46
   0  -6   2   28.26    3.87
   0   6  -2   33.85    6.26
   0   6  -1   27.90    4.48
   0  -6   1   23.60    2.82
   0   6  -1   27.90    4.64
   0   6   0  647.48   17.14
   0  -6   0  641.66   16.92
   0   6   0  650.56   16.99
   0   6   1   20.82    2.28
   0  -6  -1   26.59    2.90
   0   6   1   29.81    3.80
   0   6   2   16.97    2.15
   0  -6  -2   13.44    2.75
   0   6   2   20.74    3.20
   0  -6  -2   13.68    1.83
   0   6   3  118.40    8.04
   0  -6  -3  131.33    6.91
   0   6   3  121.11    7.81
   0  -6  -3  122.41    7.87
   0   6   4  295.67    7.43
   0   6   4  295.28    6.40
   0  -6  -4  267.44    5.72
   0   6   5  118.01    4.99
   0  -6  -5  124.09    4.87
   0   6   5  114.10    4.11
   0  -6  -5  104.34    3.13
   0   6   6 1109.22   28.15
   0  -6  -6 1087.86   27.59
   0  -6  -6 1033.64  112.84
   0   6   7   50.48    4.31
   0  -6  -7   64.05    7.97
   0   6   8  340.72   12.02
   0  -6  -8  319.61   10.83
   0   6   9   24.61    5.10
   0  -6  -9   24.43    4.30
   0   6  10  180.94    8.19
   0  -6 -10  189.18   13.69
   0   6  11    3.04    2.54
   0  -6 -11    4.05    1.31
   0   6  12    8.91    3.42
   0  -6 -12    6.98    3.02
   0   6  13  123.34    7.47
   0  -6 -13  100.44   10.84
   0   6  14    8.49    2.89
   0  -6 -14    5.57    1.77
   0  -7   8   58.16    7.16
   0   7  -7    3.06    1.37
   0  -7   7    8.24    2.58
   0   7  -7    4.20    2.20
   0   7  -6    7.69    2.10
   0  -7   6    4.14    2.50
   0   7  -6    4.91    1.83
   0   7  -5  158.48   13.64
   0  -7   5  151.31    8.77
   0   7  -5  156.19   17.02
   0   7  -4    6.11    1.88
   0  -7   4    1.25    2.62
   0   7  -4    1.77    1.02
   0   7  -3    5.99    2.05
   0  -7   3    2.69    4.26
   0   7  -3    5.96    1.85
   0   7  -2  112.89   11.84
   0  -7   2   97.05    6.14
   0   7  -2   97.84    5.19
   0   7  -1 1177.55   36.75
   0  -7   1 1189.93   36.91
   0   7  -1 1136.52   35.51
   0   7   0  809.45   27.87
   0  -7   0  860.60   75.14
   0   7   0  820.04   27.35
   0   7   1  258.97   10.17
   0  -7  -1  287.06   10.40
   0   7   1  266.25    9.25
   0   7   2  151.10    6.28
   0  -7  -2  147.27    6.43
   0   7   2  142.83    5.35
   0   7   3   67.91    5.56
   0  -7  -3   61.45    5.90
   0   7   3   60.84    4.60
   0   7   4  529.04   17.15
   0   7   4  534.43   16.56
   0  -7  -4  464.35   14.39
   0   7   5    4.59    2.34
   0  -7  -5    2.64    2.44
   0   7   5    4.77    0.84
   0  -7  -5    2.19    0.59
   0   7   6  532.67   18.24
   0  -7  -6  526.12   18.08
   0   7   6  504.67   16.26
   0  -7  -6  470.51   15.13
   0   7   7  389.88   13.18
   0  -7  -7  374.09   12.45
   0  -7  -7  376.32   11.75
   0  -7  -7  409.29   12.42
   0   7   8  272.88   11.92
   0  -7  -8  269.04   11.23
   0   7   9   39.29    4.46
   0  -7  -9   44.55    6.28
   0   7  10    2.59    2.78
   0  -7 -10    8.48    2.65
   0   7  11   78.33    6.15
   0  -7 -11   70.48    6.98
   0   7  12   54.14    4.56
   0  -7 -12   57.12    6.96
   0   7  13   46.87    4.97
   0  -7 -13   26.28    4.51
   0   7  14   32.89    5.15
   0  -7 -14   16.39    4.12
   0  -8   7   60.16    7.18
   0   8  -7   56.04    6.90
   0   8  -6   18.82    3.68
   0  -8   6   28.41    5.16
   0   8  -6   32.27    5.23
   0   8  -5   55.70    8.09
   0  -8   5   67.98    4.00
   0   8  -5   86.24   12.25
   0   8  -4    4.02    1.45
   0  -8   4    6.10    2.77
   0   8  -4    1.19    1.35
   0   8  -3    2.39    1.09
   0  -8   3    6.71    2.87
   0   8  -3    4.42    2.37
   0   8  -2    4.41    2.11
   0  -8   2   12.01    3.73
   0   8  -2    5.47    2.38
   0   8  -1  344.67   13.18
   0  -8   1  317.13   11.53
   0   8  -1  325.83   12.39
   0   8   0  342.48   17.69
   0  -8   0  311.19   13.52
   0   8   0  311.30   13.24
   0   8   1  133.72   12.24
   0  -8  -1  114.78    6.54
   0   8   1  137.60   10.52
   0   8   2   23.48    3.02
   0  -8  -2   18.75    2.94
   0   8   2   24.37    4.22
   0   8   3  432.61   15.21
   0  -8  -3  422.12   14.75
   0   8   3  423.13   14.88
   0  -8  -4  131.08    6.29
   0   8   4  130.79    5.14
   0   8   5   11.42    2.75
   0  -8  -5   15.24    3.93
   0   8   5   10.56    1.62
   0   8   6  173.14    7.76
   0  -8  -6  152.88    6.42
   0   8   6  153.61    5.38
   0   8   7   10.49    2.68
   0  -8  -7   16.33    3.68
   0  -8  -7    8.49    1.75
   0   8   8   22.50    4.93
   0  -8  -8   20.76    3.76
   0  -8  -8   14.13    1.53
   0  -8  -8   17.93    1.98
   0   8   9   11.09    3.21
   0  -8  -9   27.26    4.64
   0   8  10    2.48    2.72
   0  -8 -10    5.08    1.37
   0   8  11   17.37    3.51
   0  -8 -11   20.93    3.35
   0   8  12   21.88    3.48
   0  -8 -12   22.61    4.48
   0   8  13    9.06    3.40
   0  -8 -13    4.13    1.90
   0   9  -5   25.63    5.84
   0  -9   5   40.81    4.70
   0   9  -5   37.45    3.34
   0   9  -4   52.07    7.64
   0  -9   4   70.00    4.75
   0   9  -4   65.99    9.24
   0   9  -3    1.16    1.18
   0  -9   3    4.65    4.15
   0   9  -3    3.02    1.65
   0   9  -2   12.39    2.23
   0  -9   2    6.34    3.11
   0   9  -2    8.97    1.99
   0   9  -1   67.83    7.92
   0  -9   1   62.02    5.31
   0   9  -1   75.39    8.48
   0   9   0   18.10    3.73
   0  -9   0   10.08    3.75
   0   9   0   12.37    2.70
   0   9   1    3.95    1.64
   0  -9  -1   11.09    3.06
   0   9   1   11.12    3.21
   0   9   2    2.86    2.04
   0  -9  -2    0.90    3.45
   0   9   2    4.57    1.59
   0   9   3  115.92    5.91
   0  -9  -3  109.04    6.75
   0   9   3   99.61    7.81
   0   9   4  504.58   20.51
   0  -9  -4  501.99   20.34
   0   9   4  525.48   20.96
   0   9   5   62.29    6.19
   0   9   5   70.73    6.59
   0   9   6    4.91    2.71
   0  -9  -6   13.65    3.47
   0   9   6    7.89    1.43
   0   9   7  173.23    8.24
   0  -9  -7  187.25   13.09
   0   9   8   74.46    5.85
   0  -9  -8   89.90   11.60
   0  -9  -8   79.79    3.68
   0   9   9  100.42    5.32
   0  -9  -9  111.94    9.20
   0   9  10   69.49    5.26
   0  -9 -10   85.71    8.47
   0   9  11   19.53    3.93
   0  -9 -11   11.53    2.26
   0   9  12    7.46    3.52
   0  -9 -12   11.43    3.09
   0   9  13   21.36    4.84
   0  -9 -13   23.21    5.64
   0  10  -4   40.22    7.50
   0 -10   4   61.26    5.48
   0  10  -4   60.52    4.20
   0  10  -3   40.76    8.49
   0 -10   3   49.16    7.50
   0  10  -3   60.40    9.73
   0  10  -2    5.44    2.09
   0 -10   2   10.48    3.14
   0  10  -2    1.79    1.34
   0  10  -1   59.37    7.98
   0 -10   1   49.92    4.36
   0  10  -1   58.87    7.01
   0  10   0    4.46    1.52
   0 -10   0    4.75    3.54
   0  10   0    4.06    1.72
   0  10   1  126.79   15.00
   0 -10  -1  119.71    6.62
   0  10   1  132.17    6.04
   0  10   2    8.11    2.68
   0 -10  -2   10.63    3.58
   0  10   2    8.97    2.10
   0  10   3    0.87    1.18
   0 -10  -3    8.22    3.78
   0  10   3    3.34    1.99
   0  10   4   91.14    5.83
   0 -10  -4  107.80    7.14
   0  10   4   85.95   10.26
   0  10   5   81.75    4.99
   0  10   5   97.87    8.09
   0  10   6    3.50    3.54
   0 -10  -6    2.74    2.41
   0  10   6    4.24    1.15
   0  10   7   90.45    4.92
   0 -10  -7   95.82    9.36
   0  10   8  125.67    7.61
   0 -10  -8  129.65   12.10
   0 -10  -8  122.26    5.90
   0  10   9   32.29    4.93
   0 -10  -9   26.88    5.92
   0  10  10   50.49    5.07
   0 -10 -10   53.53    6.88
   0  10  11   12.73    3.27
   0 -10 -11   18.71    4.44
   0  10  12    2.10    2.36
   0 -10 -12    3.68    1.96
   0  10  13    0.81    2.50
   0 -10 -13    2.38    1.59
   0  11  -2    1.60    1.17
   0 -11   2   -4.17    2.65
   0  11  -2    2.76    2.03
   0  11  -1   17.29    3.80
   0 -11   1   20.30    4.01
   0  11  -1   24.96    4.80
   0  11   0   14.93    3.56
   0 -11   0    9.73    3.10
   0  11   0   12.08    2.87
   0  11   1   24.43    3.85
   0 -11  -1   11.37    2.59
   0  11   1   18.73    3.07
   0  11   2   14.61    2.71
   0 -11  -2   19.00    4.90
   0  11   2   13.73    3.24
   0  11   3   28.29    4.72
   0 -11  -3   28.95    3.98
   0  11   3   31.57    5.23
   0  11   4   91.46   12.94
   0 -11  -4   79.19    6.57
   0  11   4   81.92    9.79
   0  11   5   14.55    2.21
   0 -11  -5   28.74    3.71
   0  11   5   21.07    2.06
   0 -11  -6   79.49    4.41
   0  11   6   70.65    2.77
   0  11   7    7.23    2.14
   0 -11  -7    6.00    3.92
   0  11   8   46.21    4.52
   0 -11  -8   54.00    9.95
   0 -11  -8   49.38    3.65
   0  11   9   42.89    3.82
   0 -11  -9   38.21    6.80
   0  11  10    3.42    2.89
   0 -11 -10    5.14    2.14
   0  11  11   64.57    9.74
   0 -11 -11   56.12   10.29
   0  11  12   63.45    7.92
   0 -11 -12   35.20    7.74
   0  12   0    4.94    2.41
   0 -12   0    1.90    3.18
   0  12   0    3.74    1.97
   0  12   1   18.08    4.26
   0 -12  -1   11.89    3.40
   0  12   1    7.36    1.81
   0  12   2   40.24    8.69
   0 -12  -2   34.84    4.24
   0  12   2   36.51    3.87
   0  12   3   13.42    3.98
   0 -12  -3   32.20    4.45
   0  12   3   15.30    3.47
   0  12   4   16.71    3.05
   0 -12  -4   12.60    3.98
   0  12   4   11.84    2.30
   0  12   5   15.28    2.75
   0 -12  -5    7.31    2.75
   0  12   5    5.51    2.40
   0  12   6    3.68    2.77
   0 -12  -7   46.63    4.90
   0  12   8   27.95    3.95
   0 -12  -8   26.40    5.39
   0 -12  -9   37.22    8.58
   0  12  10   16.15    3.91
   0 -12 -10   14.12    3.52
   0  12  11    8.00    2.71
   0 -12 -11    5.95    2.85
   0  13   3    1.18    1.61
   0 -13  -3    2.93    2.79
   0  13   3   -0.70    1.43
   0  13   4   19.39    5.90
   0 -13  -4   39.19    5.23
   0  13   5    5.64    2.78
   0 -13  -5   -0.21    2.61
   0  13   6   18.02    5.76
   0 -13  -6   21.25    4.76
   0  13   7   -3.05    2.29
   0 -13  -7    2.25    2.62
   0  13   8   24.72    4.40
   0 -13  -8   26.08    5.02
  -1  13   8  101.33   11.56
   1 -13  -8   97.39   17.34
  -1  13   7    5.29    2.65
   1 -13  -7    8.91    3.32
  -1  13   6   65.33   10.36
   1 -13  -6   74.38    4.86
   1 -13  -6   64.54    3.62
  -1  13   5   15.81    4.68
   1 -13  -5   16.53    5.42
   1 -13  -5   15.87    3.66
  -1  13   4   15.85    3.92
   1 -13  -4   16.28    4.22
  -1  13   3   14.48    3.77
   1 -13  -3   25.91    5.18
  -1  12  10   10.88    3.50
   1 -12 -10    7.96    3.50
  -1  12   9    3.30    2.74
   1 -12  -9    1.62    2.36
  -1  12   8   16.58    4.37
   1 -12  -8   18.20    2.98
  -1  12   7    3.17    2.43
   1 -12  -7    3.61    1.84
   1 -12  -7    2.68    1.41
  -1  12   6    4.92    1.72
   1 -12  -6    6.10    2.90
   1 -12  -6    8.74    2.85
  -1  12   5   17.46    3.27
   1 -12  -5   21.11    3.35
  -1  12   4    5.27    3.39
   1 -12  -4    5.68    3.12
  -1  12   3   40.48    6.95
   1 -12  -3   40.24    4.91
  -1  12   2   25.15    5.62
   1 -12  -2   19.35    3.56
  -1  12   1    7.82    2.60
   1 -12  -1    5.78    2.94
  -1  12   0    4.02    1.82
   1 -12   0   15.87    3.76
  -1  11  12   38.50    4.87
   1 -11 -12   29.10    6.53
  -1  11  11   18.90    4.02
   1 -11 -11   19.61    3.93
  -1  11  10   77.38    5.68
   1 -11 -10   75.11   10.73
  -1  11   9   66.52    4.45
   1 -11  -9   52.28    6.44
  -1  11   8    7.29    2.92
   1 -11  -8    6.62    2.66
  -1  11   7    8.35    3.66
   1 -11  -7    2.66    1.42
  -1  11   6   20.60    4.13
   1 -11  -6   12.53    2.79
   1 -11  -6   14.18    2.24
   1 -11  -5   52.83    4.07
  -1  11   4   18.27    3.32
   1 -11  -4   17.71    3.83
  -1  11   3    4.71    2.26
   1 -11  -3    8.65    3.22
  -1  11   2   13.58    2.93
   1 -11  -2    9.62    3.19
  -1  11   1   23.57    3.47
   1 -11  -1   14.61    3.40
  -1  11   0    4.38    1.95
   1 -11   0    7.68    3.19
  -1  11  -1    4.58    2.28
   1 -11   1    3.40    2.85
  -1  11  -2    3.91    2.10
   1 -11   2    5.21    2.75
  -1  10  12    4.52    2.13
   1 -10 -12    0.75    1.85
  -1  10  11   49.92    4.52
   1 -10 -11   48.41    7.39
  -1  10  10   43.97    4.56
   1 -10 -10   47.67    5.62
  -1  10   9   75.13    4.70
   1 -10  -9   86.63    7.27
  -1  10   8    4.83    2.72
   1 -10  -8    5.33    2.05
   1 -10  -8    4.86    1.47
  -1  10   7   22.00    3.39
   1 -10  -7   23.14    2.18
  -1  10   6   39.28    3.76
   1 -10  -6   44.55    5.67
   1 -10  -6   42.70    3.18
  -1  10   5    9.21    2.72
   1 -10  -5    2.05    2.26
   1 -10  -4  159.42    8.36
  -1  10   3    8.67    2.17
   1 -10  -3    9.55    3.49
  -1  10   2  163.64   14.76
   1 -10  -2  138.30    5.10
  -1  10   1   29.80    4.37
   1 -10  -1   25.65    3.52
  -1  10   0    2.41    1.53
   1 -10   0    7.01    4.25
  -1  10  -1   14.14    3.19
   1 -10   1   12.70    3.20
  -1  10  -2    7.70    2.73
   1 -10   2    9.61    4.23
  -1  10  -3   13.03    3.08
   1 -10   3   17.42    4.11
  -1  10  -4    4.77    2.05
   1 -10   4    5.51    3.39
  -1   9  13   94.36    5.64
   1  -9 -13   68.56    9.70
  -1   9  12    3.39    2.49
   1  -9 -12    4.20    2.73
  -1   9  11   45.26    4.46
   1  -9 -11   51.81    7.42
  -1   9  10    2.94    2.84
   1  -9 -10    6.33    2.40
  -1   9   9   99.21    4.20
   1  -9  -9  109.25   10.98
  -1   9   8  103.32    6.39
   1  -9  -8  106.57   15.69
   1  -9  -8   80.40    3.73
  -1   9   7   52.99    7.09
   1  -9  -7   74.41    9.97
   1  -9  -7   63.47    7.13
  -1   9   6  112.65    6.31
   1  -9  -6  117.27   11.20
   1  -9  -6   97.10    8.84
  -1   9   5   70.36    7.04
   1  -9  -5   93.61   13.08
  -1   9   4   84.70    8.30
   1  -9  -4   88.17    8.98
  -1   9   3  235.68    9.40
   1  -9  -3  274.28   10.96
  -1   9   2    1.99    2.22
   1  -9  -2   12.02    4.95
  -1   9   2    1.38    1.67
  -1   9   1   11.63    4.20
   1  -9  -1   14.66    3.57
  -1   9   1    3.93    1.95
  -1   9   0    6.68    2.27
   1  -9   0    8.28    4.26
  -1   9   0    8.50    2.10
  -1   9  -1   10.75    2.25
   1  -9   1   -1.75    2.81
  -1   9  -1    8.75    2.93
  -1   9  -2    5.14    2.24
   1  -9   2   10.11    2.87
  -1   9  -2    7.55    2.01
  -1   9  -3   11.08    2.62
   1  -9   3   11.91    2.29
  -1   9  -4   69.24    8.11
   1  -9   4   79.11    5.97
  -1   9  -5    1.31    1.25
   1  -9   5    3.50    2.32
  -1   8  13   69.73    4.68
   1  -8 -13   55.05    7.33
  -1   8  12   19.06    3.06
   1  -8 -12   25.45    3.19
  -1   8  11   10.62    3.60
   1  -8 -11   11.97    2.94
  -1   8  10  114.28    4.52
   1  -8 -10  136.76   11.35
  -1   8   9   87.54    6.27
   1  -8  -9   84.21   13.04
  -1   8   8    3.95    2.61
   1  -8  -8   -0.34    2.19
   1  -8  -8    1.07    0.44
   1  -8  -8    1.58    0.76
  -1   8   7   11.72    4.25
   1  -8  -7    7.21    1.78
   1  -8  -7    3.65    0.74
   1  -8  -7    2.67    0.88
  -1   8   6  111.40    6.39
   1  -8  -6  112.16    5.14
  -1   8   5  100.48    5.37
   1  -8  -5  100.06    5.07
  -1   8   4   51.59    5.43
   1  -8  -4   56.91    3.47
  -1   8   3    4.66    1.54
   1  -8  -3   -1.69    2.96
  -1   8   2   38.17    7.29
   1  -8  -2   42.80    5.12
  -1   8   2   35.74    4.04
  -1   8   1   50.42    6.64
   1  -8  -1   71.01    4.89
  -1   8   1   51.62    5.25
  -1   8   0   60.78    7.86
   1  -8   0   44.13    7.13
  -1   8   0   43.08    6.98
  -1   8  -1  343.15   12.25
   1  -8   1  335.08   12.42
  -1   8  -1  310.56   11.46
  -1   8  -2   37.46    6.20
   1  -8   2   30.95    4.54
  -1   8  -2   30.54    4.10
  -1   8  -3   67.60    6.30
   1  -8   3   59.26    3.50
  -1   8  -3   44.31    3.40
  -1   8  -4   14.63    4.71
   1  -8   4   21.91    3.67
  -1   8  -5   14.90    2.74
   1  -8   5   14.82    3.33
  -1   8  -6    5.51    1.86
   1  -8   6    8.87    2.41
  -1   8  -7    8.97    3.23
   1  -8   7   10.21    3.43
  -1   7  14   48.78    5.79
   1  -7 -14   37.75    8.69
  -1   7  13    2.12    2.20
   1  -7 -13    4.70    1.97
  -1   7  12   68.10    5.28
   1  -7 -12   69.14    7.49
  -1   7  11   22.16    3.08
   1  -7 -11   26.32    4.48
  -1   7  10  174.42    8.86
   1  -7 -10  194.92   15.37
  -1   7   9   20.90    3.72
   1  -7  -9   20.23    3.30
  -1   7   8   77.99    5.39
   1  -7  -8   95.08   10.89
  -1   7   7   42.24    5.11
   1  -7  -7   42.88    5.52
   1  -7  -7   33.40    4.30
   1  -7  -7   43.20    4.02
  -1   7   6  112.29    6.19
   1  -7  -6  108.11   10.19
   1  -7  -6   95.86    3.47
   1  -7  -6  107.44    4.10
  -1   7   5  122.45    5.12
   1  -7  -5  140.26    5.96
   1  -7  -5  110.29    4.44
   1  -7  -5  140.50    5.18
  -1   7   4   56.94    5.11
   1  -7  -4   34.16    3.32
   1  -7  -4   33.77    4.79
  -1   7   3   88.72    4.22
   1  -7  -3   73.27    5.67
   1  -7  -2   14.89    2.30
  -1   7   2   12.45    1.67
  -1   7   1   23.63    3.49
   1  -7  -1   23.34    3.16
  -1   7   1   25.72    2.64
  -1   7   0  487.01   16.71
   1  -7   0  474.64   16.49
  -1   7   0  451.35   15.76
  -1   7  -1   91.72   10.25
   1  -7   1  102.63    5.39
  -1   7  -1  117.05   12.67
  -1   7  -2  148.22   11.02
   1  -7   2  149.94    8.07
  -1   7  -2  158.19    7.61
  -1   7  -3    2.29    1.37
   1  -7   3    3.70    2.92
  -1   7  -3   -0.51    1.56
  -1   7  -4   16.37    2.54
   1  -7   4   13.97    2.95
  -1   7  -5   15.04    2.29
   1  -7   5   12.74    2.55
  -1   7  -6   23.43    5.24
   1  -7   6   19.06    3.62
  -1   7  -7   14.70    3.30
   1  -7   7   16.04    3.76
  -1   7  -8    3.26    1.82
   1  -7   8    4.46    1.90
  -1   6  14   24.91    3.53
   1  -6 -14   24.29    5.34
  -1   6  13   13.03    3.21
   1  -6 -13   14.63    2.91
  -1   6  12    7.97    2.16
   1  -6 -12    9.73    3.25
  -1   6  11   42.82    3.72
   1  -6 -11   38.79    4.53
  -1   6  10  312.32   11.64
   1  -6 -10  310.76   17.99
  -1   6   9  331.96   12.10
   1  -6  -9  336.04   12.99
  -1   6   8    3.27    3.15
   1  -6  -8    7.86    2.17
  -1   6   6  539.87   17.33
   1  -6  -6  557.68   17.70
   1  -6  -6  510.93   15.25
   1  -6  -6  525.48   15.77
  -1   6   5    5.34    3.16
   1  -6  -5    7.21    2.57
   1  -6  -5    2.40    0.39
   1  -6  -5    1.13    1.08
  -1   6   4  234.91    7.43
   1  -6  -4  249.69    7.94
   1  -6  -4  218.05    6.49
  -1   6   3  248.30    7.69
   1  -6  -3  263.00    7.89
   1  -6  -3  228.48    6.40
  -1   6   2  280.46    8.34
   1  -6  -2  299.12    8.84
  -1   6   2  269.46    7.65
  -1   6   1   77.46    9.12
   1  -6  -1   73.79    4.76
  -1   6   1   68.29    3.96
  -1   6   0   69.58    8.78
   1  -6   0   77.68    4.97
  -1   6   0   70.56    6.93
  -1   6  -1  284.57    9.76
   1  -6   1  269.97    9.43
  -1   6  -1  284.94    9.75
  -1   6  -2   12.45    3.03
   1  -6   2   10.35    2.24
  -1   6  -2   18.67    3.59
  -1   6  -3   40.54    5.79
   1  -6   3   31.16    4.02
  -1   6  -3   34.02    3.93
  -1   6  -4   29.70    4.85
   1  -6   4   28.24    4.16
  -1   6  -4   29.37    3.70
  -1   6  -5   26.37    4.64
   1  -6   5   31.32    4.85
  -1   6  -6   19.76    2.92
   1  -6   6   24.20    2.65
  -1   6  -7    1.61    1.64
   1  -6   7    3.94    2.53
  -1   6  -8   40.80    8.17
   1  -6   8   61.31    4.81
  -1   6  -9    2.23    1.44
   1  -6   9    0.39    1.86
   1  -6   9    2.32    2.60
  -1   5  14   20.04    3.37
   1  -5 -14   14.36    4.13
  -1   5  13   33.74    3.21
   1  -5 -13   28.63    3.98
  -1   5  12    6.67    1.92
   1  -5 -12    7.70    2.02
  -1   5  11   33.31    2.90
   1  -5 -11   37.12    5.49
  -1   5  10    2.20    2.20
   1  -5 -10   -0.46    1.79
  -1   5   9  341.76   14.09
   1  -5  -9  364.15   14.87
  -1   5   8  288.23   10.65
   1  -5  -8  297.09   10.60
  -1   5   7   19.24    2.51
   1  -5  -7   21.69    2.74
  -1   5   6  296.21    8.62
   1  -5  -6  305.93    8.75
   1  -5  -6  305.76    7.46
   1  -5  -6  295.77    7.26
  -1   5   5  141.28    4.78
   1  -5  -5  134.21    2.92
   1  -5  -5  138.15    3.25
   1  -5  -4  214.57    5.77
   1  -5  -4  203.93    4.39
   1  -5  -4  201.70    4.43
  -1   5   3  126.62    5.61
   1  -5  -3  153.37   10.09
   1  -5  -3  133.29    5.54
  -1   5   2  283.75    7.40
   1  -5  -2  337.26    7.89
   1  -5  -2  312.90    6.95
   1  -5  -1 1029.22   20.81
   1  -5  -1  935.95   18.65
  -1   5   0   18.88    2.80
  -1   5   0   11.94    1.72
  -1   5  -1  234.24    5.95
   1  -5   1  225.16    6.07
  -1   5  -1  241.32    6.17
  -1   5  -2   87.74    8.10
   1  -5   2   79.03    4.64
  -1   5  -2   84.26    4.73
  -1   5  -3  204.42   14.89
   1  -5   3  199.79    7.31
  -1   5  -3  192.83    7.15
  -1   5  -4   23.25    3.14
   1  -5   4   20.04    2.56
  -1   5  -4   19.97    2.66
  -1   5  -5   20.38    4.60
   1  -5   5   12.23    2.88
  -1   5  -5   23.47    4.36
  -1   5  -6   44.84    7.08
   1  -5   6   40.91    5.31
  -1   5  -7   -0.75    1.48
   1  -5   7    3.56    1.92
  -1   5  -8   53.82   10.21
   1  -5   8   73.00    5.39
  -1   5  -9    1.71    0.99
   1  -5   9    4.14    2.20
   1  -5  10   51.53    6.40
   1  -5  10   62.80    7.39
   1  -4 -14    6.25    1.89
  -1   4  13   62.22    4.11
   1  -4 -13   41.18    8.96
  -1   4  12    4.52    2.39
   1  -4 -12    4.15    1.27
  -1   4  11   32.23    2.40
   1  -4 -11   28.91    3.30
  -1   4  10  620.10   21.09
   1  -4 -10  636.88   21.53
  -1   4   9   80.03    4.37
   1  -4  -9   82.76    6.54
   1  -4  -8  479.00   16.01
  -1   4   7  101.59    4.83
   1  -4  -7   94.44    7.02
  -1   4   6  403.05    8.80
   1  -4  -6  417.62   10.37
  -1   4   5   -0.77    1.74
   1  -4  -5    4.56    1.77
   1  -4  -5    0.61    0.24
   1  -4  -5    0.41    0.58
  -1   4   4   62.56    3.44
   1  -4  -4   57.79    3.12
   1  -4  -4   67.63    6.24
  -1   4   4   54.09    2.84
   1  -4  -4   61.92    2.59
   1  -4  -4   61.59    2.69
  -1   4   3   -0.13    1.65
   1  -4  -3    3.71    1.30
   1  -4  -3    3.14    1.70
  -1   4   3    0.02    1.44
   1  -4  -3    1.12    0.69
   1  -4  -3    4.09    1.21
   1  -4  -2  368.22    5.73
  -1   4   2  351.80    5.42
   1  -4  -2  357.14    5.08
   1  -4  -1    5.61    1.32
   1  -4  -1    1.10    2.03
  -1   4   1   -1.14    1.25
   1  -4  -1    3.73    1.02
  -1   4   0    6.15    1.35
   1  -4   0    4.21    1.27
   1  -4   0    4.95    2.11
  -1   4   0    6.30    1.60
  -1   4   0    3.80    0.91
   1  -4   0    1.90    0.71
   1  -4   1  465.21   10.07
  -1   4  -1  454.05    9.60
  -1   4  -2    9.07    1.63
   1  -4   2    5.37    1.27
   1  -4   2    6.29    1.54
  -1   4  -2    6.26    1.00
  -1   4  -2    7.25    1.56
  -1   4  -3   65.27    7.16
   1  -4   3   65.21    4.02
  -1   4  -3   63.07    3.41
  -1   4  -4    6.17    1.11
   1  -4   4   10.07    1.65
  -1   4  -4    5.88    1.69
  -1   4  -5  214.74   14.45
   1  -4   5  207.34    7.70
  -1   4  -5  204.53    7.84
  -1   4  -6  142.10   10.70
   1  -4   6  137.67    6.51
  -1   4  -7   24.72    5.88
   1  -4   7   25.47    3.48
  -1   4  -8  124.56   12.18
   1  -4   8  111.15    6.01
  -1   4  -9    1.22    1.15
   1  -4   9    0.70    1.64
  -1   4 -10    3.40    1.59
   1  -4  10   10.52    2.68
   1  -4  10   11.87    3.56
  -1   3  13    3.29    2.11
   1  -3 -13    2.50    2.08
  -1   3  12   92.92    6.20
   1  -3 -12   74.99   13.53
  -1   3  11    4.63    1.81
   1  -3 -11    1.92    1.39
  -1   3  10  244.97    8.96
   1  -3 -10  253.70    9.49
  -1   3  10  242.06    7.85
  -1   3   9  265.82   11.03
   1  -3  -9  285.45   11.84
  -1   3   9  254.55    9.68
  -1   3   9  256.28    9.75
  -1   3   8    3.19    1.92
   1  -3  -8    3.79    1.40
  -1   3   8    3.57    0.73
  -1   3   7  105.22    3.89
   1  -3  -7   93.15    3.32
   1  -3  -7  103.93    8.19
  -1   3   7  101.87    2.60
  -1   3   6   89.28    6.06
   1  -3  -6   83.70    5.64
   1  -3  -6   85.00    9.35
   1  -3  -6   81.53    5.03
  -1   3   6   84.70    5.23
  -1   3   5   59.86    3.57
   1  -3  -5   51.87    2.87
   1  -3  -5   51.56    2.21
  -1   3   5   54.32    2.17
   1  -3  -4    3.46    1.44
  -1   3   4    1.18    0.96
   1  -3  -4    0.16    0.49
  -1   3   3   87.28    3.68
   1  -3  -3   81.99    3.05
  -1   3   3   80.37    6.78
   1  -3  -3   80.97    2.52
   1  -3  -3   85.75    2.75
  -1   3   2    4.35    1.55
   1  -3  -2    5.24    1.28
   1  -3  -2    5.61    0.85
   1  -3  -2    6.30    2.32
  -1   3   1    0.37    0.84
   1  -3  -1    3.55    0.77
   1  -3  -1    5.07    1.86
  -1   3   1    0.35    1.37
  -1   3   0   30.98    4.10
   1  -3   0   34.83    4.56
   1  -3   0   32.13    2.13
  -1   3   0   32.34    1.98
   1  -3   0   32.25    3.06
   1  -3   1    0.87    0.95
  -1   3  -1    1.91    1.42
  -1   3  -1   -2.09    1.15
  -1   3  -2  172.80    4.95
   1  -3   2  162.67    4.21
   1  -3   2  174.08    4.41
  -1   3  -2  170.27    4.19
  -1   3  -2  174.76    4.69
   1  -3   2  161.38    4.06
  -1   3  -3   43.12    4.73
   1  -3   3   36.02    4.04
   1  -3   3   44.00    3.58
  -1   3  -3   44.09    3.43
  -1   3  -3   44.26    3.51
  -1   3  -4  170.41    9.91
   1  -3   4  177.31    5.04
   1  -3   4  197.89    6.22
  -1   3  -4  191.52    5.96
  -1   3  -5  148.73    5.65
   1  -3   5  109.46    7.12
   1  -3   5  136.15    5.42
  -1   3  -6  238.78   17.51
   1  -3   6  236.24    8.27
  -1   3  -7   34.92    6.62
   1  -3   7   36.93    5.74
  -1   3  -8    2.35    1.81
   1  -3   8    0.86    1.42
  -1   3  -9    0.81    1.33
   1  -3   9    2.87    1.68
   1  -3   9    3.47    3.17
   1  -3  10   90.16    4.23
   1  -3  10   93.07    3.63
   1  -3  10   89.54    3.95
   1  -3  11    2.89    1.50
   1  -3  11    0.63    1.32
   1  -3  11    3.56    2.22
   1  -2 -13   20.79    6.21
  -1   2  12   25.89    2.40
   1  -2 -12   23.47    4.13
  -1   2  11    8.91    1.63
   1  -2 -11   12.40    2.76
  -1   2  11    7.95    1.01
  -1   2  10   56.73    6.49
   1  -2 -10   54.11   10.38
  -1   2   9   58.08    6.11
   1  -2  -9   57.20    7.96
  -1   2   9   49.03    7.16
  -1   2   8    5.88    1.17
  -1   2   8    8.16    1.75
   1  -2  -8   12.95    2.56
   1  -2  -8    8.33    1.42
  -1   2   8    7.01    1.04
  -1   2   7   64.30    3.44
   1  -2  -7   77.98    7.12
   1  -2  -7   72.28    3.37
  -1   2   7   71.98    3.31
  -1   2   6   59.98    4.21
   1  -2  -6   57.68    4.03
   1  -2  -6   70.02    6.73
   1  -2  -6   60.17    3.87
  -1   2   6   62.70    4.04
  -1   2   5  795.30   15.89
   1  -2  -5  757.22   15.04
   1  -2  -5  791.22   15.21
  -1   2   5  747.91   14.40
  -1   2   4  229.55    6.83
   1  -2  -4  228.62    6.79
  -1   2   4  224.42    7.00
   1  -2  -4  237.14    6.66
  -1   2   4  229.74    6.50
   1  -2  -3  947.38   11.06
  -1   2   3  952.01   11.29
   1  -2  -3  983.00   10.93
  -1   2   3  964.77   10.70
  -1   2   2  486.62    6.30
   1  -2  -2  496.49    6.54
   1  -2  -2  505.31    6.10
  -1   2   2  494.81    5.96
  -1   2   1 3523.72   38.24
   1  -2  -1 3481.37   37.70
  -1   2   0  351.62    5.23
   1  -2   0  315.75   12.18
   1  -2   0  373.48    5.33
   1  -2   0  363.33    5.33
   1  -2   1  324.68    4.88
  -1   2  -1  317.48   12.12
   1  -2   1  325.36    4.66
   1  -2   2  685.34    8.70
   1  -2   2  688.70    8.33
  -1   2  -2  686.43    8.24
   1  -2   2  652.74    8.85
  -1   2  -3  995.31   19.77
   1  -2   3  940.99   18.97
   1  -2   3  989.76   19.35
  -1   2  -3  978.64   19.05
  -1   2  -4   88.60    8.75
   1  -2   4   60.52    6.47
   1  -2   4   69.73    5.74
   1  -2   4   70.73    4.74
   1  -2   4   70.13    7.72
  -1   2  -5  178.25    5.53
   1  -2   5  191.19    5.29
   1  -2   5  190.23    5.56
  -1   2  -6   39.98    3.85
   1  -2   6   28.40    3.70
   1  -2   6   32.26    2.89
  -1   2  -7  330.44   10.92
   1  -2   7  329.68   10.83
  -1   2  -8  142.99   10.52
   1  -2   8  122.67    5.45
   1  -2   9   97.96    5.52
   1  -2   9  109.52    6.31
   1  -2  10   92.89    3.68
   1  -2  10   90.20    3.33
   1  -2  10   88.19    3.69
   1  -2  11    8.02    2.13
   1  -2  11    6.34    1.64
   1  -2  11    9.05    3.10
   1  -2  12    5.38    2.03
   1  -2  12   10.15    3.15
   1  -1 -13    5.05    2.14
   1  -1 -12   14.27    3.11
  -1   1  11   36.70    3.79
   1  -1 -11   31.70    5.26
  -1   1  10  155.81    7.21
   1  -1 -10  156.47   10.91
  -1   1   9    9.07    2.45
   1  -1  -9    1.27    1.47
   1  -1  -9    4.78    1.20
  -1   1   9    1.93    0.97
  -1   1   8   41.39    7.19
  -1   1   8   65.90    7.73
   1  -1  -8   70.00   13.20
   1  -1  -8   68.80    7.77
  -1   1   8   57.72    7.11
  -1   1   7  142.37    4.78
  -1   1   7  152.28    5.35
   1  -1  -7  175.16   12.25
   1  -1  -7  155.99    5.18
  -1   1   7  144.89    4.90
  -1   1   6 1548.98   28.45
  -1   1   6 1633.72   30.08
   1  -1  -6 1654.93   30.96
   1  -1  -6 1588.65   29.14
  -1   1   6 1577.37   28.95
  -1   1   5  148.90    9.40
   1  -1  -5  145.05    9.13
   1  -1  -5  156.61   10.12
  -1   1   5  118.68    9.99
   1  -1  -5  149.66    9.41
  -1   1   5  145.01    9.11
  -1   1   4 1845.67   20.39
   1  -1  -4 1848.95   20.33
   1  -1  -4 1847.23   22.09
  -1   1   4 1812.83   20.57
   1  -1  -4 1816.25   19.91
  -1   1   4 1847.73   20.26
  -1   1   3   17.31    1.35
   1  -1  -3   16.53    0.98
   1  -1  -3   20.91    2.33
  -1   1   3   23.88    2.03
   1  -1  -3   19.48    0.99
  -1   1   3   15.94    0.88
  -1   1   2  108.36    3.45
   1  -1  -2  107.21    3.35
   1  -1  -2  111.70    4.04
  -1   1   2  111.91    7.13
   1  -1  -2  113.71    3.64
  -1   1   1  425.54    5.18
   1  -1  -1  417.22    5.01
   1  -1  -1  430.99    5.38
  -1   1   1  420.07    5.73
   1  -1  -1  417.22    5.16
  -1   1   1  427.93    5.25
  -1   1   0 1469.54   16.27
   1  -1   0 1427.54   15.68
  -1   1   0 1447.02   15.76
  -1   1   0 1416.75   15.64
   1  -1   1   86.71    5.31
   1  -1   1   71.59    2.28
  -1   1  -1   75.07    2.59
   1  -1   1   68.71    2.83
   1  -1   2    9.42    1.28
   1  -1   2    8.38    0.90
  -1   1  -2    9.36    0.95
   1  -1   2    9.06    0.82
   1  -1   2    7.41    3.11
   1  -1   3  619.49    7.31
   1  -1   3  618.59    7.37
  -1   1  -4   33.00    3.30
   1  -1   4   24.01    3.25
   1  -1   4   26.64    2.65
   1  -1   4   25.98    1.65
   1  -1   4   25.48    2.94
  -1   1  -5  355.40    7.75
   1  -1   5  344.10    7.47
   1  -1   5  347.83    6.98
   1  -1   5  356.29    7.38
   1  -1   5  326.23    6.87
  -1   1  -6  161.46   11.08
   1  -1   6  132.89    3.90
   1  -1   6  154.29    4.73
  -1   1  -7   18.86    2.76
   1  -1   7   15.48    2.63
   1  -1   7   22.13    3.22
   1  -1   7   23.41    3.59
   1  -1   8  530.17   20.62
   1  -1   8  566.90   22.23
   1  -1   9    8.98    2.96
   1  -1   9   -2.55    1.33
   1  -1   9    1.72    1.99
   1  -1  10   74.47    4.70
   1  -1  10   78.52    4.62
   1  -1  10   70.28    4.44
   1  -1  11   32.46    3.84
   1  -1  11   33.48    3.89
   1  -1  11   39.67    7.97
   1  -1  12   22.01    3.42
   1  -1  12   10.01    1.75
   1  -1  12   13.42    2.31
  -1   0  12   11.95    3.12
  -1   0  11   28.73    3.07
   1   0 -11   28.32    3.38
  -1   0  10  183.38    3.57
   1   0 -10  177.14   12.17
   1   0 -10  171.85    3.62
  -1   0   9    0.52    0.51
  -1   0   9    3.03    1.84
   1   0  -9    2.39    1.30
   1   0  -9    2.38    0.62
  -1   0   8    2.01    0.63
  -1   0   8    6.53    2.04
   1   0  -8    2.43    1.69
   1   0  -8    3.69    1.07
  -1   0   7  186.06    6.08
  -1   0   7  189.45    6.27
   1   0  -7  205.73   13.87
   1   0  -7  187.97    6.52
  -1   0   7  182.81    6.12
  -1   0   6  321.38    8.23
  -1   0   6  330.74    8.62
   1   0  -6  339.45    9.30
   1   0  -6  327.24    8.58
  -1   0   6  296.84    7.83
  -1   0   5  352.79    6.91
  -1   0   5  360.36    7.15
   1   0  -5  357.94    8.01
  -1   0   5  344.66    7.35
   1   0  -5  365.27    7.50
  -1   0   5  352.20    7.12
  -1   0   4  138.57    5.56
  -1   0   4  141.97    5.58
  -1   0   4  131.05    9.76
   1   0  -4  144.58    9.12
  -1   0   4  143.00    8.98
  -1   0   3  699.23    7.81
  -1   0   3  696.27    7.82
  -1   0   3  669.67    8.31
   1   0  -3  689.50    8.19
  -1   0   3  676.84    8.05
  -1   0   2  629.16    6.92
   1   0  -2  640.24    7.03
  -1   0   2  594.81    7.28
  -1   0   2  612.38    7.33
  -1   0   1   22.47    1.41
   1   0  -1   20.96    2.02
  -1   0   1   16.87    1.08
  -1   0   0    5.96    1.12
   1   0   0    7.48    0.45
   1   0   0    6.95    1.26
  -1   0   0   10.97    0.81
  -1   0  -1  915.46   10.38
   1   0   1  895.27   10.17
  -1   0  -1  933.80   10.50
   1   0   2 1364.26   15.42
   1   0   2 1406.07   15.08
   1   0   2 1328.25   15.04
  -1   0  -3  321.14   12.39
   1   0   3  285.21    8.32
  -1   0  -3  301.07   11.33
   1   0   3  291.81    8.15
  -1   0  -4  171.96    5.54
  -1   0  -4  168.07    4.98
   1   0   4  161.84    4.81
   1   0   4  159.94    4.88
  -1   0  -5  331.11    7.48
   1   0   5  283.32    6.48
  -1   0  -5  315.04    6.64
   1   0   5  304.86    6.37
   1   0   5  306.92    6.58
  -1   0  -6  758.24   18.79
   1   0   6  709.66   17.50
   1   0   6  698.21   17.34
   1   0   6  720.42   18.10
   1   0   7   67.93    5.71
  -1   0  -7   67.60    6.96
   1   0   7   50.12    5.57
   1   0   7   53.95    5.89
   1   0   7   61.59    4.81
   1   0   8   38.04    4.46
  -1   0  -8   36.16    3.62
   1   0   8   22.09    3.10
   1   0   8   39.48    4.32
   1   0   9   67.63    6.59
   1   0   9   63.96    6.08
   1   0   9   75.36    7.36
   1   0  10   33.24    3.38
   1   0  10   33.14    2.65
   1   0  10   33.17    2.83
   1   0  11   94.06    3.70
   1   0  11   80.82    3.17
   1   0  11   97.39    3.78
   1   0  12    4.44    1.88
   1   0  12    4.85    1.51
   1   0  12    5.19    1.71
  -1  -1  12   51.34    3.84
  -1  -1  11   10.04    2.96
  -1  -1  10  126.15    6.24
  -1  -1  10  137.81    7.85
   1   1 -10  126.32    7.81
  -1  -1   9    7.02    1.72
  -1  -1   9    5.43    2.45
   1   1  -9    5.74    1.54
  -1  -1   8  219.41    8.86
  -1  -1   8  251.25   10.16
   1   1  -8  257.43   10.93
   1   1  -8  239.61    9.86
  -1  -1   7  194.11    6.73
  -1  -1   7  197.96    7.02
   1   1  -7  212.53    7.91
   1   1  -7  210.26    7.61
  -1  -1   6   31.54    3.81
  -1  -1   6   43.45    2.53
   1   1  -6   40.31    4.38
   1   1  -6   47.68    5.59
  -1  -1   6   27.67    4.60
  -1  -1   5  219.29    5.26
  -1  -1   5  220.55    4.68
   1   1  -5  250.28   13.57
   1   1  -5  224.18    5.17
  -1  -1   5  218.71    4.99
  -1  -1   4  298.21    6.19
   1   1  -4  305.97    6.76
  -1  -1   4  291.02    7.17
   1   1  -3  345.79    4.46
  -1  -1   3  344.81    4.23
   1   1  -3  345.63    5.22
  -1  -1   3  326.63    4.75
   1   1  -3  344.33    5.01
  -1  -1   3  327.37    4.69
   1   1  -2  114.65    3.31
  -1  -1   2  111.64    3.22
   1   1  -2  116.75    3.81
  -1  -1   2  102.44    3.40
   1   1  -2  111.18    3.58
  -1  -1   2  107.65    3.48
   1   1  -1  583.30    6.41
  -1  -1   1  574.97    7.06
   1   1  -1  592.72    7.33
  -1  -1   1  571.72    7.03
  -1  -1   0  466.78    5.37
   1   1   0  463.58    5.75
  -1  -1  -1  451.48    5.48
  -1  -1  -1  461.33    5.36
   1   1   1  462.69    5.40
   1   1   1  446.88    5.44
   1   1   2    0.84    0.87
   1   1   2   -0.01    2.25
  -1  -1  -2    4.32    0.99
   1   1   2    3.58    1.83
  -1  -1  -2    7.64    1.47
   1   1   3  108.25    3.60
   1   1   3  109.54    4.03
  -1  -1  -3  112.53    3.38
   1   1   3  106.21    3.38
   1   1   3  109.17    3.46
  -1  -1  -3  108.05    3.38
   1   1   4  801.52    9.89
   1   1   4  818.10   10.33
  -1  -1  -4  827.76    9.62
   1   1   4  814.57    9.45
   1   1   4  823.23    9.71
   1   1   5 1236.95   24.36
   1   1   6  418.08    9.04
  -1  -1  -6  418.01    8.52
   1   1   6  429.75    8.51
   1   1   6  404.84    8.02
   1   1   6  427.31    8.64
   1   1   7  442.99   12.03
  -1  -1  -7  438.75   11.31
   1   1   7  405.07   10.37
   1   1   7  400.00   10.36
   1   1   7  433.64   11.21
   1   1   8   22.38    3.19
  -1  -1  -8   24.58    4.39
   1   1   8   17.01    3.27
   1   1   8   20.33    3.71
   1   1   8   22.87    2.98
   1   1   9   38.92    6.19
  -1  -1  -9   40.28    7.55
   1   1   9   31.57    6.52
   1   1   9   49.36    7.47
   1   1  10    5.38    2.41
  -1  -1 -10    1.29    0.85
   1   1  10    0.95    2.07
   1   1  11   95.26    5.76
  -1  -1 -11  106.18    5.67
   1   1  11  105.23    5.85
   1   1  12   25.56    2.77
   1   1  12   24.60    2.27
   1   1  13    4.57    2.49
  -1  -2  11   14.51    2.55
  -1  -2  10    9.23    2.57
   1   2 -10   15.52    3.25
  -1  -2   9   36.63    2.07
  -1  -2   9   29.08    3.28
   1   2  -9   29.77    4.68
  -1  -2   8   46.67    6.35
  -1  -2   8   65.84    7.32
  -1  -2   8   71.69    8.52
   1   2  -8   74.36   11.51
  -1  -2   7  236.68    7.75
  -1  -2   7  271.94    8.82
  -1  -2   7  259.63    9.35
   1   2  -7  268.43    9.15
   1   2  -6  515.64   15.62
  -1  -2   6  476.33   14.55
  -1  -2   6  510.36   16.31
   1   2  -6  490.51   18.07
   1   2  -5  308.98    7.94
  -1  -2   5  306.30    7.93
  -1  -2   5  312.38    9.52
   1   2  -5  324.91    9.00
   1   2  -4   80.14    5.21
  -1  -2   4   78.51    5.80
   1   2  -4   83.13    5.70
  -1  -2   4   70.26    8.65
   1   2  -3  440.22    9.14
  -1  -2   3  430.35    8.55
  -1  -2   3  429.78    9.20
  -1  -2   3  439.77    9.79
   1   2  -3  442.98    9.56
   1   2  -2 1831.84   20.00
  -1  -2   2 1826.49   19.90
  -1  -2   2 1871.93   21.49
   1   2  -2 1855.25   21.09
  -1  -2   2 1759.84   19.95
   1   2  -1  235.25    6.69
  -1  -2   1  235.98    6.76
  -1  -2   1  233.69    7.36
   1   2  -1  229.68    7.00
  -1  -2   1  235.67    6.99
   1   2   0 4393.76   47.11
   1   2   0 4311.93   46.55
   1   2   0 4311.29   46.93
   1   2   1 1753.45   19.53
  -1  -2  -1 1728.60   19.15
  -1  -2  -1 1756.64   19.61
   1   2   1 1783.13   19.81
   1   2   1 1782.21   19.77
  -1  -2  -1 1767.19   19.56
  -1  -2  -2 1402.08   15.86
   1   2   2 1477.71   16.39
  -1  -2  -2 1405.58   15.61
   1   2   3 1054.02   12.76
  -1  -2  -3 1041.33   11.84
   1   2   3  997.60   11.34
   1   2   3 1028.00   11.59
  -1  -2  -3 1031.51   11.60
   1   2   4  189.55    6.37
  -1  -2  -4  196.88    6.13
  -1  -2  -4  202.05    6.06
   1   2   4  183.20    5.41
   1   2   4  195.85    5.71
  -1  -2  -4  197.63    5.73
   1   2   5  314.73    7.50
  -1  -2  -5  321.30    6.96
   1   2   5  322.56    6.77
   1   2   5  318.46    6.59
   1   2   6   43.34    6.01
   1   2   6   53.47    4.24
  -1  -2  -6   56.82    5.83
   1   2   6   49.54    5.05
   1   2   6   53.63    4.39
   1   2   6   54.73    3.82
   1   2   7   72.10    4.61
  -1  -2  -7   78.95    7.98
   1   2   7   68.47    5.51
   1   2   7   70.95    5.76
   1   2   7   71.81    3.50
   1   2   8   52.10    6.43
  -1  -2  -8   60.94   10.12
   1   2   8   35.80    6.36
   1   2   8   50.11    5.62
   1   2   8   63.03    7.28
   1   2   9  166.09    7.89
  -1  -2  -9  165.34    7.07
   1   2   9  150.12    6.11
   1   2   9  166.92    7.07
   1   2  10   90.92    9.42
  -1  -2 -10   72.43   11.24
   1   2  10   72.64    8.10
   1   2  11   -1.89    2.26
  -1  -2 -11    1.84    1.02
   1   2  11    3.07    1.45
   1   2  12   62.95    4.96
  -1  -2 -12   47.03    8.28
   1   2  13    6.06    2.12
  -1  -2 -13    5.12    2.00
  -1  -3  11   40.79    3.55
  -1  -3  10    2.62    2.14
   1   3 -10    4.33    1.15
  -1  -3   9   46.60    1.96
  -1  -3   9   49.15    3.97
   1   3  -9   48.26    6.49
  -1  -3   8   30.22    2.12
  -1  -3   8   37.15    4.09
   1   3  -8   33.34    4.87
   1   3  -7   70.41    6.41
  -1  -3   7   44.28    5.33
  -1  -3   7   72.97    7.54
   1   3  -7   71.74   10.26
   1   3  -6  342.30   10.76
  -1  -3   6  309.08    9.89
  -1  -3   6  336.12   11.63
   1   3  -6  340.24   14.00
   1   3  -5    3.72    1.08
  -1  -3   5    4.48    0.75
  -1  -3   5    4.41    2.32
   1   3  -5    3.54    1.29
   1   3  -4  156.35    4.50
  -1  -3   4  149.14    4.25
  -1  -3   4  160.92    5.80
   1   3  -4  160.44    5.00
   1   3  -3  248.22    5.26
  -1  -3   3  256.57    5.32
  -1  -3   3  254.32    6.55
   1   3  -2   96.82    4.35
  -1  -3   2   80.76    3.38
  -1  -3   2   84.10    3.76
  -1  -3   2   90.60    4.46
  -1  -3   2   86.64    3.85
   1   3  -1  169.99    5.32
  -1  -3   1  158.45    5.74
   1   3  -1  179.62    5.85
  -1  -3   1  173.26    5.43
   1   3   0   66.01    2.56
  -1  -3   0   70.90    2.59
   1   3   0   68.93    3.03
   1   3   0   65.07    2.67
  -1  -3   0   71.86    2.76
   1   3   1  489.41    6.54
   1   3   1  505.00    6.70
  -1  -3  -2  106.47    3.74
   1   3   2   99.94    3.51
  -1  -3  -2  104.76    3.40
  -1  -3  -3    9.81    1.39
  -1  -3  -3    5.61    1.08
   1   3   3    4.66    0.70
   1   3   3    9.53    1.28
  -1  -3  -3    6.32    0.84
   1   3   4   10.93    2.67
  -1  -3  -4    7.26    1.22
   1   3   4    8.06    1.28
   1   3   4    9.29    1.16
  -1  -3  -4    5.98    0.91
   1   3   5    8.81    2.98
  -1  -3  -5    5.36    1.34
  -1  -3  -5    4.56    0.90
   1   3   5    2.92    0.55
  -1  -3  -5    3.61    0.58
   1   3   6    7.93    2.48
  -1  -3  -6    9.18    1.46
   1   3   6    4.36    1.08
   1   3   6    2.74    0.60
   1   3   7  368.59   10.64
  -1  -3  -7  343.82    9.14
   1   3   7  309.68    9.45
   1   3   7  327.42    8.10
   1   3   7  325.45    8.15
   1   3   8  100.86    5.21
  -1  -3  -8   89.79    3.80
   1   3   8   63.36   10.05
   1   3   8   82.55    3.19
   1   3   8   89.86    3.28
   1   3   9  355.70   12.32
  -1  -3  -9  357.09   11.92
   1   3   9  315.65    9.60
   1   3   9  325.74   10.01
   1   3  10  274.52   10.44
  -1  -3 -10  277.81    9.50
   1   3  10  236.80    7.62
   1   3  10  237.74    7.61
   1   3  11   46.16    4.11
  -1  -3 -11   37.14    5.54
   1   3  11   38.08    1.46
   1   3  12   67.17    4.34
  -1  -3 -12   56.91    8.73
   1   3  13   21.62    4.89
  -1  -3 -13   18.27    4.46
   1   3  14   13.92    2.75
  -1  -4  10   98.75    5.45
   1   4 -10  104.00    4.67
  -1  -4   9   14.33    2.39
   1   4  -9    9.56    2.80
   1   4  -8   27.02    1.62
  -1  -4   8   25.23    3.39
   1   4  -8   28.40    3.93
   1   4  -7   22.61    3.46
  -1  -4   7   23.92    2.81
   1   4  -7   20.15    3.59
   1   4  -6   24.42    3.20
  -1  -4   6   17.95    2.07
  -1  -4   6   24.94    4.06
   1   4  -6   25.91    3.80
   1   4  -5  233.91    7.96
  -1  -4   5  222.96    7.27
  -1  -4   5  238.62    9.27
   1   4  -5  241.95    9.33
   1   4  -4   64.82    6.65
  -1  -4   4   55.94    4.05
  -1  -4   4   60.49    5.19
   1   4  -4   66.41    8.24
   1   4  -3   49.99    4.85
  -1  -4   3   36.88    2.14
  -1  -4   3   41.97    3.16
   1   4  -3   51.90    6.07
   1   4  -2  116.52    7.52
  -1  -4   2  108.21    7.08
  -1  -4   2   99.90    7.03
   1   4  -2  108.20    7.15
   1   4  -1  765.96   15.54
  -1  -4   1  734.66   14.66
  -1  -4   1  762.94   16.06
   1   4  -1  773.27   15.90
   1   4   0    6.13    2.12
  -1  -4   0    1.62    1.35
  -1  -4   0    5.08    2.52
   1   4   0    1.94    1.41
   1   4   0    2.76    1.37
  -1  -4   0    4.04    0.71
  -1  -4  -1    3.21    2.42
   1   4   1    0.47    1.56
   1   4   1    3.44    1.46
  -1  -4  -2    2.50    2.06
   1   4   2    2.20    1.83
   1   4   2    2.54    1.10
  -1  -4  -2    1.02    0.52
  -1  -4  -3  358.21    5.60
  -1  -4  -3  374.43    5.87
   1   4   3  374.40    5.18
  -1  -4  -3  370.05    5.13
   1   4   4   65.04    3.66
  -1  -4  -4   65.47    3.40
  -1  -4  -4   73.63    3.65
   1   4   4   67.24    3.24
   1   4   4   79.48    4.09
  -1  -4  -4   73.66    3.25
   1   4   5    8.94    3.06
  -1  -4  -5    9.26    1.46
   1   4   5   11.82    1.60
  -1  -4  -5    9.02    0.95
   1   4   6  277.38    7.61
  -1  -4  -6  271.57    6.13
   1   4   6  259.81    5.11
  -1  -4  -6  262.51    5.11
   1   4   7   47.59    3.87
  -1  -4  -7   57.12    6.64
   1   4   7   38.92    2.32
   1   4   7   48.11    2.15
   1   4   7   45.94    2.06
   1   4   8  409.89   14.38
  -1  -4  -8  393.32   13.55
   1   4   8  343.43   10.77
   1   4   8  352.76   11.06
   1   4   9  133.07    6.06
  -1  -4  -9  143.45    5.51
   1   4  10  277.65   10.19
  -1  -4 -10  271.55   18.42
   1   4  11  210.40    6.28
  -1  -4 -11  197.54   12.81
   1   4  12    3.09    2.31
  -1  -4 -12    7.86    1.97
   1   4  13   18.91    4.75
  -1  -4 -13    3.81    1.43
   1   4  14   42.70    5.74
  -1  -5   9    0.19    2.07
   1   5  -9    1.91    0.95
  -1  -5   8   18.40    3.62
   1   5  -8   12.04    2.40
   1   5  -7    1.86    0.69
  -1  -5   7    0.96    2.42
   1   5  -7    2.78    1.55
   1   5  -6   47.91    6.90
  -1  -5   6   49.29    6.16
   1   5  -6   55.18    9.33
   1   5  -5    2.32    0.85
  -1  -5   5    2.45    1.59
  -1  -5   5   -0.38    2.83
   1   5  -5    3.59    1.59
   1   5  -4    3.51    1.09
  -1  -5   4    3.13    1.59
  -1  -5   4    5.20    2.83
   1   5  -4    3.55    1.55
   1   5  -3  142.15    5.19
  -1  -5   3  121.39    4.37
  -1  -5   3  135.30    6.00
   1   5  -2  137.38    4.41
  -1  -5   2  133.93    4.22
  -1  -5   2  125.66    5.25
   1   5  -2  145.39    4.87
   1   5  -1  107.52    7.16
  -1  -5   1   90.14    5.96
  -1  -5   1   98.66    7.13
   1   5  -1  112.24    7.93
   1   5   0  857.62   16.64
  -1  -5   0  798.46   15.42
  -1  -5   0  822.59   16.57
   1   5   0  864.02   17.23
   1   5   1 1040.63   20.93
  -1  -5  -1 1008.98   20.11
   1   5   1 1072.10   22.08
  -1  -5  -1  972.72   19.57
   1   5   2 1362.44   26.98
  -1  -5  -2 1220.10   23.96
   1   5   2 1270.43   25.08
   1   5   2 1368.21   27.00
  -1  -5  -2 1236.98   24.24
   1   5   3   78.94    4.14
  -1  -5  -3   70.89    3.75
   1   5   3   77.02    4.60
  -1  -5  -3   68.64    4.87
   1   5   4  432.34    9.69
  -1  -5  -4  424.03    9.14
   1   5   4  400.45    8.43
   1   5   4  404.41    8.29
  -1  -5  -4  409.85    8.19
   1   5   5    3.36    1.57
   1   5   6  466.22   12.54
  -1  -5  -6  448.56   11.88
   1   5   6  458.23   11.43
  -1  -5  -6  466.78   11.53
   1   5   7  110.93    5.03
  -1  -5  -7  134.46    9.27
   1   5   7  119.45    3.70
  -1  -5  -7  115.66    3.61
  -1  -5  -8   22.58    3.10
   1   5   9  661.72   26.30
  -1  -5  -9  657.71   25.47
   1   5  10   88.39   10.43
  -1  -5 -10   92.49   10.36
   1   5  11   18.66    3.01
  -1  -5 -11   23.63    3.08
   1   5  12   29.67    4.43
  -1  -5 -12   26.62    3.46
   1   5  13   14.20    4.30
  -1  -5 -13    7.39    3.00
   1   5  14   97.00    5.37
  -1  -6   8   -1.85    2.48
   1   6  -8   -1.15    1.52
   1   6  -7  106.82    6.58
  -1  -6   7  131.12    9.07
   1   6  -7  124.54   16.12
   1   6  -6    3.21    0.98
  -1  -6   6   10.24    3.81
   1   6  -6    2.08    1.45
   1   6  -5  126.31    5.84
  -1  -6   5  132.33    7.39
   1   6  -5  134.05   16.10
   1   6  -4    2.49    0.92
  -1  -6   4    4.49    3.48
   1   6  -4    2.03    1.52
   1   6  -3   21.64    3.23
  -1  -6   3   18.16    3.56
   1   6  -3   23.01    4.96
   1   6  -2  245.34    8.89
  -1  -6   2  226.44    8.96
   1   6  -2  222.39   10.38
   1   6  -1  354.59   12.39
  -1  -6   1  353.00   12.02
   1   6  -1  363.77   13.17
   1   6   0  626.18   16.23
  -1  -6   0  637.24   17.07
   1   6   0  617.45   16.59
   1   6   1  340.46    9.57
  -1  -6  -1  359.06   10.58
   1   6   1  333.85    9.27
   1   6   2    6.32    1.61
  -1  -6  -2    6.46    3.02
   1   6   2   11.75    1.90
   1   6   3  255.99    6.66
  -1  -6  -3  247.61    6.42
   1   6   3  245.38    5.70
  -1  -6  -3  232.72    5.37
  -1  -6  -4   27.12    2.59
   1   6   4   37.89    3.86
  -1  -6  -4   22.53    2.86
   1   6   5  108.70    5.21
  -1  -6  -5  105.51    4.41
   1   6   5  105.37    3.87
  -1  -6  -5  100.38    3.29
   1   6   6  168.62    7.21
  -1  -6  -6  153.73    5.88
   1   6   6  158.26    5.18
  -1  -6  -6  154.59    5.05
   1   6   7  479.80   16.69
  -1  -6  -7  485.91   17.03
   1   6   7  462.86   14.72
  -1  -6  -7  461.30   14.69
   1   6   8  193.63    8.09
  -1  -6  -8  189.16    7.68
   1   6   9   98.50    6.03
  -1  -6  -9  115.08    8.77
   1   6  10  375.95   14.15
  -1  -6 -10  352.87   12.71
   1   6  11    1.91    2.59
  -1  -6 -11    4.67    1.19
   1   6  12   68.56    3.73
  -1  -6 -12   65.75    6.63
   1   6  13   27.01    3.75
  -1  -6 -13   15.54    4.08
   1   6  14   10.97    3.10
  -1  -6 -14   10.55    2.13
  -1  -7   8    2.84    2.35
   1   7  -8    3.75    1.61
  -1  -7   7   21.50    4.29
   1   7  -7   20.42    4.34
   1   7  -6    8.09    2.08
  -1  -7   6   14.09    4.09
   1   7  -6   17.28    3.46
   1   7  -5    1.83    1.19
  -1  -7   5   -0.04    2.76
   1   7  -5    7.17    3.24
   1   7  -4   15.36    2.11
  -1  -7   4   19.83    3.62
   1   7  -4   13.76    2.96
   1   7  -3    6.85    1.66
  -1  -7   3   13.25    4.83
   1   7  -3    8.72    2.35
   1   7  -2  212.67   17.88
  -1  -7   2  220.10   10.89
   1   7  -2  193.21    8.90
   1   7  -1   14.86    2.73
  -1  -7   1   11.19    2.51
   1   7  -1   16.23    2.69
   1   7   0   71.51   10.76
  -1  -7   0   67.90    8.50
   1   7   0   82.98    9.49
   1   7   1   83.90    4.00
  -1  -7  -1   61.26    5.25
   1   7   1  100.27    6.46
   1   7   2   19.13    2.69
  -1  -7  -2   12.96    2.83
   1   7   2   19.37    2.88
   1   7   3   23.71    3.28
  -1  -7  -3   19.78    3.60
   1   7   3   26.36    4.80
   1   7   4  124.06    5.30
  -1  -7  -4  125.80    5.88
   1   7   4  110.17    5.24
   1   7   5   11.18    2.81
  -1  -7  -5    5.62    2.41
   1   7   5   12.76    1.77
  -1  -7  -5   10.77    2.05
   1   7   6  285.90   10.79
  -1  -7  -6  273.73   10.13
   1   7   6  262.95    8.84
  -1  -7  -6  244.83    8.30
   1   7   7   35.70    4.79
  -1  -7  -7   45.22    6.24
   1   7   7   38.58    4.78
  -1  -7  -7   32.98    3.12
   1   7   8   22.50    4.71
  -1  -7  -8   30.18    5.24
   1   7   8   21.77    3.98
  -1  -7  -8   25.38    3.75
   1   7   9   -0.48    2.88
  -1  -7  -9    2.70    1.01
   1   7  10  120.05    6.56
  -1  -7 -10  134.54   11.41
   1   7  11   12.11    3.25
  -1  -7 -11   15.03    2.46
   1   7  12   95.24    7.44
  -1  -7 -12   74.87   10.76
   1   7  13   17.28    3.87
  -1  -7 -13   10.79    2.65
   1   7  14    6.54    3.58
  -1  -7 -14    3.61    1.63
  -1  -8   6    5.24    2.94
   1   8  -6    4.02    1.91
   1   8  -5    7.29    2.66
  -1  -8   5   15.52    2.50
   1   8  -5   16.28    3.66
   1   8  -4    2.16    1.11
  -1  -8   4    4.95    3.00
   1   8  -3   25.70    3.81
  -1  -8   3    9.52    3.31
   1   8  -3   19.04    2.48
   1   8  -2   63.40    9.26
  -1  -8   2   57.15    7.39
   1   8  -2   66.58   10.00
   1   8  -1   52.08    8.48
  -1  -8   1   45.36    6.04
   1   8  -1   48.44    5.86
   1   8   0  852.95   33.32
  -1  -8   0  938.13   37.10
   1   8   0  922.09   36.69
   1   8   1   42.99    4.67
  -1  -8  -1   31.90    4.48
   1   8   1   43.83    6.13
   1   8   2    5.79    2.44
  -1  -8  -2    9.85    3.45
   1   8   2    3.50    1.70
   1   8   3   65.99    4.36
   1   8   3   76.41    9.40
   1   8   4   11.98    2.26
  -1  -8  -4   12.57    3.18
   1   8   4   12.48    2.81
   1   8   5   30.43    4.05
  -1  -8  -5   34.52    4.11
   1   8   5   42.54    6.44
   1   8   6  281.78   10.30
  -1  -8  -6  291.29   10.53
   1   8   6  271.64    8.78
   1   8   7   16.87    3.72
  -1  -8  -7   25.26    4.40
   1   8   7   22.79    4.46
  -1  -8  -7   14.85    2.35
   1   8   8   24.44    3.52
  -1  -8  -8   21.58    3.47
   1   8   8   21.50    3.18
  -1  -8  -8   20.25    2.30
   1   8   9    4.21    3.04
  -1  -8  -9    5.75    2.45
   1   8  10  137.11    5.06
  -1  -8 -10  145.04   13.48
   1   8  11   50.16    4.66
  -1  -8 -11   47.34    7.05
   1   8  12    1.47    2.32
  -1  -8 -12    6.50    3.17
   1   8  13   82.64   11.74
  -1  -8 -13   69.18   13.13
   1   8  14   20.92    4.13
  -1  -8 -14    9.95    2.99
  -1  -9   5    6.17    3.23
   1   9  -5    0.88    1.19
   1   9  -4   21.15    5.37
  -1  -9   4   26.42    3.50
   1   9  -4   23.87    8.29
   1   9  -3   33.01    4.29
  -1  -9   3   27.41    4.37
   1   9  -3   39.46    9.02
   1   9  -2   37.85    4.57
  -1  -9   2   46.70    5.01
   1   9  -2   47.95    4.97
   1   9  -1    3.74    1.56
  -1  -9   1   11.48    3.53
   1   9  -1    6.24    1.96
   1   9   0   10.70    2.14
  -1  -9   0   20.07    5.02
   1   9   0   15.03    2.76
   1   9   1  125.31   14.68
  -1  -9  -1  118.15    6.19
   1   9   1  128.10    6.32
   1   9   2   18.67    3.40
  -1  -9  -2   13.46    2.70
   1   9   2   21.33    3.61
   1   9   3   71.87    7.27
  -1  -9  -3   96.72   10.06
   1   9   3   72.20   10.10
   1   9   4  339.86   12.18
  -1  -9  -4  362.11   12.89
   1   9   4  365.38   13.30
   1   9   5   18.43    3.49
  -1  -9  -5   14.89    3.15
   1   9   5   12.46    2.57
  -1  -9  -6  186.41    8.34
   1   9   6  174.25    6.31
   1   9   7   58.89    7.63
  -1  -9  -7   58.77    9.31
   1   9   8    0.34    2.96
  -1  -9  -8    9.34    2.40
   1   9   8    2.40    0.92
   1   9   9  179.52    7.44
  -1  -9  -9  160.71   14.13
   1   9  10   61.73    5.29
  -1  -9 -10   59.79    7.48
   1   9  11   20.62    4.76
  -1  -9 -11   16.20    3.90
   1   9  12    8.61    3.00
  -1  -9 -12   12.95    4.20
   1   9  13   84.89    4.75
  -1  -9 -13   62.27   11.49
   1  10  -4    2.88    1.22
  -1 -10   4   -0.75    3.05
   1  10  -4    7.55    2.67
   1  10  -3    3.90    1.61
  -1 -10   3    7.63    3.25
   1  10  -3   12.07    3.01
   1  10  -2   37.47    5.11
  -1 -10   2   26.00    3.60
   1  10  -2   41.17    5.02
   1  10  -1   69.55   10.78
  -1 -10   1   62.67    5.81
   1  10  -1   76.20    8.98
   1  10   0    1.64    1.21
  -1 -10   0    1.66    3.44
   1  10   0   -0.46    1.87
   1  10   1   32.27    4.61
  -1 -10  -1   34.69    4.27
   1  10   1   27.60    4.64
   1  10   2   15.55    2.54
  -1 -10  -2   14.88    2.77
   1  10   2   24.94    3.59
   1  10   3   37.45    3.40
  -1 -10  -3   36.48    4.16
   1  10   3   49.88    6.06
   1  10   4  100.38    6.17
  -1 -10  -4  101.52    6.05
   1  10   4  109.96    7.82
   1  10   5    1.51    2.56
  -1 -10  -5    9.88    2.93
   1  10   5    4.70    1.81
   1  10   6   14.18    2.80
  -1 -10  -6   13.31    3.05
   1  10   6   14.19    3.41
   1  10   7    8.67    3.93
  -1 -10  -7   11.92    3.53
   1  10   7    4.44    1.10
   1  10   8    9.91    2.57
  -1 -10  -8    7.19    2.47
   1  10   8    5.42    1.32
   1  10   9   32.36    4.79
  -1 -10  -9   31.01    5.77
   1  10  10  111.70    8.65
  -1 -10 -10  111.69   11.30
   1  10  11   34.93    4.79
  -1 -10 -11   14.65    3.93
   1  10  12   19.99    4.25
  -1 -10 -12   18.78    3.57
   1  10  13   18.00    4.57
  -1 -10 -13   16.47    3.72
   1  11  -2   11.15    3.28
  -1 -11   2   19.05    5.47
   1  11  -2   20.55    4.55
   1  11  -1    2.57    1.35
  -1 -11   1   10.17    4.50
   1  11  -1   -0.26    2.11
   1  11   0    3.67    1.52
  -1 -11   0   12.86    3.73
   1  11   0    7.03    1.70
   1  11   1    3.46    1.07
  -1 -11  -1    6.75    3.10
   1  11   1    1.94    1.28
   1  11   2   10.96    2.71
  -1 -11  -2   13.96    4.10
   1  11   2   10.91    2.78
   1  11   3    1.70    2.23
  -1 -11  -3    7.32    3.00
   1  11   3    2.97    1.33
   1  11   4    7.70    2.78
  -1 -11  -4    1.85    2.85
   1  11   4    0.64    1.45
   1  11   5   15.32    3.24
  -1 -11  -5   27.35    4.00
   1  11   5   13.81    2.72
   1  11   6   37.42    4.53
  -1 -11  -6   38.59    5.29
   1  11   6   38.65    7.13
   1  11   7   10.32    2.39
  -1 -11  -7   14.85    2.81
   1  11   7   11.91    2.62
  -1 -11  -8    6.84    2.52
   1  11   8    6.75    2.20
   1  11   9   22.28    3.66
  -1 -11  -9   28.08    7.26
   1  11  10  135.80    8.84
  -1 -11 -10  123.98   12.45
   1  11  11    8.30    3.05
  -1 -11 -11    7.04    1.98
   1  11  12   31.71    4.61
  -1 -11 -12   25.65    5.56
   1  12   0    6.73    1.88
  -1 -12   0    3.06    2.79
   1  12   0    4.02    1.79
   1  12   1   88.69   13.35
  -1 -12  -1  108.49    6.37
   1  12   1   86.49   14.38
   1  12   2    2.89    1.39
  -1 -12  -2    5.92    3.23
   1  12   2    2.00    1.17
   1  12   3   53.34    9.00
  -1 -12  -3   55.18    5.65
   1  12   3   52.04    9.99
   1  12   4   47.02    5.85
  -1 -12  -4   41.36    4.10
   1  12   4   22.31    8.11
   1  12   5    8.76    2.94
  -1 -12  -5   27.98    5.89
   1  12   5   14.21    2.17
   1  12   6   40.84    4.20
  -1 -12  -6   34.32    4.19
   1  12   6   29.55    5.74
   1  12   7   18.52    4.69
  -1 -12  -7   16.95    3.80
   1  12   7   10.29    2.99
   1  12   8   18.23    4.13
  -1 -12  -8   17.52    4.10
   1  12   9    9.82    3.78
  -1 -12  -9    2.86    2.01
   1  12  10    4.91    3.13
  -1 -12 -10    0.72    2.78
   1  12  11   27.43    4.44
  -1 -12 -11   18.99    3.93
   1  13   3    5.66    2.00
  -1 -13  -3    7.51    3.34
   1  13   3    4.42    2.18
   1  13   4   29.49    7.91
  -1 -13  -4   45.71    6.49
   1  13   4   29.55    6.90
   1  13   5   11.36    3.49
  -1 -13  -5    7.17    3.20
   1  13   5    5.45    2.50
   1  13   6   49.58    3.71
  -1 -13  -6   50.81    4.48
   1  13   6   38.52    8.31
   1  13   7    3.45    2.51
  -1 -13  -7    6.40    3.42
   1  13   7    2.13    1.06
   1  13   8   38.03    5.61
  -1 -13  -8   39.27    5.62
  -2  13   6    5.24    2.34
   2 -13  -6   10.56    3.30
   2 -13  -6   14.76    3.03
   2 -13  -5    8.90    3.58
   2 -13  -5    4.78    2.69
  -2  13   4    4.34    2.02
   2 -13  -4    5.81    3.16
   2 -13  -4    3.63    2.18
  -2  12  10    3.25    3.17
   2 -12 -10    4.30    1.58
  -2  12   9   26.60    2.96
  -2  12   8   42.07    7.75
   2 -12  -8   49.83    8.49
  -2  12   7   30.97    7.13
   2 -12  -7   24.44    4.30
   2 -12  -7   18.97    2.83
  -2  12   6  105.19   12.03
   2 -12  -6  113.49   15.24
   2 -12  -6  106.11    6.15
  -2  12   5   18.86    6.98
   2 -12  -5   22.91    7.55
   2 -12  -5   30.20    3.19
  -2  12   4   47.08    7.50
   2 -12  -4   57.96    5.11
   2 -12  -4   57.52    4.52
  -2  12   3    5.51    1.77
   2 -12  -3    5.06    3.03
   2 -12  -3    4.93    2.24
  -2  12   2   62.64   12.28
   2 -12  -2   57.91    9.07
   2 -12  -2   50.58    7.72
  -2  12   1   17.22    5.54
   2 -12  -1   25.22    5.24
   2 -12  -1   29.34    3.61
  -2  12   0    2.79    1.95
   2 -12   0    6.64    3.84
   2 -12   0    0.70    2.67
  -2  11  11   93.24   10.17
   2 -11 -11   94.42   14.80
  -2  11  10   38.48    6.05
   2 -11 -10   46.09    8.30
  -2  11   9    5.22    2.49
   2 -11  -9    9.53    2.98
  -2  11   8  239.36   36.96
   2 -11  -8  237.15   19.09
  -2  11   7   13.86    2.31
   2 -11  -7    9.96    2.56
   2 -11  -7   10.35    1.85
  -2  11   6   65.83    7.39
   2 -11  -6   67.12    6.41
   2 -11  -6   60.26    4.42
  -2  11   5    7.51    1.77
   2 -11  -5    5.13    2.90
   2 -11  -5    3.00    1.97
   2 -11  -4    5.55    2.91
   2 -11  -4    5.43    2.33
  -2  11   3   50.38    5.97
   2 -11  -3   51.72    4.71
   2 -11  -3   46.78    4.34
  -2  11   2    8.06    2.40
   2 -11  -2    7.71    2.99
   2 -11  -2   11.02    2.99
  -2  11   1   12.55    2.54
   2 -11  -1   14.85    3.05
   2 -11  -1    6.29    3.73
  -2  11   0   10.26    2.64
   2 -11   0   24.07    4.24
   2 -11   0   13.58    3.58
  -2  11  -1    3.72    1.79
   2 -11   1   -0.75    2.37
   2 -11   1    7.07    2.95
  -2  11  -2    3.33    2.24
   2 -11   2    1.15    2.24
   2 -11   2    6.53    3.16
  -2  10  12    3.45    2.91
   2 -10 -12    5.43    1.93
  -2  10  11    5.53    2.73
   2 -10 -11    9.38    2.09
  -2  10  10   43.75    3.97
   2 -10 -10   50.21    4.56
  -2  10   9   13.06    2.84
   2 -10  -9   13.35    3.12
  -2  10   8   40.28    4.87
   2 -10  -8   34.47    3.51
  -2  10   7    2.54    2.49
   2 -10  -7    5.12    2.02
   2 -10  -7    8.79    2.66
  -2  10   6   67.06    8.35
   2 -10  -6   64.88    6.65
   2 -10  -6   52.75    3.07
  -2  10   5   98.11   11.09
   2 -10  -5   90.12    9.25
   2 -10  -5   94.59    3.54
  -2  10   4  140.89   14.90
   2 -10  -4  130.35    4.86
   2 -10  -4  128.43    3.95
  -2  10   3    1.26    1.75
   2 -10  -3    5.27    3.12
   2 -10  -3    8.70    2.63
  -2  10   2    6.59    1.88
   2 -10  -2   12.64    4.18
   2 -10  -2    6.85    3.75
  -2  10   1    6.32    2.37
   2 -10  -1    7.55    2.83
   2 -10  -1   17.11    3.30
  -2  10   0   62.98    8.15
   2 -10   0   57.80    4.01
   2 -10   0   64.36    3.77
  -2  10  -1    2.32    1.35
   2 -10   1    2.06    2.18
  -2  10  -2   43.17    9.23
   2 -10   2   52.40    4.45
   2 -10   2   56.93    4.82
  -2  10  -3   14.34    4.39
   2 -10   3   17.70    3.83
   2 -10   3   12.88    2.90
  -2  10  -4   78.38   16.27
   2 -10   4  113.09   11.85
   2 -10   4  103.90   11.49
  -2   9  12   38.46    6.21
   2  -9 -12   35.08    7.04
  -2   9  11    3.82    2.29
   2  -9 -11    6.86    2.82
  -2   9  10    8.64    3.21
   2  -9 -10    6.38    2.17
  -2   9   9   18.49    2.88
   2  -9  -9   19.74    3.53
  -2   9   8   81.51    4.25
   2  -9  -8   72.07    2.06
  -2   9   7   79.53    5.26
   2  -9  -7   75.80    8.63
   2  -9  -7   70.73    3.97
  -2   9   6  276.76   11.09
   2  -9  -6  279.29   12.09
   2  -9  -6  283.78   10.09
  -2   9   5   45.59    8.94
   2  -9  -5   33.53    7.53
   2  -9  -5   31.95    4.07
  -2   9   4  147.02    9.28
   2  -9  -4  132.11    6.17
   2  -9  -4  134.55    5.88
  -2   9   3  272.54   20.67
   2  -9  -3  246.26    9.98
   2  -9  -3  233.94    9.00
   2  -9  -2   26.89    4.11
   2  -9  -2   24.00    3.66
  -2   9   1   13.09    3.65
   2  -9  -1   15.05    4.46
   2  -9  -1   10.77    3.51
  -2   9   0   15.07    2.93
   2  -9   0   13.82    3.20
  -2   9  -1   24.32    3.86
   2  -9   1   15.19    3.77
  -2   9  -2   10.95    2.37
   2  -9   2   11.00    3.58
  -2   9  -3    2.72    1.94
   2  -9   3   -0.80    2.00
  -2   9  -4   12.86    4.33
   2  -9   4   13.47    3.07
   2  -9   4   12.97    3.84
   2  -9   5   62.49    4.79
   2  -9   5   44.38    4.36
  -2   8  13    9.37    2.84
   2  -8 -13   12.97    3.34
  -2   8  12   11.92    2.94
   2  -8 -12   13.13    3.72
  -2   8  11   53.16    4.65
   2  -8 -11   51.57    6.27
  -2   8  10    6.83    2.01
   2  -8 -10    5.82    2.11
  -2   8   9   25.14    2.74
   2  -8  -9   34.34    4.23
  -2   8   8    3.03    2.35
   2  -8  -8    5.41    2.28
   2  -8  -8    0.88    0.63
  -2   8   7  160.70    7.18
   2  -8  -7  183.88   12.49
   2  -8  -7  136.04    4.73
   2  -8  -7  148.60    5.51
  -2   8   6  205.44    9.22
   2  -8  -6  237.37   19.67
   2  -8  -6  173.39    7.05
   2  -8  -6  221.70    9.08
  -2   8   5   14.09    4.04
   2  -8  -5    5.77    1.97
   2  -8  -5    6.96    2.28
  -2   8   4  192.91    7.66
   2  -8  -4  201.75   17.49
   2  -8  -4  195.73    8.37
  -2   8   3   17.53    3.02
   2  -8  -3   13.27    2.75
   2  -8  -3   15.19    2.62
  -2   8   2  578.35   24.36
   2  -8  -2  569.76   22.83
   2  -8  -2  586.42   23.31
  -2   8   1   74.61    7.93
   2  -8  -1   70.48    5.06
   2  -8  -1   69.22    4.80
  -2   8   0  694.17  115.42
   2  -8   0  674.43   22.38
  -2   8  -1  254.54   23.82
   2  -8   1  247.55   10.12
  -2   8  -2   32.06    4.96
   2  -8   2   34.01    3.59
  -2   8  -3    6.04    1.38
   2  -8   3    5.34    2.36
  -2   8  -4    6.20    2.63
   2  -8   4    2.74    2.88
  -2   8  -5   11.19    2.13
   2  -8   5   20.78    2.62
   2  -8   5   14.21    3.63
  -2   8  -6   23.12    5.12
   2  -8   6   22.40    3.76
  -2   7  13   86.05    4.10
   2  -7 -13   61.16    6.84
  -2   7  12    8.60    3.02
   2  -7 -12    6.18    2.72
  -2   7  11   73.48    4.26
   2  -7 -11   87.84    6.64
  -2   7  10   72.65    3.26
   2  -7 -10   80.73    9.02
  -2   7   9    7.28    2.63
   2  -7  -9    8.42    2.66
  -2   7   8    8.87    2.30
   2  -7  -8   14.77    3.44
   2  -7  -8    7.50    1.45
   2  -7  -8   13.53    1.53
  -2   7   7 1062.95   41.12
   2  -7  -7  974.43   36.73
   2  -7  -7 1026.27   38.78
  -2   7   6  229.44    8.45
   2  -7  -6  243.27   18.32
   2  -7  -6  223.92    7.20
   2  -7  -6  241.05    7.97
  -2   7   5   23.24    3.44
   2  -7  -5   29.81    4.89
   2  -7  -5   17.45    3.37
   2  -7  -5   22.78    3.11
  -2   7   4   70.67   11.74
   2  -7  -4   63.76   11.82
   2  -7  -4   57.73    6.77
  -2   7   3  139.78    7.25
   2  -7  -3  133.13    5.87
   2  -7  -3  129.28    5.82
  -2   7   2   50.27   10.02
   2  -7  -2   57.49    7.17
   2  -7  -2   44.34    5.87
  -2   7   1   10.38    2.61
   2  -7  -1    9.34    2.45
   2  -7  -1    9.11    3.54
  -2   7   0    1.99    1.13
   2  -7   0    8.92    3.56
  -2   7  -1  250.82    9.34
   2  -7   1  250.51    9.21
  -2   7  -2  655.60   22.21
   2  -7   2  641.20   21.03
  -2   7  -3   14.91    3.38
   2  -7   3    7.67    2.43
  -2   7  -4   41.12    4.84
   2  -7   4   58.20    3.91
  -2   7  -5   89.05    9.25
   2  -7   5   96.41    6.38
   2  -7   5   92.45    7.21
  -2   7  -6   35.21    6.62
   2  -7   6   43.87    3.21
   2  -7   6   43.36    3.99
   2  -7   7    9.36    1.74
   2  -7   7    6.95    2.95
   2  -7   8   41.67    5.07
   2  -7   8   35.70    5.52
  -2   6  13   72.87   10.12
   2  -6 -13   74.54   13.29
  -2   6  12   16.52    2.83
   2  -6 -12   15.29    2.96
  -2   6  11    9.54    1.85
   2  -6 -11    9.96    2.65
  -2   6  10   25.62    2.34
   2  -6 -10   38.22    3.96
  -2   6   9   45.91    5.61
   2  -6  -9   56.53    7.64
  -2   6   8    5.52    2.93
   2  -6  -8    9.77    2.73
  -2   6   7   49.54    5.39
   2  -6  -7   38.43    4.49
   2  -6  -7   43.82    4.05
  -2   6   6   42.12    5.34
   2  -6  -6   48.18    8.53
   2  -6  -6   34.58    5.71
   2  -6  -6   40.54    4.82
  -2   6   5  150.77    5.98
   2  -6  -5  156.07    6.18
   2  -6  -5  144.40    4.82
   2  -6  -5  154.99    5.50
  -2   6   4  199.17    6.62
   2  -6  -4  215.91    5.98
   2  -6  -4  215.77    6.30
  -2   6   3  145.44    5.30
   2  -6  -3  129.33    5.43
   2  -6  -3  124.83    4.04
   2  -6  -3  139.68    4.92
  -2   6   2  117.89   12.58
   2  -6  -2  111.92    4.30
   2  -6  -2  109.57    4.87
  -2   6   1   11.93    2.06
   2  -6  -1   11.11    1.63
   2  -6  -1    6.56    2.07
   2  -6   0    4.52    2.96
   2  -6   0    8.45    3.59
  -2   6  -1   42.66    9.02
   2  -6   1   30.00    2.86
  -2   6  -2  116.10   11.27
   2  -6   2  112.33    5.01
  -2   6  -3   10.28    2.37
   2  -6   3    9.43    2.45
  -2   6  -4  236.34    8.97
   2  -6   4  218.04    8.14
  -2   6  -5   74.56    8.92
   2  -6   5   67.84    4.79
   2  -6   5   78.59    5.81
  -2   6  -6   36.21    7.38
   2  -6   6   46.82    3.19
   2  -6   6   46.78    4.27
  -2   6  -7   32.38    5.79
   2  -6   7   31.30    3.48
   2  -6   7   31.43    4.56
  -2   6  -8   47.06   11.48
   2  -6   8   74.46   10.29
   2  -6   8   57.81    8.76
  -2   5  13    3.11    1.98
   2  -5 -13    5.37    1.87
  -2   5  12   59.89    2.96
   2  -5 -12   48.50    7.07
  -2   5  11    6.35    2.29
   2  -5 -11    5.07    2.04
  -2   5  10   13.69    1.94
   2  -5 -10   16.46    2.34
  -2   5   9    2.87    1.85
   2  -5  -9    1.36    1.42
  -2   5   8  138.57    5.68
   2  -5  -8  155.30   11.42
  -2   5   7  128.16    5.31
   2  -5  -7  118.75    5.26
   2  -5  -7  125.65    4.34
   2  -5  -7  119.80    4.49
  -2   5   6   47.76    4.01
   2  -5  -6   53.52    7.23
   2  -5  -6   47.02    3.30
   2  -5  -6   49.73    3.57
  -2   5   5  478.45   12.95
   2  -5  -5  476.49   12.97
   2  -5  -5  469.10   11.78
   2  -5  -5  477.47   12.15
  -2   5   4   15.37    1.94
   2  -5  -4   16.26    2.08
   2  -5  -4   16.69    2.18
   2  -5  -4   14.36    1.86
   2  -5  -3  691.93   14.17
   2  -5  -3  648.69   13.08
   2  -5  -3  682.36   13.44
  -2   5   2 1988.63   37.74
   2  -5  -2 2114.99   39.38
   2  -5  -2 2093.87   38.77
  -2   5   1    5.42    1.90
   2  -5  -1    1.50    1.85
   2  -5  -1    3.10    2.59
  -2   5   0  291.43    7.29
   2  -5   0  277.71    6.69
   2  -5   0  320.40    7.92
  -2   5  -1  204.07    6.58
   2  -5   1  206.74    6.48
   2  -5   1  214.19    7.07
  -2   5  -2  139.57   13.69
   2  -5   2  143.38    5.58
  -2   5  -3    2.80    1.29
   2  -5   3   11.62    2.91
  -2   5  -4   30.17    4.98
   2  -5   4   26.80    3.33
  -2   5  -5  329.35   11.64
   2  -5   5  308.81   10.62
   2  -5   5  321.79   12.12
  -2   5  -6   87.03   12.17
   2  -5   6   92.34    4.84
   2  -5   6   96.48    5.88
  -2   5  -7    1.40    1.39
   2  -5   7    3.96    1.75
   2  -5   7    6.84    3.19
  -2   5  -8   13.30    3.10
   2  -5   8   15.63    2.37
   2  -5   8   15.79    3.14
  -2   5  -9    9.18    2.78
   2  -5   9    8.02    2.06
   2  -5   9    8.16    2.88
   2  -4 -13   31.20    7.99
  -2   4  12   64.14    3.14
   2  -4 -12   52.71    6.22
  -2   4  11  117.95    6.23
   2  -4 -11  117.06   10.18
  -2   4  10   68.61    4.10
   2  -4 -10   68.83   11.71
  -2   4   9   74.39    6.88
   2  -4  -9   91.25   10.65
  -2   4   8    7.70    1.77
   2  -4  -8    6.45    1.65
   2  -4  -8    8.02    1.44
  -2   4   8    9.09    0.97
  -2   4   7  199.72    7.07
   2  -4  -7  203.22   16.21
   2  -4  -7  194.02    5.96
  -2   4   7  188.06    5.80
  -2   4   6   46.35    3.13
   2  -4  -6   40.61    2.48
   2  -4  -6   42.09    2.51
  -2   4   6   42.58    2.25
  -2   4   5   86.08    6.04
   2  -4  -5   76.03    5.23
   2  -4  -5   97.87    9.25
   2  -4  -5   89.03    5.86
  -2   4   5   78.98    5.15
  -2   4   4 1378.08   26.01
   2  -4  -4 1435.42   27.29
   2  -4  -4 1411.57   26.08
   2  -4  -3   67.39    3.49
   2  -4  -3   77.43    5.92
  -2   4   3   67.75    3.37
   2  -4  -3   70.04    3.42
  -2   4   2  633.83   13.37
   2  -4  -2  648.15   13.46
  -2   4   2  597.97   12.39
   2  -4  -2  611.69   12.64
  -2   4   1    4.77    1.25
   2  -4  -1    4.30    1.15
  -2   4   1    4.32    1.54
   2  -4  -1    5.00    0.90
   2  -4  -1    1.31    1.81
  -2   4   0  267.64    6.77
   2  -4   0  282.30    6.65
  -2   4   0  275.64    6.48
   2  -4   0  282.76    6.96
  -2   4  -1   52.66    6.27
   2  -4   1   47.00    3.64
  -2   4  -1   44.20    3.42
   2  -4   1   41.50    3.79
  -2   4  -2   28.24    3.32
   2  -4   2   23.48    2.07
  -2   4  -2   21.56    2.11
   2  -4   2   17.40    2.15
  -2   4  -3   15.56    2.48
   2  -4   3    7.65    1.42
  -2   4  -3   10.43    1.38
   2  -4   3   11.64    2.88
  -2   4  -4   94.79    7.74
   2  -4   4   80.76    3.66
  -2   4  -4   72.97    5.29
   2  -4   4   83.05    4.96
  -2   4  -5   24.85    3.43
   2  -4   5   31.47    3.87
   2  -4   5   17.62    2.81
  -2   4  -6  174.71   12.55
   2  -4   6  163.38    6.18
   2  -4   6  171.73    7.53
  -2   4  -7   52.52    8.30
   2  -4   7   51.06    3.32
   2  -4   7   49.90    4.01
  -2   4  -8  146.22   15.25
   2  -4   8  130.14    6.67
   2  -4   8  151.67    8.33
  -2   4  -9    7.12    2.30
   2  -4   9    1.83    1.32
   2  -4   9    4.15    2.40
  -2   4 -10  161.52    5.75
   2  -4  10  166.29    7.25
   2  -3 -13    7.01    2.67
   2  -3 -12    5.72    2.41
  -2   3  11   21.13    1.94
   2  -3 -11   15.95    3.42
  -2   3  10   39.68    2.76
   2  -3 -10   44.61    7.40
   2  -3 -10   34.51    2.33
  -2   3   9  182.15    6.74
   2  -3  -9  185.16   15.55
   2  -3  -9  178.58    6.06
  -2   3   9  167.69    5.52
  -2   3   8   44.62    4.61
   2  -3  -8   39.55    4.05
   2  -3  -8   42.85    6.34
   2  -3  -8   38.58    4.07
  -2   3   8   37.38    3.50
  -2   3   7    4.97    1.35
   2  -3  -7    8.75    2.01
   2  -3  -7    4.51    1.79
   2  -3  -7    3.17    0.65
  -2   3   7    5.40    1.38
  -2   3   6   82.21    4.24
   2  -3  -6   70.01    3.55
   2  -3  -6   74.56    3.87
  -2   3   6   71.97    3.48
  -2   3   5   13.18    2.07
   2  -3  -5    5.18    1.10
   2  -3  -5    6.15    1.77
   2  -3  -5    8.44    1.17
  -2   3   5    7.90    1.11
  -2   3   4  365.86    7.95
   2  -3  -4  322.17    8.48
   2  -3  -4  366.31    7.67
  -2   3   4  356.49    7.39
  -2   3   3  270.79    6.20
   2  -3  -3  255.77    5.94
   2  -3  -3  267.29    6.88
   2  -3  -3  258.94    5.84
  -2   3   3  252.97    5.56
  -2   3   2    3.10    1.29
   2  -3  -2    6.22    1.37
   2  -3  -2    4.64    1.40
   2  -3  -2    3.77    1.67
  -2   3   2    4.62    1.35
  -2   3   1   23.07    1.62
   2  -3  -1   18.22    1.93
   2  -3  -1   20.84    1.99
  -2   3   1   13.47    1.17
   2  -3  -1   15.76    1.80
  -2   3   0   37.61    5.17
   2  -3   0   30.16    3.60
  -2   3   0   23.03    1.51
   2  -3   0   24.20    1.88
   2  -3   1  453.48    9.62
   2  -3   1  506.58   10.45
  -2   3  -1  480.51    9.83
   2  -3   2   28.29    3.44
   2  -3   2   36.77    2.17
  -2   3  -2   34.40    2.07
   2  -3   2   34.05    2.35
  -2   3  -3 2099.88   39.16
   2  -3   3 2055.45   37.66
  -2   3  -3 1947.66   35.62
   2  -3   3 2139.22   39.99
  -2   3  -4  412.96   11.78
   2  -3   4  422.26   10.93
  -2   3  -4  388.74   10.00
   2  -3   4  431.98   11.95
  -2   3  -5   11.62    1.76
   2  -3   5    7.04    1.00
   2  -3   5   10.50    1.58
   2  -3   5   16.49    2.92
  -2   3  -6    1.92    1.04
   2  -3   6    2.48    0.99
   2  -3   6    4.07    1.61
   2  -3   6    2.94    2.72
  -2   3  -7   38.67    9.94
   2  -3   7   46.56    4.79
   2  -3   7   46.01    5.58
  -2   3  -8  125.10   12.90
   2  -3   8  144.08    6.80
   2  -3   8  148.45    7.88
  -2   3  -9    7.04    2.34
   2  -3   9   11.24    2.23
   2  -3   9    5.81    2.55
  -2   3 -10  131.15    7.30
   2  -3  10  116.06    7.35
   2  -3  11   21.80    4.30
   2  -3  11   16.90    4.25
   2  -2 -13    4.01    2.19
   2  -2 -12    3.21    1.48
  -2   2  11    2.33    2.00
   2  -2 -11    3.92    1.32
  -2   2  10   40.24    2.78
   2  -2 -10   32.15    5.13
   2  -2 -10   31.34    4.89
  -2   2   9    3.44    0.85
  -2   2   9   10.99    1.68
   2  -2  -9    7.17    1.87
   2  -2  -9    6.16    1.14
  -2   2   8  205.98    6.63
  -2   2   8  240.43    8.10
   2  -2  -8  243.85   18.82
   2  -2  -8  230.27    7.40
  -2   2   8  215.27    6.99
  -2   2   7  289.43    9.23
   2  -2  -7  266.43    8.38
   2  -2  -7  297.16   10.38
   2  -2  -7  282.73    8.91
  -2   2   6   11.14    1.17
   2  -2  -6   12.50    1.39
   2  -2  -6   12.09    1.57
   2  -2  -6   12.84    2.01
  -2   2   6   11.49    1.10
  -2   2   5   58.98    4.13
   2  -2  -5   53.58    3.66
   2  -2  -5   54.51    5.42
   2  -2  -5   57.55    5.68
  -2   2   5   58.85    3.99
  -2   2   4  479.69    9.79
   2  -2  -4  485.37    9.85
  -2   2   4  470.07    9.98
   2  -2  -4  494.51   10.02
  -2   2   4  478.91    9.72
  -2   2   3  536.28    6.92
   2  -2  -3  542.03    6.95
   2  -2  -3  543.78    7.58
   2  -2  -3  517.28    6.72
  -2   2   3  534.04    6.89
   2  -2  -2  313.67   12.01
   2  -2  -2  343.58    5.19
  -2   2   2  320.07   12.35
   2  -2  -2  321.12   12.41
  -2   2   2  317.74   12.19
  -2   2   1  206.17    6.39
   2  -2  -1  210.49    6.33
  -2   2   1  190.63    5.78
  -2   2   1  192.27    5.93
  -2   2   0    3.33    1.22
   2  -2   0    1.91    0.81
  -2   2   0    2.84    1.15
   2  -2   0    4.03    2.74
  -2   2   0    1.42    1.33
  -2   2  -1   13.17    2.63
   2  -2   1    6.52    0.97
   2  -2   1    8.99    1.03
  -2   2  -1    7.15    0.84
   2  -2   1    8.92    1.40
  -2   2  -1    6.24    0.84
  -2   2  -2  122.21   11.22
   2  -2   2   99.75    7.91
   2  -2   2  107.53    4.37
  -2   2  -2  107.26    4.40
   2  -2   2  110.70    5.04
  -2   2  -3  323.71    7.59
   2  -2   3  310.56    7.14
   2  -2   3  322.39    6.73
  -2   2  -3  317.77    6.58
   2  -2   3  296.06    6.66
   2  -2   3  327.00    7.78
  -2   2  -4  649.88   13.22
   2  -2   4  679.12   12.86
   2  -2   4  641.36   12.20
   2  -2   4  654.12   13.49
  -2   2  -5  261.40   16.71
   2  -2   5  232.93    6.21
   2  -2   5  232.14    6.30
   2  -2   5  247.07    7.71
  -2   2  -6  141.80   10.97
   2  -2   6  114.28    4.68
   2  -2   6  129.54    5.00
   2  -2   6  139.51    6.04
  -2   2  -7    4.38    2.04
   2  -2   7    0.40    0.50
   2  -2   7    1.75    1.42
   2  -2   7   -3.23    2.38
  -2   2  -8  271.33   18.97
   2  -2   8  304.23   11.41
  -2   2  -9   -1.02    1.46
   2  -2   9   -0.32    1.06
   2  -2   9    1.67    2.51
   2  -2  10    7.54    3.03
   2  -2  10    5.97    1.65
   2  -2  10    4.44    2.21
   2  -2  11   44.94    6.96
   2  -2  11   45.15    6.81
   2  -1 -13    4.43    1.56
   2  -1 -12   37.81    9.49
   2  -1 -11    5.04    1.43
   2  -1 -11    1.16    0.46
  -2   1  10    6.33    1.18
   2  -1 -10   13.97    2.27
   2  -1 -10    8.24    1.57
  -2   1   9    1.92    0.85
  -2   1   9    5.67    1.50
   2  -1  -9    5.97    2.10
   2  -1  -9    3.58    1.01
  -2   1   8   42.48    5.39
  -2   1   8   55.52    8.08
   2  -1  -8   59.20    7.35
   2  -1  -8   54.56    9.41
  -2   1   8   49.49    4.66
  -2   1   7  360.01   11.62
  -2   1   7  365.78   11.93
   2  -1  -7  388.78   13.72
   2  -1  -7  401.03   13.24
  -2   1   7  361.21   11.90
  -2   1   6   77.59    3.52
  -2   1   6   84.51    5.89
   2  -1  -6   99.07    7.44
   2  -1  -6   86.31    7.76
  -2   1   6   76.96    3.74
  -2   1   5    1.91    0.76
   2  -1  -5    4.06    0.76
   2  -1  -5    2.44    0.72
  -2   1   5    2.99    0.67
  -2   1   4  138.99    5.51
   2  -1  -4  144.26    9.01
  -2   1   4  133.93    9.57
   2  -1  -4  138.33    6.51
  -2   1   4  140.65    5.76
  -2   1   3  111.70    3.59
   2  -1  -3  118.13    3.58
   2  -1  -3  117.79    4.08
   2  -1  -3  119.44    4.24
  -2   1   3  110.18    3.89
  -2   1   2  214.25    6.29
   2  -1  -2  203.45    5.93
   2  -1  -2  199.25    6.13
   2  -1  -2  213.06    6.44
  -2   1   2  208.16    6.28
  -2   1   1 9999.00  370.82
  -2   1   0 6143.52  228.00
  -2   1   0 6054.50   64.69
   2  -1   0 6220.41  230.86
  -2   1   0 6008.13   64.60
  -2   1  -1 1101.01   13.12
   2  -1   1 1054.66   12.61
   2  -1   1 1082.64   12.07
  -2   1  -1 1055.38   11.71
   2  -1   1 1080.54   13.02
  -2   1  -2    2.55    1.12
   2  -1   2    1.90    0.61
   2  -1   2    1.94    0.51
  -2   1  -2    1.73    0.41
   2  -1   2   -0.55    1.82
   2  -1   3   77.07    3.65
   2  -1   3   68.47    2.78
  -2   1  -3   86.07    3.42
   2  -1   3   70.91    3.79
   2  -1   4   50.43    3.11
   2  -1   4   49.49    2.17
   2  -1   4   48.95    2.49
   2  -1   4   51.23    3.09
  -2   1  -5  515.09   10.93
   2  -1   5  478.86    9.67
   2  -1   5  501.49    9.58
   2  -1   5  470.84   10.06
  -2   1  -6    7.50    1.26
   2  -1   6    4.31    0.67
   2  -1   6    4.05    0.64
   2  -1   6    4.98    2.50
  -2   1  -7  225.14   11.55
   2  -1   7  209.71    7.08
   2  -1   7  232.32    7.97
   2  -1   7  224.84    8.43
  -2   1  -8  780.02   30.31
   2  -1   8  696.67   26.61
   2  -1   8  724.58   27.64
   2  -1   8  835.24   32.50
   2  -1   9   34.43    3.38
   2  -1   9   29.03    2.20
   2  -1   9   24.28    2.41
   2  -1  10  252.09   12.49
   2  -1  10  225.21   10.42
   2  -1  10  258.96   12.56
   2  -1  11   54.03    4.09
   2  -1  11   55.42    3.65
   2  -1  12   45.04    3.74
   2  -1  12   38.06    3.00
   2   0 -11   50.56    6.97
   2   0 -11   48.14    7.17
  -2   0  10    6.33    0.91
   2   0 -10    7.56    1.42
   2   0 -10    8.20    1.02
  -2   0   9    8.73    1.74
   2   0  -9    9.24    2.20
   2   0  -9    7.69    1.99
  -2   0   8  461.81   17.72
  -2   0   8  492.51   18.80
   2   0  -8  550.36   21.85
   2   0  -8  540.36   21.29
  -2   0   7  568.13   18.16
  -2   0   7  590.50   18.78
   2   0  -7  651.70   21.88
   2   0  -7  560.63   20.56
  -2   0   6    9.20    1.22
  -2   0   6   11.54    1.13
   2   0  -6   13.70    3.10
   2   0  -6   11.24    2.06
  -2   0   6    8.79    1.62
  -2   0   5   97.21    6.09
  -2   0   5   97.36    6.08
   2   0  -5  100.02    6.55
  -2   0   5   92.58    6.04
  -2   0   4   40.44    1.88
  -2   0   4   38.30    1.59
   2   0  -4   41.48    3.81
  -2   0   4   33.16    2.91
   2   0  -4   40.56    4.77
  -2   0   4   38.57    2.06
  -2   0   3    1.85    0.28
   2   0  -3    3.44    0.65
   2   0  -3    3.89    1.61
  -2   0   3    2.69    0.90
   2   0  -3   -0.13    1.22
  -2   0   3    4.25    1.57
  -2   0   2   42.51    2.23
   2   0  -2   37.46    1.29
   2   0  -2   42.32    4.31
  -2   0   2   44.98    3.60
   2   0  -2   46.67    6.65
  -2   0   1   58.65    3.33
   2   0  -1   56.48    3.43
   2   0  -1   60.93    4.17
  -2   0   1   55.18    3.74
   2   0  -1   49.04    2.67
  -2   0  -2  484.13    6.60
   2   0   2  502.64    5.48
  -2   0  -2  491.63    5.35
   2   0   2  474.98    6.69
  -2   0  -2  476.59    6.48
   2   0   3  364.09    5.42
  -2   0  -3  359.38    5.17
   2   0   4   11.91    1.86
   2   0   4   12.43    1.05
   2   0   4   10.35    0.57
   2   0   4   12.23    1.84
  -2   0  -4    8.45    0.98
  -2   0  -5   37.22    3.90
   2   0   5   28.72    2.83
   2   0   5   31.56    2.18
   2   0   5   26.14    2.47
  -2   0  -6   30.28    2.48
   2   0   6   22.09    1.51
   2   0   6   15.17    2.48
   2   0   6   23.82    2.61
  -2   0  -7    0.72    1.43
   2   0   7    1.57    0.56
   2   0   7    0.67    0.89
   2   0   7    7.02    2.41
   2   0   8  842.71   26.35
   2   0   8  783.30   23.67
   2   0   8  823.42   24.82
   2   0   8  755.33   23.21
   2   0   9   94.47    5.42
   2   0   9   61.78    8.48
   2   0   9   94.72    3.86
   2   0   9   94.15    5.05
   2   0  10    6.15    2.43
   2   0  10    4.84    1.48
   2   0  10    5.53    2.20
   2   0  11    8.61    3.25
   2   0  11    1.57    0.84
   2   0  11    3.60    2.13
   2   0  12   62.11    4.67
   2   0  12   69.66    4.86
   2   0  13   43.83    5.61
  -2  -1  12    1.46    2.15
  -2  -1  11   31.12    4.00
   2   1 -11   18.61    4.66
  -2  -1  10   86.10    4.78
   2   1 -10   63.49    5.05
  -2  -1   9   97.34    4.25
   2   1  -9  107.37    5.85
   2   1  -9   98.65    9.99
  -2  -1   8   43.78    6.29
  -2  -1   8   64.86    5.76
   2   1  -8   65.13   11.59
   2   1  -8   73.19   10.80
  -2  -1   7  133.65    6.43
   2   1  -7  152.06   13.37
   2   1  -7  150.34   13.34
  -2  -1   6  541.39   16.06
  -2  -1   6  523.94   15.53
   2   1  -6  557.27   17.51
   2   1  -6  561.67   17.95
  -2  -1   5   55.73    2.73
  -2  -1   5   54.58    2.41
   2   1  -5   67.60    8.10
   2   1  -5   64.23    7.99
  -2  -1   5   49.38    6.21
   2   1  -4  720.87   14.37
   2   1  -4  693.55   13.59
  -2  -1   4  677.14   13.36
   2   1  -3    7.54    2.45
  -2  -1   3    2.96    0.81
   2   1  -3    3.12    0.87
  -2  -1   3    4.53    1.52
   2   1  -2  115.77    9.97
  -2  -1   2   90.68    3.17
   2   1  -1   16.76    1.65
   2   1  -1   13.18    0.80
   2   1  -1   18.14    2.06
  -2  -1   1   14.87    2.51
   2   1  -1   16.33    1.95
  -2  -1   1   13.27    1.07
   2   1   0  755.55    8.70
   2   1   0  768.96    8.90
   2   1   0  778.75    9.25
  -2  -1   0  739.01    8.77
   2   1   0  768.90    9.73
  -2  -1  -1 1337.21   15.23
   2   1   1 1288.98   14.64
  -2  -1  -1 1298.98   14.39
  -2  -1  -1 1333.90   14.85
   2   1   1 1272.33   14.84
  -2  -1  -2 2501.15   27.67
  -2  -1  -2 2485.78   26.62
  -2  -1  -2 2479.01   26.60
   2   1   2 2432.95   27.07
  -2  -1  -3  843.47   10.59
  -2  -1  -3  850.78    9.23
   2   1   3  864.03    9.36
  -2  -1  -3  855.69   10.51
   2   1   4   92.82    9.02
  -2  -1  -4  111.30    4.28
   2   1   4  112.04    4.27
   2   1   4  111.65    4.93
  -2  -1  -4  109.73    4.65
   2   1   5    1.28    2.23
  -2  -1  -5    0.11    0.30
   2   1   5    0.56    0.37
  -2  -1  -5   -0.46    1.15
   2   1   6   56.77    4.20
  -2  -1  -6   48.93    3.02
   2   1   6   45.25    4.15
   2   1   6   51.68    3.15
   2   1   7  227.28    8.47
  -2  -1  -7  214.37    7.00
   2   1   7  206.26    6.61
   2   1   7  185.03    6.30
   2   1   7  218.15    7.54
   2   1   8  739.10   23.16
  -2  -1  -8  747.98   22.60
   2   1   8  699.22   21.24
   2   1   8  743.22   23.02
   2   1   9   30.74    4.25
   2   1   9   20.34    3.56
   2   1   9   37.49    3.97
   2   1  10    5.08    3.64
   2   1  10    0.08    0.94
   2   1  10   10.70    2.78
   2   1  11    7.40    3.46
   2   1  11    6.23    1.39
   2   1  11    1.00    1.80
   2   1  12    5.51    2.56
   2   1  13    4.94    2.37
  -2  -2  11   10.91    3.65
   2   2 -11    9.19    2.69
  -2  -2  10  107.98    4.73
   2   2 -10  123.24   10.28
  -2  -2   9   16.57    3.29
   2   2  -9   12.98    2.39
  -2  -2   8   39.86    4.45
  -2  -2   8   36.44    5.50
   2   2  -8   41.43    6.88
  -2  -2   7   87.05    3.54
  -2  -2   7   87.37    3.62
  -2  -2   7   92.18    6.06
   2   2  -7   96.78   11.13
  -2  -2   6   14.41    1.72
  -2  -2   6   16.18    1.92
  -2  -2   6   12.45    3.11
   2   2  -6   22.77    4.07
  -2  -2   5    1.48    0.53
  -2  -2   5    1.00    0.60
  -2  -2   5    0.76    2.19
   2   2  -5    3.36    1.15
  -2  -2   4  169.70    4.16
  -2  -2   4  178.07    4.37
  -2  -2   4  171.37    5.82
   2   2  -4  182.94    6.29
   2   2  -3 1961.93   36.53
   2   2  -2  259.57    5.28
  -2  -2   2  258.60    5.09
   2   2  -2  262.95    6.25
  -2  -2   2  252.28    6.87
   2   2  -1  305.28   11.52
  -2  -2   1  291.80    8.17
   2   2  -1  303.17   12.28
  -2  -2   1  300.40   11.71
   2   2   0    5.59    0.69
  -2  -2   0    6.54    0.82
  -2  -2   0    9.46    1.30
   2   2   0   10.58    1.70
   2   2   1  142.00    4.57
  -2  -2  -1  143.31    4.65
  -2  -2  -1  148.06    4.79
   2   2   1  155.52    4.85
   2   2   1  152.56    4.91
  -2  -2  -1  133.93    4.45
  -2  -2  -2   23.41    1.79
   2   2   3  402.94    6.34
  -2  -2  -3  395.67    5.00
   2   2   3  386.75    4.85
   2   2   3  395.94    5.81
  -2  -2  -3  378.05    5.48
   2   2   4  206.91    4.89
   2   2   4  204.43    5.60
  -2  -2  -4  239.68    5.44
   2   2   4  236.70    4.91
   2   2   4  224.66    5.19
  -2  -2  -4  235.27    5.42
   2   2   5  478.19   10.79
  -2  -2  -5  487.58    9.69
   2   2   5  485.32    9.64
   2   2   5  476.29   10.05
  -2  -2  -5  470.04    9.65
   2   2   6   79.66    6.35
  -2  -2  -6   73.70    4.76
   2   2   6   72.42    4.67
   2   2   6   81.30    5.57
  -2  -2  -6   70.31    4.66
   2   2   7  171.42    7.15
  -2  -2  -7  148.87    6.55
   2   2   7  145.91    4.76
   2   2   7  156.12    5.81
   2   2   8   18.11    3.46
  -2  -2  -8   23.93    3.97
   2   2   8   16.56    2.79
   2   2   8   15.26    3.28
   2   2   8   28.18    3.91
   2   2   9   79.25    5.29
  -2  -2  -9   84.78    3.99
   2   2   9   68.84    3.25
   2   2   9   63.83    6.90
   2   2   9   89.59    4.47
   2   2  10   98.89    5.36
  -2  -2 -10   87.61   12.89
   2   2  10   86.71    9.69
   2   2  11   40.19    3.48
  -2  -2 -11   36.88    6.16
   2   2  11   42.89    2.50
   2   2  12    1.59    2.09
   2   2  13   13.12    3.72
  -2  -3  11    7.56    3.41
   2   3 -11    3.39    1.32
  -2  -3  10   66.04    9.69
   2   3 -10   58.21   12.61
  -2  -3   9   60.82    5.32
   2   3  -9   50.84    8.02
  -2  -3   8   16.89    2.97
   2   3  -8   19.33    2.87
  -2  -3   7    6.89    3.95
   2   3  -7    3.50    1.54
  -2  -3   6   40.21    5.80
  -2  -3   6   42.67    6.17
  -2  -3   6   41.00    6.57
   2   3  -6   51.82    9.26
   2   3  -5    4.03    0.89
  -2  -3   5    4.93    0.83
  -2  -3   5    1.25    2.71
   2   3  -5    7.55    2.19
   2   3  -4   24.58    3.15
  -2  -3   4   20.10    1.55
  -2  -3   4   27.70    3.13
   2   3  -4   23.39    2.85
   2   3  -3  192.36    3.98
  -2  -3   3  182.66    3.76
  -2  -3   3  185.16    5.29
   2   3  -3  191.74    5.21
   2   3  -2  881.32   16.31
  -2  -3   2  845.20   15.59
  -2  -3   2  784.16   15.70
   2   3  -1   12.19    1.15
  -2  -3   1   11.54    0.91
  -2  -3   1   12.54    1.39
  -2  -3   1   11.99    1.74
  -2  -3   1   13.80    1.87
   2   3   0  971.23   11.50
  -2  -3   0  967.85   12.11
   2   3   0  947.62   11.66
   2   3   0 1006.89   12.68
  -2  -3   0  945.63   12.28
   2   3   1    9.87    1.36
  -2  -3  -1   15.41    1.51
  -2  -3  -1   13.03    1.66
   2   3   1   17.06    3.05
  -2  -3  -1   10.67    1.40
   2   3   2   29.90    2.45
  -2  -3  -2   27.47    1.51
  -2  -3  -2   29.23    2.11
   2   3   2   30.28    1.62
   2   3   2   37.95    4.39
   2   3   3   23.01    1.94
  -2  -3  -3   17.37    1.71
  -2  -3  -3   20.28    1.75
   2   3   3   17.85    1.29
   2   3   3   22.29    3.20
  -2  -3  -3   18.59    1.80
  -2  -3  -4  693.80   14.11
  -2  -3  -4  784.65   15.49
   2   3   4  746.90   14.72
   2   3   4  758.88   15.21
  -2  -3  -4  739.58   14.75
   2   3   5  271.67    6.91
  -2  -3  -5  263.02    6.51
   2   3   5  260.22    5.43
   2   3   5  263.78    5.81
  -2  -3  -5  253.38    5.41
   2   3   6   11.87    2.59
  -2  -3  -6    6.17    0.89
   2   3   6    7.57    0.92
   2   3   6    7.28    1.59
  -2  -3  -6    7.32    0.99
   2   3   7    4.69    2.43
  -2  -3  -7    9.16    1.16
   2   3   7    4.40    0.77
   2   3   7    8.06    1.25
  -2  -3  -7    6.06    1.06
   2   3   8  279.69   10.71
  -2  -3  -8  297.46   10.09
   2   3   8  258.20    8.64
   2   3   8  250.07    8.29
   2   3   8  276.04    9.35
   2   3   9  137.31    7.49
  -2  -3  -9  140.49    5.89
   2   3   9  121.23    5.15
   2   3   9  113.23    5.66
   2   3   9  127.11    5.45
   2   3  10  286.56   11.18
  -2  -3 -10  282.11    9.69
   2   3  10  261.17    8.92
   2   3  11   85.43    4.84
  -2  -3 -11   68.99    8.77
   2   3  11   78.06    2.31
   2   3  12   76.98    6.22
  -2  -3 -12   67.27    6.73
   2   3  13    0.38    2.52
  -2  -4  10    5.35    2.75
   2   4 -10   11.73    3.01
  -2  -4   9   34.29    3.81
   2   4  -9   21.42    4.93
  -2  -4   8   28.76    3.91
   2   4  -8   23.84    4.29
  -2  -4   7   53.22    1.51
  -2  -4   7   58.83    4.65
   2   4  -7   60.27   10.58
   2   4  -6    5.33    1.28
  -2  -4   6    4.82    1.03
  -2  -4   6    6.44    2.86
   2   4  -6    6.40    2.02
   2   4  -5  427.29   16.39
  -2  -4   5  415.20   15.89
  -2  -4   5  432.12   18.05
   2   4  -5  460.44   18.47
   2   4  -4    2.47    0.63
  -2  -4   4    2.16    0.77
  -2  -4   4   -1.22    2.59
   2   4  -4    2.49    1.49
   2   4  -3   67.96    4.85
  -2  -4   3   63.83    4.55
  -2  -4   3   69.53    6.30
   2   4  -3   68.86   10.00
   2   4  -2   28.17    3.48
  -2  -4   2   28.96    1.89
  -2  -4   2   33.02    2.98
   2   4  -2   37.22    6.14
   2   4  -1  130.03    5.92
  -2  -4   1  122.80    7.81
  -2  -4   1  118.45    8.14
   2   4  -1  125.39    6.30
   2   4   0  488.40   10.22
  -2  -4   0  448.23    9.37
   2   4   0  437.79   10.96
   2   4   1  118.87    5.25
  -2  -4  -1  112.45    4.73
   2   4   1  132.86    5.83
  -2  -4  -1  115.87    9.58
   2   4   2  428.26    9.36
  -2  -4  -2  406.40    8.76
  -2  -4  -2  435.16    9.46
   2   4   2  429.36    9.12
  -2  -4  -2  408.39    9.27
  -2  -4  -3 1366.63   26.73
   2   4   3 1361.60   26.53
   2   4   3 1384.77   27.03
  -2  -4  -3 1288.89   25.13
  -2  -4  -4  105.96    5.04
   2   4   4  106.76    4.86
  -2  -4  -4  100.37    4.38
   2   4   5 1051.59   20.64
  -2  -4  -5 1018.81   19.24
   2   4   5  999.59   18.80
   2   4   5 1039.81   19.57
  -2  -4  -5  999.37   18.77
   2   4   6  173.51    6.38
  -2  -4  -6  157.16    6.46
   2   4   6  152.75    4.56
   2   4   6  157.87    4.48
  -2  -4  -6  159.23    4.55
   2   4   7  117.79    5.43
  -2  -4  -7  149.27   10.53
   2   4   7  124.34    4.38
   2   4   7  137.86    4.66
  -2  -4  -7  136.80    4.66
   2   4   8  187.18    7.66
  -2  -4  -8  182.15    6.43
   2   4   8  163.18    5.80
   2   4   8  175.67    6.05
   2   4   9   32.11    5.68
  -2  -4  -9   46.53    7.79
   2   4   9   33.07    4.93
   2   4   9   35.96    5.84
   2   4   9   39.36    5.74
   2   4  10   22.83    3.60
  -2  -4 -10   25.84    3.93
   2   4  10   21.99    2.66
   2   4  11   42.67    4.09
  -2  -4 -11   37.63    4.73
   2   4  12   91.54    4.09
  -2  -4 -12   81.30    6.44
   2   4  13   14.53    4.02
   2   4  14   98.19   10.77
  -2  -5   9    8.36    2.95
   2   5  -9    3.14    1.74
  -2  -5   8   11.89    2.74
   2   5  -8    6.01    2.34
  -2  -5   7    1.92    2.73
   2   5  -7    3.80    2.20
   2   5  -6   14.89    2.69
  -2  -5   6   23.84    2.97
   2   5  -6   25.82    3.76
   2   5  -5  203.38    7.19
  -2  -5   5  198.18    6.64
  -2  -5   5  220.83    9.16
   2   5  -5  219.80    9.70
   2   5  -4  313.40   12.50
  -2  -5   4  295.10   11.55
  -2  -5   4  306.49   13.02
   2   5  -4  310.29   13.11
   2   5  -3    9.98    1.79
  -2  -5   3   12.60    1.89
  -2  -5   3   12.63    3.17
   2   5  -3    9.05    1.87
   2   5  -2   54.30    7.45
  -2  -5   2   50.44    3.73
  -2  -5   2   44.60    4.50
   2   5  -2   52.60    6.43
   2   5  -1   77.67    3.96
  -2  -5   1   73.31    3.67
  -2  -5   1   78.08    5.40
   2   5  -1   89.03   10.34
   2   5   0  154.14    4.77
  -2  -5   0  138.53    4.27
  -2  -5   0  153.00    5.31
   2   5   0  161.30    5.44
   2   5   1   20.52    2.24
  -2  -5  -1   15.89    1.78
  -2  -5  -1   19.51    2.61
   2   5   1   25.68    4.02
   2   5   2    6.96    2.03
  -2  -5  -2    5.50    1.55
  -2  -5  -2    8.26    2.42
   2   5   2    3.27    1.34
  -2  -5  -2    1.43    1.65
   2   5   3 1141.42   22.14
  -2  -5  -3 1209.72   23.42
   2   5   3 1063.98   20.24
   2   5   3 1193.52   22.68
  -2  -5  -3 1097.86   20.95
   2   5   4  620.75   12.86
  -2  -5  -4  630.32   12.77
   2   5   4  585.67   11.69
   2   5   4  657.87   12.90
  -2  -5  -4  602.11   11.91
   2   5   5   10.02    2.57
  -2  -5  -5    1.97    1.77
   2   5   5    3.65    1.31
   2   5   5    2.32    1.95
  -2  -5  -5    2.04    1.08
   2   5   6  273.97    8.63
  -2  -5  -6  318.04    9.12
   2   5   6  285.03    7.82
   2   5   6  328.56    8.78
  -2  -5  -6  296.76    7.84
   2   5   7  261.35    9.40
  -2  -5  -7  239.78    8.04
   2   5   7  207.71    6.93
   2   5   7  226.61    7.22
  -2  -5  -7  224.10    7.14
   2   5   8   21.38    4.34
  -2  -5  -8   24.16    3.27
   2   5   8   17.23    2.69
  -2  -5  -8   20.03    2.13
   2   5   9  198.50    9.85
  -2  -5  -9  207.01    9.07
   2   5   9  188.03    7.34
   2   5  10   13.69    4.70
  -2  -5 -10    4.65    1.36
   2   5  10    5.44    1.44
   2   5  11    2.74    2.86
  -2  -5 -11    3.88    1.57
   2   5  12   11.02    3.07
  -2  -5 -12   11.22    2.55
   2   5  13   19.27    4.46
   2   5  14    7.39    3.65
  -2  -6   8   21.07    4.97
   2   6  -8   24.24    6.22
  -2  -6   7    6.25    3.59
   2   6  -7    9.97    2.82
  -2  -6   6    7.68    2.25
   2   6  -6   14.26    2.25
   2   6  -5   87.87    2.23
  -2  -6   5   93.63    5.19
   2   6  -5   97.52   11.97
   2   6  -4   15.11    3.09
  -2  -6   4   10.88    2.17
  -2  -6   4   18.72    3.86
   2   6  -4   17.16    2.91
   2   6  -3  106.18    4.77
  -2  -6   3  105.81    4.72
  -2  -6   3  112.92    6.39
   2   6  -2   49.64    6.93
  -2  -6   2   41.85    4.04
  -2  -6   2   65.30    5.32
   2   6  -2   57.73    6.14
   2   6  -1   33.59    5.24
  -2  -6   1   33.39    4.25
  -2  -6   1   21.24    3.25
   2   6  -1   35.40    5.88
   2   6   0  105.62    4.44
  -2  -6   0   94.58    3.99
  -2  -6   0  113.45    5.58
   2   6   0  113.83    9.21
   2   6   1    5.13    1.97
   2   6   1    2.72    1.39
   2   6   2    0.71    2.12
  -2  -6  -2    7.53    3.07
   2   6   2    1.99    0.84
   2   6   3   41.61    2.95
  -2  -6  -3   45.67    3.30
   2   6   3   52.57    7.82
   2   6   4   88.54    4.33
  -2  -6  -4  103.14    4.45
   2   6   4  101.13    3.71
  -2  -6  -4   78.63    6.99
   2   6   5   53.17    4.96
  -2  -6  -5   64.31    5.34
   2   6   5   58.50    7.38
  -2  -6  -5   52.29    3.89
   2   6   6  223.10    8.33
  -2  -6  -6  225.26    7.84
   2   6   6  219.14    7.11
  -2  -6  -6  203.08    6.70
   2   6   7  276.01   10.82
  -2  -6  -7  277.48   10.60
   2   6   7  265.85    9.41
  -2  -6  -7  258.06    8.65
   2   6   8   54.61    8.95
  -2  -6  -8   62.65    5.32
   2   6   8   54.62    7.90
  -2  -6  -8   53.22    4.91
   2   6   9   85.42    9.00
  -2  -6  -9   88.39    9.60
   2   6   9   71.92    6.62
  -2  -6  -9   74.33    6.55
   2   6  10   13.98    2.80
  -2  -6 -10    7.80    1.66
   2   6  11   66.57    5.56
  -2  -6 -11   62.72    8.02
   2   6  12    2.23    2.44
  -2  -6 -12    1.67    1.00
   2   6  13   20.53    4.75
  -2  -6 -13   15.10    4.05
   2   6  14  132.94   13.90
  -2  -7   7   10.09    3.03
   2   7  -7   19.36    4.45
  -2  -7   6    7.99    3.26
   2   7  -6    2.19    1.46
   2   7  -5   78.70    2.38
  -2  -7   5   87.51    5.61
   2   7  -5   84.81    8.83
   2   7  -4   36.46    5.08
  -2  -7   4   52.31    5.18
   2   7  -4   32.44    4.98
   2   7  -3    2.33    0.64
  -2  -7   3   10.93    3.97
   2   7  -3    1.85    1.54
   2   7  -2   13.79    2.14
  -2  -7   2    6.82    3.94
   2   7  -2   10.51    1.86
   2   7  -1  561.18   21.92
  -2  -7   1  587.27   23.71
   2   7  -1  480.86   19.37
   2   7   0 1267.20   38.41
  -2  -7   0 1279.67  181.22
   2   7   0 1268.01   40.17
   2   7   1   34.27    4.60
   2   7   1   39.85    6.76
   2   7   2  181.49    7.28
  -2  -7  -2  175.53    7.42
   2   7   2  166.54    7.23
   2   7   3   93.96    4.61
  -2  -7  -3   93.36    5.17
   2   7   3   94.05    4.72
   2   7   4  392.13   13.82
  -2  -7  -4  398.59   14.02
   2   7   4  384.91   14.27
   2   7   5   82.49    5.52
  -2  -7  -5   70.96    8.59
   2   7   5   62.77    8.72
  -2  -7  -6   33.79    4.87
   2   7   6   40.32    7.67
  -2  -7  -6   38.16    4.57
   2   7   7  324.36   11.99
  -2  -7  -7  297.97   14.78
   2   7   7  283.24    8.98
  -2  -7  -7  266.55    8.64
   2   7   8  762.07   30.34
  -2  -7  -8  701.21   27.54
   2   7   8  705.63   27.09
  -2  -7  -8  654.35   24.92
   2   7   9    7.01    3.26
  -2  -7  -9    6.41    2.17
   2   7   9    5.55    1.24
   2   7  10    6.19    3.00
  -2  -7 -10    5.17    1.55
   2   7  11   46.72    4.65
  -2  -7 -11   57.19    7.12
   2   7  12  123.25    8.67
  -2  -7 -12   99.75   13.83
   2   7  13    9.72    2.55
  -2  -7 -13    2.98    1.45
   2   7  14  110.01   11.98
  -2  -8   6    5.84    3.10
   2   8  -6    3.46    1.81
   2   8  -5   96.59   14.53
   2   8  -4    9.45    2.58
  -2  -8   4    6.25    3.30
   2   8  -4   16.75    2.57
   2   8  -3    3.27    1.08
  -2  -8   3    6.93    3.34
   2   8  -3    6.42    2.04
   2   8  -2   10.82    2.03
  -2  -8   2   13.05    3.80
   2   8  -2   16.99    3.00
   2   8  -1   51.29    8.59
  -2  -8   1   46.44    6.87
   2   8  -1   57.73    9.02
   2   8   0  116.37   12.72
  -2  -8   0  102.84   10.23
   2   8   0  116.72    9.09
   2   8   1  106.22    5.38
  -2  -8  -1  115.04    6.37
   2   8   1  144.60   10.90
   2   8   2   42.11    6.69
  -2  -8  -2   36.12    6.41
   2   8   2   53.34    9.77
   2   8   3  464.12   15.44
  -2  -8  -3  490.89   16.87
   2   8   3  483.06   17.29
   2   8   4   47.68    5.31
  -2  -8  -4   62.16    5.34
   2   8   4   60.21    7.16
   2   8   5   91.38    6.22
  -2  -8  -5   97.95    5.23
   2   8   5  107.06    7.89
   2   8   6    7.28    3.03
  -2  -8  -6    7.74    3.80
   2   8   6    6.61    1.23
   2   8   7  314.61   11.69
  -2  -8  -7  309.32   10.93
   2   8   7  275.75    9.27
   2   8   8    7.62    4.70
  -2  -8  -8   -0.21    1.99
   2   8   8    1.55    0.84
  -2  -8  -8    2.18    1.16
   2   8   9   56.66    5.29
  -2  -8  -9   61.87    7.33
   2   8   9   49.53    2.60
   2   8  10   14.87    4.42
  -2  -8 -10   13.86    1.61
   2   8  11    5.82    3.22
  -2  -8 -11    3.49    1.23
   2   8  12   11.02    2.94
  -2  -8 -12   14.80    2.89
   2   8  13    5.55    2.89
  -2  -8 -13    6.02    2.52
  -2  -9   5   11.82    4.83
   2   9  -5    6.67    1.97
  -2  -9   4   67.48    9.75
   2   9  -3   22.26    4.53
  -2  -9   3   33.17    3.48
   2   9  -3   20.93    4.02
   2   9  -2   12.41    2.68
  -2  -9   2   13.67    3.77
   2   9  -2   25.90    3.85
   2   9  -1   11.72    2.25
  -2  -9   1    7.07    3.56
   2   9  -1    8.92    3.01
   2   9   0    3.94    1.85
  -2  -9   0   11.87    4.17
   2   9   0    2.13    1.23
   2   9   1   10.19    2.81
  -2  -9  -1    6.85    3.59
   2   9   1    5.03    2.17
   2   9   2   10.77    2.82
   2   9   2   13.15    3.66
   2   9   3   18.44    2.87
  -2  -9  -3   18.00    3.80
   2   9   3   18.77    4.10
   2   9   4  324.63   11.91
  -2  -9  -4  295.50   11.18
   2   9   4  307.61   10.98
   2   9   5  274.49   10.68
  -2  -9  -5  256.91   10.14
   2   9   5  256.68   13.66
   2   9   6    3.70    2.75
  -2  -9  -6    0.71    2.24
   2   9   6    1.52    0.90
   2   9   7  134.17    6.55
  -2  -9  -7  153.79    6.77
   2   9   7  133.76    5.59
   2   9   8   36.43    4.97
  -2  -9  -8   27.12    2.68
   2   9   8   26.33    4.19
   2   9   9    8.10    3.27
  -2  -9  -9    3.00    1.42
   2   9   9    5.50    1.15
   2   9  10   37.72    5.54
  -2  -9 -10   29.30    4.87
   2   9  11   10.48    3.03
  -2  -9 -11   10.40    2.06
   2   9  12    7.33    3.27
  -2  -9 -12    1.90    0.90
   2   9  13   36.89    4.73
  -2  -9 -13   30.38    5.43
  -2 -10   3   44.90    3.89
   2  10  -3   42.15    6.49
   2  10  -2   15.17    4.12
  -2 -10   2   26.39    4.18
   2  10  -2   20.07    5.80
   2  10  -1   17.02    4.12
  -2 -10   1   14.92    3.43
   2  10  -1   18.74    3.45
   2  10   0   78.51   10.68
  -2 -10   0   86.91    5.97
   2  10   0   77.05   11.69
   2  10   1   72.72   10.50
  -2 -10  -1   74.23    6.66
   2  10   1   74.15   12.17
   2  10   2    9.23    2.06
   2  10   2    9.60    2.01
   2  10   3    6.64    2.07
  -2 -10  -3   11.34    3.15
   2  10   3    5.13    3.07
   2  10   4   12.50    2.02
  -2 -10  -4   15.07    3.34
   2  10   4   10.60    2.42
   2  10   5   38.42    3.36
  -2 -10  -5   34.38    3.63
   2  10   5   39.76    5.46
   2  10   6   11.88    4.43
  -2 -10  -6    0.24    2.59
   2  10   6    2.89    1.08
   2  10   7   12.57    3.75
  -2 -10  -7    7.74    2.46
   2  10   7   12.17    2.86
  -2 -10  -8   39.57    5.83
   2  10   8   28.99    5.18
   2  10   9   53.04    3.60
  -2 -10  -9   57.74    7.82
   2  10  10   32.80    3.67
  -2 -10 -10   26.24    3.48
   2  10  11   60.27    5.44
  -2 -10 -11   48.02    7.58
   2  10  12   28.55    4.40
  -2 -10 -12   24.10    6.26
   2  11  -2    2.41    1.53
  -2 -11   2    0.48    3.03
   2  11  -2   -0.71    2.05
   2  11  -1   26.64    5.10
  -2 -11   1   25.27    5.77
   2  11  -1   26.56    5.88
   2  11   0    9.07    3.00
  -2 -11   0   18.71    5.50
   2  11   0    7.31    3.44
   2  11   1    5.53    2.20
  -2 -11  -1    2.46    2.68
   2  11   1   10.89    2.26
   2  11   2   16.80    2.99
  -2 -11  -2   22.03    4.08
   2  11   2   20.06    3.60
   2  11   3    6.64    2.69
  -2 -11  -3    4.97    3.27
   2  11   3    9.00    2.07
   2  11   4  110.61    4.54
  -2 -11  -4  115.98    5.37
   2  11   4  100.91   14.75
   2  11   5    2.42    2.02
  -2 -11  -5   15.50    3.51
   2  11   5    3.57    1.33
   2  11   6   22.29    3.37
  -2 -11  -6   36.32    4.48
   2  11   6   18.58    4.97
   2  11   7  125.24    9.09
  -2 -11  -7  110.44    8.22
   2  11   7  106.46    8.33
   2  11   8    5.00    2.98
  -2 -11  -8    9.57    3.45
   2  11   8    0.40    1.00
   2  11   9  155.59    6.82
  -2 -11  -9  138.64   17.63
   2  11  10    3.96    3.15
  -2 -11 -10   11.90    3.09
   2  11  11   16.96    5.67
  -2 -11 -11    5.60    2.26
   2  12   1   -0.12    1.53
  -2 -12  -1    4.16    3.13
   2  12   1    2.46    0.98
   2  12   2   11.29    3.17
  -2 -12  -2    6.66    3.02
   2  12   2   10.33    3.07
   2  12   3   37.51    8.93
   2  12   3   46.53    9.81
   2  12   4    2.65    2.05
  -2 -12  -4    9.95    3.66
   2  12   4    3.53    1.54
   2  12   5    9.84    3.25
  -2 -12  -5   10.65    4.16
   2  12   5    1.56    2.19
   2  12   6   17.81    4.36
  -2 -12  -6   16.83    4.83
   2  12   7   29.61    3.92
  -2 -12  -7   19.32    4.30
   2  12   7   19.37    4.60
   2  12   8   11.67    3.08
  -2 -12  -8   14.76    2.96
   2  12   8    9.82    2.21
   2  12   9    2.76    3.53
  -2 -12  -9    6.08    3.04
   2  12  10    7.03    3.24
  -2 -12 -10   11.45    2.93
   2  13   4    9.80    2.95
  -2 -13  -4   10.86    4.13
   2  13   4   11.60    3.00
   2  13   5    4.63    1.99
  -2 -13  -5    1.85    3.03
   2  13   5    2.83    1.29
   2  13   6   19.23    3.74
  -2 -13  -6    6.96    4.45
   2  13   6   10.75    4.26
   2  13   7    3.36    2.96
  -2 -13  -7    5.56    2.76
   2  13   7    3.11    0.95
  -3  12   8   19.15    4.73
   3 -12  -8   21.05    5.23
  -3  12   7    6.67    3.03
   3 -12  -7    8.40    3.83
  -3  12   6    5.08    1.95
   3 -12  -6    3.07    1.46
   3 -12  -6   10.87    3.11
  -3  12   5    8.30    3.59
   3 -12  -5    8.60    2.57
   3 -12  -5    9.35    3.50
  -3  12   4    8.32    3.23
   3 -12  -4    5.68    2.95
   3 -12  -4    6.90    2.76
   3 -12  -3    9.14    3.14
   3 -12  -3   12.17    3.41
  -3  12   2   19.52    6.05
   3 -12  -2   17.36    4.13
   3 -12  -2   17.56    4.16
  -3  12   1   15.63    3.60
   3 -12  -1   12.42    3.50
   3 -12  -1   13.26    3.22
  -3  11  10    8.05    2.87
  -3  11   9   15.66    2.85
   3 -11  -9   28.65    5.56
  -3  11   8   19.45    4.61
   3 -11  -8   20.56    5.23
  -3  11   7   28.86    5.28
   3 -11  -7   26.92    5.31
   3 -11  -7   24.43    2.40
  -3  11   6   84.77   10.99
   3 -11  -6   89.32    9.38
   3 -11  -6   89.89    3.66
  -3  11   5    9.09    2.74
   3 -11  -5    6.66    2.77
   3 -11  -5    9.51    3.06
  -3  11   4   41.29    5.63
   3 -11  -4   48.97    5.85
   3 -11  -4   57.98    3.76
  -3  11   3    4.56    2.96
   3 -11  -3    9.62    2.94
   3 -11  -3    8.50    3.10
  -3  11   2    8.72    2.92
   3 -11  -2   14.04    4.48
   3 -11  -2    3.03    3.69
  -3  11   1   12.39    3.44
   3 -11  -1   27.11    3.09
   3 -11  -1   20.09    4.70
  -3  11   0    5.19    2.21
   3 -11   0    6.44    3.33
   3 -11   0    7.26    4.17
  -3  11  -1    6.42    2.51
   3 -11   1    3.19    2.14
   3 -11   1    4.15    3.19
  -3  10  11   41.96    3.76
   3 -10 -11   19.96    5.22
  -3  10  10    3.89    2.40
   3 -10 -10    3.05    1.72
  -3  10   9   30.40    3.21
   3 -10  -9   29.45    4.87
  -3  10   8  106.39   13.15
   3 -10  -8  118.31   18.97
  -3  10   7   13.59    3.54
   3 -10  -7   10.46    2.15
  -3  10   6  136.72    9.51
   3 -10  -6  145.00   12.58
   3 -10  -6  129.54    3.79
  -3  10   5    7.70    2.59
   3 -10  -5   -0.43    2.69
   3 -10  -5    2.85    2.25
  -3  10   4   63.74    6.91
   3 -10  -4   64.70    7.03
   3 -10  -4   67.01    4.79
  -3  10   3  103.91   15.19
   3 -10  -3  118.18   12.29
   3 -10  -3  100.16    6.43
  -3  10   2   80.56   11.42
   3 -10  -2   61.94    3.49
   3 -10  -2   65.07    3.99
  -3  10   1   57.74    9.36
   3 -10  -1   83.51    4.92
   3 -10  -1   67.24    4.52
  -3  10   0    5.21    1.63
   3 -10   0    5.02    2.23
   3 -10   0    2.14    2.52
  -3  10  -1    3.42    1.98
   3 -10   1    8.01    3.07
   3 -10   1    1.38    2.64
  -3  10  -2    4.40    2.47
   3 -10   2    7.25    3.19
   3 -10   2    1.06    2.79
  -3  10  -3   14.46    4.70
   3 -10   3    9.74    3.57
  -3   9  12   20.27    3.26
   3  -9 -12   15.39    3.78
  -3   9  11   30.32    5.11
   3  -9 -11   27.35    5.13
  -3   9  10   51.27    3.67
   3  -9 -10   56.63    6.75
  -3   9   8  326.90   24.26
   3  -9  -8  345.26   28.03
   3  -9  -8  259.33   11.77
  -3   9   7   62.46    6.52
   3  -9  -7   58.46    7.01
   3  -9  -7   55.31    2.76
  -3   9   6   78.30   10.28
   3  -9  -6   90.17   10.88
   3  -9  -6   81.07    3.17
  -3   9   5   17.55    2.77
   3  -9  -5   25.14    3.96
   3  -9  -5   14.76    2.55
  -3   9   4    5.51    2.38
   3  -9  -4    4.54    2.05
   3  -9  -4    8.78    2.33
  -3   9   3  181.16   17.55
   3  -9  -3  192.13   13.79
   3  -9  -3  173.74    8.42
  -3   9   2   26.80    4.47
   3  -9  -2   23.17    2.86
   3  -9  -2   21.22    3.03
   3  -9  -1    3.92    1.99
   3  -9  -1    4.86    3.64
  -3   9   0   21.04    3.47
   3  -9   0   22.67    2.50
   3  -9   0   27.83    3.93
  -3   9  -1    4.90    1.80
   3  -9   1    7.37    3.10
   3  -9   1    9.91    3.12
  -3   9  -2    6.42    1.92
   3  -9   2    6.06    2.23
   3  -9   2    8.96    3.04
  -3   9  -3    4.75    2.02
   3  -9   3    6.60    3.38
   3  -9   3    5.50    3.12
  -3   9  -4   32.29    6.96
   3  -9   4   26.79    3.72
  -3   9  -5    7.73    2.50
   3  -9   5    7.10    2.83
   3  -9   5    7.92    4.30
  -3   8  12   21.11    4.12
  -3   8  11    5.59    2.79
   3  -8 -11    2.37    1.63
  -3   8  10   83.80    5.95
   3  -8 -10   88.76   12.88
  -3   8   9   12.04    2.07
  -3   8   8    5.17    2.26
   3  -8  -8    9.66    2.88
   3  -8  -8    4.67    1.18
  -3   8   7  115.91   13.07
   3  -8  -7  116.03   12.83
   3  -8  -7  104.23    5.17
  -3   8   6    1.49    1.44
   3  -8  -6    1.06    2.32
   3  -8  -6    3.39    1.99
  -3   8   5   64.91    8.99
   3  -8  -5   59.36    7.64
   3  -8  -5   54.70    5.41
  -3   8   4   90.80   13.17
   3  -8  -4   83.21   13.75
   3  -8  -4   80.74    7.69
  -3   8   3   63.60    9.56
   3  -8  -3   63.60    9.86
   3  -8  -3   67.94    7.02
  -3   8   2   15.67    3.72
   3  -8  -2   11.77    2.45
   3  -8  -2   12.12    2.85
  -3   8   1    3.34    2.17
   3  -8  -1    0.24    2.54
   3  -8  -1   -0.23    2.80
   3  -8   0   97.98    5.53
   3  -8   0   78.12    9.46
  -3   8  -1  122.07   12.21
   3  -8   1  103.82    5.96
   3  -8   1  113.54    6.67
  -3   8  -2  166.34   17.69
   3  -8   2  177.36    4.99
  -3   8  -3   11.57    2.33
   3  -8   3    9.46    2.11
   3  -8   3   16.08    3.36
  -3   8  -4   44.11    7.59
   3  -8   4   40.20    8.02
   3  -8   4   37.94    4.87
  -3   8  -5    3.29    1.18
   3  -8   5    2.85    1.76
   3  -8   5    5.22    3.00
  -3   8  -6    3.53    1.42
   3  -8   6    5.25    2.41
   3  -8   6    6.24    3.30
   3  -7 -13   17.43    3.79
  -3   7  12    1.59    1.71
   3  -7 -12   10.47    2.80
  -3   7  11   61.32    3.34
   3  -7 -11   73.91    7.27
  -3   7  10   46.23    6.22
   3  -7 -10   55.46    4.27
  -3   7   9   10.71    2.95
   3  -7  -9   11.93    2.12
  -3   7   8   14.23    3.18
   3  -7  -8   18.33    3.00
   3  -7  -8   12.51    2.31
  -3   7   7  140.52    5.92
   3  -7  -7  144.76   14.66
   3  -7  -7  113.99    4.04
   3  -7  -7  134.79    4.94
  -3   7   6  184.22    8.27
   3  -7  -6  190.96    8.78
   3  -7  -6  161.08    6.66
   3  -7  -6  177.89    7.60
  -3   7   5  223.61    9.81
   3  -7  -5  248.47   20.75
   3  -7  -5  239.02   10.02
  -3   7   4   66.06    7.80
   3  -7  -4   70.55    7.15
   3  -7  -4   62.21    3.84
  -3   7   3   45.30    7.24
   3  -7  -3   53.78    6.91
   3  -7  -3   41.80    4.64
  -3   7   2   18.21    3.17
   3  -7  -2   16.54    2.79
   3  -7  -2   18.12    2.75
  -3   7   1   26.30    4.13
   3  -7  -1   20.44    3.15
   3  -7  -1   26.71    3.86
  -3   7   0  284.92   22.25
   3  -7   0  259.49   10.98
   3  -7   0  293.24   12.85
  -3   7  -1  272.13   21.44
   3  -7   1  247.58    9.02
   3  -7   1  251.68    9.81
  -3   7  -2    8.30    3.06
   3  -7   2    4.36    1.55
   3  -7   2    6.12    3.16
  -3   7  -3   11.19    2.53
   3  -7   3   12.07    2.98
   3  -7   3   12.40    3.96
  -3   7  -4    7.11    1.90
   3  -7   4    9.99    2.69
   3  -7   4    8.37    4.49
  -3   7  -5   19.16    3.62
   3  -7   5   12.96    2.24
   3  -7   5   14.47    2.74
  -3   7  -6    4.43    1.84
   3  -7   6    1.89    1.59
   3  -7   6    4.00    2.76
  -3   7  -7   21.15    5.03
   3  -7   7   16.81    3.81
   3  -6 -13   53.35   10.60
  -3   6  12    5.50    1.96
   3  -6 -12    6.82    2.04
  -3   6  11   47.83    3.75
   3  -6 -11   44.50    4.46
  -3   6  10    5.69    1.56
   3  -6 -10    9.80    2.56
  -3   6   9  389.78   16.62
   3  -6  -9  363.79   15.80
   3  -6  -9  330.52   13.24
  -3   6   8  387.48   13.15
   3  -6  -8  415.39   14.31
   3  -6  -8  340.71   10.74
   3  -6  -8  402.58   12.63
  -3   6   7  433.10   17.50
   3  -6  -7  423.18   17.17
   3  -6  -7  400.39   15.41
   3  -6  -7  413.29   15.99
  -3   6   6  529.04   17.03
   3  -6  -6  517.88   20.94
   3  -6  -6  474.01   14.53
   3  -6  -6  499.26   15.61
  -3   6   5   20.81    3.49
   3  -6  -5   25.39    4.50
   3  -6  -5   16.39    2.19
   3  -6  -5   25.63    3.56
  -3   6   4  121.36    7.95
   3  -6  -4  113.79    8.48
   3  -6  -4  119.55    5.39
  -3   6   3   -0.11    1.15
   3  -6  -3    5.05    2.26
   3  -6  -3    9.99    2.51
  -3   6   2  687.72   21.63
   3  -6  -2  702.71   21.87
   3  -6  -2  718.16   22.38
  -3   6   1   58.27    8.70
   3  -6  -1   69.17   12.46
   3  -6  -1   47.38    6.11
  -3   6   0    6.24    1.64
   3  -6   0    8.48    1.77
   3  -6   0    7.18    2.99
  -3   6  -1  116.66    8.39
   3  -6   1  107.51    4.90
   3  -6   1   99.29    5.33
  -3   6  -2   23.81    4.69
   3  -6   2   24.57    4.20
   3  -6   2   13.25    2.91
  -3   6  -3   17.65    3.61
   3  -6   3   19.84    2.83
   3  -6   3   17.91    3.84
  -3   6  -4   56.09    8.76
   3  -6   4   59.42    7.17
   3  -6   4   46.71    6.58
  -3   6  -5    2.93    1.49
   3  -6   5    5.02    1.83
   3  -6   5    6.49    3.24
  -3   6  -6   18.34    4.35
   3  -6   6   13.61    2.29
   3  -6   6   19.64    4.38
  -3   6  -7   10.31    2.42
   3  -6   7    9.27    1.97
   3  -6   7    5.69    2.83
  -3   6  -8   23.54    5.74
   3  -6   8   46.14    4.78
   3  -5 -13   56.54   11.40
   3  -5 -12   -0.47    2.16
  -3   5  11   34.10    3.42
   3  -5 -11   42.05    5.76
  -3   5  10  136.18    3.93
   3  -5 -10  138.98   12.27
  -3   5   9  182.21    6.91
   3  -5  -9  190.76   14.93
   3  -5  -9  188.32    6.29
  -3   5   8  451.89   14.82
   3  -5  -8  448.28   14.07
  -3   5   8  446.05   13.87
  -3   5   7  123.40    5.26
   3  -5  -7  119.52    9.24
   3  -5  -7  124.04    4.61
  -3   5   7  114.32    4.04
  -3   5   6    3.10    1.99
   3  -5  -6   -0.13    2.00
   3  -5  -6    3.93    1.15
  -3   5   6    4.07    1.43
  -3   5   5   63.30    5.96
   3  -5  -5   67.47    7.96
   3  -5  -5   62.81    4.87
  -3   5   5   52.54    3.90
  -3   5   4    7.54    2.05
   3  -5  -4    9.18    2.17
   3  -5  -4    3.53    1.97
  -3   5   3  127.28   12.58
   3  -5  -3  123.90    8.99
   3  -5  -3  118.26    4.52
  -3   5   2    5.22    1.79
   3  -5  -2    2.08    1.00
   3  -5  -2    4.22    2.16
  -3   5   1   70.29   10.01
   3  -5  -1   63.38    5.69
   3  -5  -1   65.31    4.41
  -3   5   0  369.17   10.45
   3  -5   0  356.36   10.40
   3  -5   0  354.08   10.36
  -3   5  -1    2.88    1.44
   3  -5   1    1.65    1.63
   3  -5   2  309.54   10.78
   3  -5   2  297.24   10.72
  -3   5  -3   21.84    3.42
   3  -5   3   13.26    2.12
   3  -5   3   16.09    2.85
  -3   5  -4  103.69   13.22
   3  -5   4  104.22    4.92
   3  -5   4  118.72    6.51
  -3   5  -5   34.78    6.05
   3  -5   5   41.73    5.08
   3  -5   5   44.45    6.61
  -3   5  -6   13.81    2.02
   3  -5   6   11.13    1.39
   3  -5   6   12.64    3.25
  -3   5  -7   15.85    3.17
   3  -5   7   12.17    1.99
   3  -5   7   14.17    3.53
  -3   5  -8   27.78    5.37
   3  -5   8   24.96    3.98
  -3   5  -9    8.41    2.96
   3  -5   9    8.27    3.01
   3  -4 -13   17.12    4.44
   3  -4 -12    7.82    2.86
  -3   4  11    3.28    1.53
   3  -4 -11   -0.34    1.92
  -3   4  10  240.35    4.22
   3  -4 -10  238.69   18.20
  -3   4   9  161.86    6.33
   3  -4  -9  161.98   15.20
   3  -4  -9  155.87    5.37
  -3   4   8   10.65    2.08
   3  -4  -8    9.58    2.38
   3  -4  -8    5.22    1.08
  -3   4   8    6.78    1.42
  -3   4   7  289.00    9.79
   3  -4  -7  297.77   10.56
   3  -4  -7  288.54    9.24
  -3   4   7  263.07    8.36
  -3   4   6   86.55    3.84
   3  -4  -6   89.08    9.54
   3  -4  -6   98.03    3.88
  -3   4   6   79.75    7.28
  -3   4   5  185.53    7.45
   3  -4  -5  223.99   18.06
   3  -4  -5  220.82    7.34
  -3   4   5  201.62    6.61
  -3   4   4   16.02    2.07
   3  -4  -4   14.23    1.60
   3  -4  -4   25.87    3.47
   3  -4  -4   14.79    1.62
  -3   4   4   14.77    1.38
  -3   4   3  155.03    4.57
   3  -4  -3  162.29    4.75
   3  -4  -3  152.21    4.79
  -3   4   3  148.00    3.90
  -3   4   2  212.12    5.59
   3  -4  -2  226.30    5.71
   3  -4  -2  225.69    6.09
  -3   4   2  208.94    5.06
  -3   4   1  150.11    5.08
   3  -4  -1  138.85    4.02
  -3   4   1  109.98    7.14
   3  -4  -1  134.08    4.61
  -3   4   0  100.80   11.12
   3  -4   0  101.70   10.64
  -3   4   0   86.65    5.79
   3  -4   0   94.81    7.07
  -3   4  -1   52.10    5.20
   3  -4   1   49.78    2.97
  -3   4  -1   51.77    2.94
   3  -4   1   50.45    4.11
   3  -4   2    1.56    1.66
  -3   4  -3   75.72   10.38
   3  -4   3   79.18    3.71
  -3   4  -3   69.79    4.99
   3  -4   3   76.70    9.46
  -3   4  -4   77.35    6.32
   3  -4   4   78.37    3.43
  -3   4  -4   69.10    3.14
   3  -4   4   75.63    4.27
  -3   4  -5   31.30    5.91
   3  -4   5   29.50    4.58
   3  -4   5   29.15    5.50
  -3   4  -6  165.16   12.99
   3  -4   6  179.95    6.66
   3  -4   6  171.53    7.56
  -3   4  -7    8.61    2.43
   3  -4   7   11.03    1.66
   3  -4   7   11.43    4.38
  -3   4  -8   72.75    9.66
   3  -4   8   70.79    2.66
   3  -4   8   73.65    4.74
  -3   4  -9    5.05    2.48
   3  -4   9    5.84    3.63
   3  -4  10    8.34    4.19
   3  -3 -13   32.33    8.02
   3  -3 -12   25.63    5.79
   3  -3 -11   35.95    6.24
  -3   3  10   14.38    1.48
   3  -3 -10   14.50    2.36
   3  -3 -10    9.73    1.80
  -3   3   9  164.21    6.06
   3  -3  -9  178.16    7.49
   3  -3  -9  162.51    6.30
  -3   3   8  418.20   16.26
   3  -3  -8  417.75   16.16
   3  -3  -8  458.10   27.58
   3  -3  -8  427.34   16.65
  -3   3   8  406.78   15.73
  -3   3   7  279.27    9.03
   3  -3  -7  244.80    7.91
   3  -3  -7  283.18    9.31
  -3   3   7  258.80    8.30
  -3   3   6  119.70    4.92
   3  -3  -6  124.62    4.56
   3  -3  -6  133.09    8.25
   3  -3  -6  119.82    4.40
  -3   3   6  124.77    4.55
  -3   3   5   90.60    8.83
   3  -3  -5   74.47    3.91
   3  -3  -5   79.78    5.66
   3  -3  -5   76.95    3.93
  -3   3   5   70.77    3.61
  -3   3   4   10.91    1.87
   3  -3  -4    8.33    1.25
   3  -3  -4   11.36    1.88
   3  -3  -4    5.93    1.30
  -3   3   4    8.96    1.43
  -3   3   3   48.67    5.71
   3  -3  -3   37.77    2.82
   3  -3  -3   46.39    4.81
   3  -3  -3   42.93    3.42
  -3   3   3   42.25    3.20
  -3   3   2  673.00   15.14
   3  -3  -2  720.14   14.98
  -3   3   2  681.59   13.88
   3  -3  -1    5.16    1.49
   3  -3  -1    7.59    1.25
  -3   3   1    4.54    0.86
   3  -3  -1    6.33    3.22
  -3   3   1    4.28    1.57
  -3   3   0  331.61    7.77
  -3   3   0  323.23    7.03
   3  -3   0  307.33    7.38
  -3   3  -1   19.90    2.95
   3  -3   1   23.22    4.28
  -3   3  -1   18.95    2.03
   3  -3   1   19.96    2.56
  -3   3  -2  176.70   13.84
   3  -3   2  159.84    3.84
  -3   3  -2  157.02    3.69
   3  -3   2  167.69    6.05
  -3   3  -3    5.49    1.64
   3  -3   3    3.28    1.41
  -3   3  -3    1.57    0.83
   3  -3   3    0.38    2.66
  -3   3  -4    2.99    1.37
   3  -3   4    1.23    1.02
  -3   3  -4    5.52    1.48
   3  -3   4    5.84    3.80
  -3   3  -5  184.21    7.22
   3  -3   5  175.91    5.75
   3  -3   5  184.63    6.16
   3  -3   5  182.33    7.48
  -3   3  -6   14.88    3.18
   3  -3   6    8.91    1.71
   3  -3   6   14.88    2.52
   3  -3   6   16.37    3.84
  -3   3  -7   82.58   11.33
   3  -3   7   84.93    9.29
   3  -3   7   79.50    9.26
  -3   3  -8    5.84    1.75
   3  -3   8    3.95    1.34
   3  -3   8   -1.81    2.89
  -3   3  -9    4.72    2.09
   3  -3   9    5.41    2.47
  -3   3 -10   57.02    8.63
   3  -3  10   55.39    8.68
   3  -3  11   16.67    3.36
   3  -3  11   14.85    3.70
   3  -2 -12    4.88    1.82
   3  -2 -11   35.36    4.74
  -3   2  10    3.67    0.74
   3  -2 -10    6.17    1.85
   3  -2 -10    3.74    1.11
   3  -2  -9  181.85   11.06
   3  -2  -9  191.36    6.87
  -3   2   8   65.97    6.54
  -3   2   8   67.13    3.15
   3  -2  -8   65.85    7.75
   3  -2  -8   69.95    8.23
  -3   2   8   63.05    6.42
  -3   2   7  428.49   13.17
   3  -2  -7  422.78   12.94
   3  -2  -7  438.59   13.63
  -3   2   7  395.93   12.43
  -3   2   6   20.22    3.82
   3  -2  -6   20.18    1.94
   3  -2  -6   23.43    2.69
   3  -2  -6   20.11    2.98
  -3   2   6   18.84    2.03
  -3   2   5  320.00    8.44
   3  -2  -5  327.62    8.50
   3  -2  -5  337.40    9.48
   3  -2  -5  333.20    8.96
  -3   2   5  315.46    8.44
  -3   2   4  648.15   12.49
   3  -2  -4  635.40   12.23
   3  -2  -4  628.84   12.93
   3  -2  -4  617.36   12.32
  -3   2   4  611.87   12.10
  -3   2   3  149.86    9.65
   3  -2  -3  138.59    5.67
   3  -2  -3  138.43    7.36
   3  -2  -3  146.28    9.42
  -3   2   3  140.85    5.96
  -3   2   2  445.25   10.70
   3  -2  -2  409.80    8.63
  -3   2   2  427.08    9.13
   3  -2  -2  421.50    9.35
  -3   2   2  433.29    9.37
  -3   2   1    8.61    1.77
   3  -2  -1    7.76    1.40
   3  -2  -1   11.10    1.94
  -3   2   1    6.37    1.09
   3  -2  -1    5.54    1.77
  -3   2   0  400.44    8.87
   3  -2   0  348.30    7.64
   3  -2   0  389.08    8.22
  -3   2   0  372.43    7.82
  -3   2   0  356.96    7.87
  -3   2  -1   18.34    2.22
   3  -2   1   18.98    2.03
  -3   2  -1   16.04    1.42
  -3   2  -1   14.38    1.53
  -3   2  -2   48.18    5.83
   3  -2   2   37.74    4.01
  -3   2  -2   30.89    2.18
   3  -2   2   34.07    3.55
  -3   2  -3  398.61    8.96
   3  -2   3  387.00    8.28
  -3   2  -3  410.00    7.86
   3  -2   3  439.79   10.12
   3  -2   4  434.17   10.78
  -3   2  -4  434.36   10.77
   3  -2   4  434.10   12.19
  -3   2  -5   86.09    6.90
   3  -2   5   73.89    5.80
   3  -2   5   78.47    2.84
   3  -2   5   70.53    5.62
  -3   2  -6   15.97    2.87
   3  -2   6   10.89    1.80
   3  -2   6   13.35    1.55
   3  -2   6    9.21    2.50
  -3   2  -7   97.28   13.84
   3  -2   7   68.04    7.49
   3  -2   7   94.74    8.41
   3  -2   7  100.47    9.77
  -3   2  -8  479.17   20.23
   3  -2   8  447.29   18.10
   3  -2   8  479.71   20.84
  -3   2  -9    1.89    2.56
   3  -2   9    4.53    2.74
  -3   2 -10  161.26    5.08
   3  -2  10  161.30    5.27
   3  -2  11    9.88    3.23
   3  -2  11    9.26    2.57
   3  -1 -12   10.68    4.02
   3  -1 -11   23.54    3.04
   3  -1 -10  110.09   12.84
   3  -1 -10  126.83    6.20
  -3   1   9    0.93    0.63
   3  -1  -9    3.93    1.65
   3  -1  -9    1.00    0.52
  -3   1   8   24.47    2.65
  -3   1   8   29.87    2.81
   3  -1  -8   25.73    3.72
   3  -1  -8   26.54    4.33
  -3   1   7   15.87    2.36
   3  -1  -7   25.01    4.22
   3  -1  -7   20.23    3.00
  -3   1   6  100.76    3.34
   3  -1  -6  100.07    3.27
   3  -1  -6  119.22   11.01
   3  -1  -6  111.19    4.31
  -3   1   6   93.23    3.81
  -3   1   5  533.25   13.48
   3  -1  -5  528.67   12.94
   3  -1  -5  520.21   13.89
   3  -1  -5  533.52   13.70
  -3   1   5  489.05   12.62
  -3   1   4  379.94    7.80
   3  -1  -4  357.01    6.93
   3  -1  -4  396.34    8.76
   3  -1  -4  388.03    8.26
  -3   1   4  351.89    7.53
  -3   1   3  111.58    4.91
   3  -1  -3  108.39    4.40
   3  -1  -3  101.78    4.68
   3  -1  -3  122.88    5.52
  -3   1   3  110.03    4.94
  -3   1   2    0.79    0.82
   3  -1  -2    0.21    0.67
   3  -1  -2    3.54    1.27
  -3   1   2    1.73    0.90
   3  -1  -2    4.09    2.48
  -3   1   2    2.87    1.63
  -3   1   1  197.48    4.68
   3  -1  -1  182.83    5.41
   3  -1  -1  201.36    5.25
  -3   1   1  192.03    6.00
  -3   1   1  199.15    5.12
   3  -1   0    0.82    0.78
   3  -1   0    1.44    0.72
  -3   1   0    1.13    0.75
   3  -1   0    6.20    3.05
  -3   1   0    2.89    1.61
  -3   1  -1   84.55    3.91
   3  -1   1   80.92    7.97
   3  -1   1   89.05    3.71
  -3   1  -1   88.07    5.31
   3  -1   1   72.12    3.85
  -3   1  -1   68.54    3.36
  -3   1  -2  372.97    8.41
   3  -1   2  364.78    7.36
  -3   1  -2  355.89    7.09
   3  -1   2  361.81    8.26
  -3   1  -3  655.16   13.31
   3  -1   3  640.15   11.82
  -3   1  -3  630.80   11.51
  -3   1  -4   86.34    9.95
   3  -1   4   71.46    4.44
   3  -1   4   76.57    4.73
   3  -1   4   70.29    5.63
   3  -1   5  241.74    5.96
   3  -1   5  261.13    6.37
   3  -1   5  270.17    8.22
  -3   1  -6  243.13   19.81
   3  -1   6  205.14    6.95
   3  -1   6  223.90    7.23
   3  -1   6  235.35    9.22
  -3   1  -7   86.61    7.50
   3  -1   7   68.63    3.39
   3  -1   7   73.43    2.61
   3  -1   7   97.61    5.99
  -3   1  -8  278.83   17.76
   3  -1   8  226.12    7.83
   3  -1   8  232.15    7.43
   3  -1   8  272.51   10.15
  -3   1  -9   13.42    1.88
   3  -1   9   13.10    0.90
   3  -1   9   11.91    2.42
   3  -1  10   23.62    3.60
   3  -1  10   22.97    3.65
   3  -1  11   36.05    3.73
   3  -1  11   46.68    4.14
   3  -1  12    2.25    2.45
   3  -1  12    4.71    2.26
   3   0 -12   35.23    4.92
   3   0 -11    3.12    1.96
   3   0 -11    1.13    0.89
   3   0 -10   53.14    7.49
   3   0 -10   37.84    7.60
   3   0  -9   17.71    2.33
   3   0  -9    8.34    1.37
   3   0  -8   14.28    3.46
   3   0  -8   13.62    2.94
   3   0  -7   57.50    6.55
   3   0  -7   48.12   10.46
   3   0  -6   54.53    7.93
   3   0  -5  666.19   17.66
   3   0  -5  669.85   17.13
   3   0  -4  248.36    6.36
   3   0  -4  257.00    6.12
  -3   0   4  235.40    5.64
  -3   0   3   54.63    3.50
   3   0  -3   54.89    3.52
   3   0  -3   51.73    3.87
   3   0  -3   67.83    7.93
  -3   0   3   49.28    3.60
  -3   0   2  557.78   11.00
   3   0  -2  555.16   10.89
   3   0  -2  599.76   12.57
  -3   0   2  551.72   11.44
   3   0  -2  564.79   11.99
  -3   0   2  544.18   11.46
  -3   0   1  547.52   11.02
   3   0  -1  562.57   11.70
  -3   0   1  531.18   10.89
   3   0  -1  564.78   12.04
  -3   0   1  521.49   10.98
  -3   0   0  555.01    7.25
   3   0   0  542.61    7.05
   3   0   0  548.82    7.48
  -3   0   0  556.57    7.16
   3   0   0  551.02    8.13
  -3   0   0  541.98    7.52
   3   0   1   50.67    4.90
   3   0   1   51.70    1.96
  -3   0  -1   52.70    4.14
   3   0   1   47.07    3.16
  -3   0  -2   79.31    8.03
   3   0   2   65.15    2.72
  -3   0  -2   68.85    3.47
   3   0   2   73.06    4.05
  -3   0  -2   58.96    3.04
  -3   0  -3   78.75   10.00
   3   0   3   68.63    4.17
  -3   0  -3   61.09    3.03
  -3   0  -4  147.96    8.78
   3   0   4  123.03    8.37
  -3   0  -5    2.98    1.47
   3   0   5    1.55    2.43
  -3   0  -6  597.94   18.73
   3   0   6  607.11   19.11
  -3   0  -7   95.50    4.73
   3   0   7   83.96    2.61
   3   0   7   95.03    4.68
   3   0   8    3.85    0.75
   3   0   8    2.19    0.56
   3   0   8    2.45    2.51
   3   0   9  178.19    8.07
   3   0   9  169.60    5.73
   3   0   9  198.41    8.04
   3   0  10   12.72    2.47
   3   0  10   14.98    2.59
   3   0  11   69.50    3.67
   3   0  11   82.60    4.02
   3   0  12   21.06    3.83
   3   0  12   33.38    5.34
  -3  -1  11    3.24    2.64
   3   1 -11    2.68    1.99
   3   1 -10   12.64    3.65
   3   1  -9  163.18    8.65
   3   1  -9  150.36   10.04
   3   1  -8    3.94    1.53
   3   1  -8    5.09    1.92
   3   1  -7  924.23   35.82
   3   1  -7  947.56   36.49
   3   1  -6   25.02    4.48
   3   1  -5  104.90    8.86
   3   1  -5   97.78   10.55
   3   1  -4  119.44    5.47
   3   1  -4  120.43    6.41
   3   1  -3  147.15    5.36
   3   1  -3  136.13    4.20
   3   1  -2  661.16   12.71
   3   1  -2  676.85   13.01
   3   1  -2  691.62   14.38
   3   1  -1  223.61    4.76
   3   1  -1  228.58    4.98
  -3  -1   1  221.82    5.23
  -3  -1   1  213.48    5.28
  -3  -1   0   -0.23    0.79
   3   1   0   -0.92    0.72
   3   1   0    0.05    0.74
  -3  -1   0    1.18    1.07
  -3  -1   0    4.26    1.98
  -3  -1  -1  326.02    7.09
   3   1   1  300.60    6.53
  -3  -1  -1  314.89    6.65
   3   1   1  318.76    7.43
  -3  -1  -1  302.33    6.85
  -3  -1  -2  285.02    6.59
   3   1   2  261.55    6.52
  -3  -1  -2  284.01    5.80
  -3  -1  -2  296.90    6.13
   3   1   2  288.02    7.04
  -3  -1  -3   45.28    3.13
   3   1   3   35.94    3.38
  -3  -1  -3   39.68    1.84
  -3  -1  -3   38.46    1.71
   3   1   3   42.92    3.10
  -3  -1  -3   41.68    2.63
  -3  -1  -4   67.75    4.87
   3   1   4   69.19    4.94
  -3  -1  -4   62.84    4.54
  -3  -1  -5 1172.63   77.39
   3   1   5 1153.60   28.77
  -3  -1  -5 1060.99   26.34
   3   1   6   10.15    2.03
   3   1   6   11.85    2.40
   3   1   7  125.65    6.20
   3   1   7  126.51    5.45
   3   1   8  258.68   11.96
   3   1   8  219.54    8.38
   3   1   8  223.49    8.54
   3   1   8  255.93   11.05
   3   1   9    6.24    3.14
   3   1   9    2.41    0.70
   3   1   9    7.59    3.03
   3   1  10  118.76    4.63
   3   1  10  118.37    4.02
   3   1  11   62.24    4.81
   3   1  11   57.22    4.07
   3   1  12   30.30    4.23
   3   1  12   20.29    4.16
   3   1  13   10.16    3.58
  -3  -2  11   -4.33    2.47
   3   2 -11    0.91    1.01
  -3  -2  10   18.59    4.06
   3   2 -10    8.07    3.03
  -3  -2   9   58.31    4.11
   3   2  -9   44.12    8.13
  -3  -2   8    9.14    3.69
   3   2  -8    4.15    1.19
  -3  -2   7   50.30    7.17
   3   2  -7   44.32    6.68
   3   2  -6  102.88   12.71
   3   2  -5    3.91    1.88
   3   2  -5    5.13    1.90
   3   2  -4  257.73    8.93
   3   2  -4  242.07    9.19
   3   2  -3   62.57    3.89
   3   2  -3   62.29    8.00
   3   2  -2  218.63    4.25
   3   2  -2  218.10    4.23
   3   2  -2  216.74    8.47
   3   2  -1   90.34    5.51
   3   2  -1   93.02    3.83
  -3  -2   1   79.96    7.22
   3   2  -1   83.40    4.20
   3   2   0    1.37    0.46
   3   2   0    2.64    1.49
  -3  -2   0    1.82    0.74
  -3  -2   0    2.37    1.57
   3   2   0    3.14    1.34
  -3  -2   0    1.08    1.27
   3   2   1   75.98    7.90
   3   2   1   80.26    4.02
  -3  -2  -1   76.59    6.03
  -3  -2  -1   80.21    3.80
   3   2   1   82.00    4.16
   3   2   2   15.64    2.13
   3   2   2   16.22    1.96
  -3  -2  -2   14.92    1.66
  -3  -2  -2   13.99    1.26
   3   2   2   17.72    2.14
  -3  -2  -2   11.89    1.29
   3   2   3 1029.80   20.54
  -3  -2  -3 1077.53   20.79
  -3  -2  -3 1038.73   20.04
  -3  -2  -3 1062.02   21.13
  -3  -2  -4  453.92    8.54
   3   2   4  458.39    8.60
   3   2   4  458.26    9.78
  -3  -2  -4  452.00    9.46
   3   2   5    7.65    2.80
  -3  -2  -5   11.12    1.17
   3   2   5   10.76    0.92
   3   2   5    5.66    1.72
  -3  -2  -5    9.54    1.41
   3   2   6   82.30    5.12
  -3  -2  -6   83.07    3.83
   3   2   6   80.79    3.52
   3   2   6   80.06    4.46
  -3  -2  -6   74.91    3.91
   3   2   7    4.91    3.90
  -3  -2  -7    1.22    0.43
   3   2   7    2.57    0.80
   3   2   7    4.40    2.85
   3   2   8  343.78   12.19
  -3  -2  -8  320.10    9.65
   3   2   8  334.67   10.14
   3   2   8  353.12   11.86
   3   2   9  136.73    6.57
   3   2   9  130.67    4.34
   3   2   9  142.61    6.02
   3   2  10  161.91    8.33
   3   2  10  148.84    6.21
   3   2  10  158.45    7.44
   3   2  11    4.33    2.78
   3   2  11    3.33    1.66
   3   2  12   31.59    3.62
   3   2  13   13.24    3.36
  -3  -3  10   18.69    4.92
   3   3 -10    5.50    2.30
  -3  -3   9   26.20    3.10
   3   3  -9   23.03    4.23
  -3  -3   8    2.46    2.61
   3   3  -8    1.41    1.80
  -3  -3   7   34.97    3.83
   3   3  -7   36.54    5.98
  -3  -3   6   90.38    9.38
   3   3  -6   87.12   13.81
  -3  -3   5  324.33   11.75
   3   3  -5  319.79   10.91
  -3  -3   4   12.11    2.72
   3   3  -4   20.49    3.98
  -3  -3   3  110.28    5.95
   3   3  -3  115.00   10.28
   3   3  -2  255.07    6.34
   3   3  -2  265.83    6.68
  -3  -3   2  267.21    8.26
   3   3  -1    0.80    0.90
  -3  -3   1   -2.47    2.05
   3   3  -1    0.58    1.06
   3   3   0   70.97    4.76
  -3  -3   0   69.19    4.73
  -3  -3   0   65.99    4.96
   3   3   0   75.79    9.22
   3   3   1   73.36    3.59
  -3  -3  -1   62.57    6.32
  -3  -3  -1   68.26    3.62
   3   3   1   70.60    6.40
  -3  -3  -1   59.26    3.08
   3   3   2    6.87    1.03
   3   3   2    1.77    1.83
  -3  -3  -2    5.48    2.34
   3   3   2    6.40    1.40
   3   3   2    2.90    1.40
  -3  -3  -2    4.69    1.25
   3   3   3  206.62    4.81
   3   3   3  239.07    6.23
  -3  -3  -3  224.43    5.22
   3   3   3  217.04    4.71
   3   3   3  234.15    5.79
  -3  -3  -3  204.79    5.08
   3   3   4   55.09    4.66
  -3  -3  -4   57.68    4.02
   3   3   4   52.55    3.52
   3   3   4   57.65    4.29
  -3  -3  -4   53.90    3.96
   3   3   5    3.38    2.47
  -3  -3  -5    2.70    0.95
   3   3   5   -0.22    0.73
   3   3   5    4.28    2.12
  -3  -3  -5    6.74    2.07
   3   3   6   89.63    4.80
  -3  -3  -6  110.13    3.43
   3   3   6  105.89    3.19
   3   3   6  117.58    4.71
  -3  -3  -6  104.31    3.62
   3   3   7  153.90    7.11
  -3  -3  -7  172.46    5.93
   3   3   7  158.93    5.36
   3   3   7  164.80    6.25
  -3  -3  -7  150.97    5.59
   3   3   8  528.41   17.33
  -3  -3  -8  531.44   16.61
   3   3   8  526.55   15.90
   3   3   8  538.33   16.95
  -3  -3  -8  470.08   14.54
   3   3   9  248.27    9.75
  -3  -3  -9  230.83    7.66
   3   3   9  221.82    7.17
   3   3   9  226.16    7.90
   3   3  10  210.32   10.33
  -3  -3 -10  192.31    8.00
   3   3  10  198.96    8.77
   3   3  11  114.00    7.41
   3   3  11  106.49    5.49
   3   3  12   11.44    3.53
   3   3  13   36.15    4.27
  -3  -4   9   27.21    4.26
   3   4  -9   14.10    2.97
  -3  -4   8    5.71    3.92
   3   4  -8    6.50    2.64
  -3  -4   7  123.62    8.25
   3   4  -7  101.69   12.49
  -3  -4   6   24.90    3.03
   3   4  -6   34.27    6.08
  -3  -4   5   60.35    7.25
   3   4  -5   54.55    8.50
   3   4  -4  133.47    4.04
  -3  -4   4  150.46    7.27
   3   4  -4  153.67   12.63
   3   4  -3   71.23    7.87
  -3  -4   3   72.61    8.04
  -3  -4   3   67.25    8.29
   3   4  -3   83.36    9.31
   3   4  -2   13.42    1.69
  -3  -4   2   12.83    1.22
  -3  -4   2   13.25    2.26
   3   4  -2   12.77    1.90
   3   4  -1  249.60    6.68
  -3  -4   1  232.89    6.18
  -3  -4   1  234.17    7.52
   3   4  -1  251.25    7.49
   3   4   0  104.57    3.49
  -3  -4   0  100.72    3.46
  -3  -4   0  111.95    4.43
   3   4   0  106.73   10.89
   3   4   1  513.38   10.41
  -3  -4  -1  495.44    9.91
  -3  -4  -1  513.26   11.03
   3   4   1  554.67   11.85
   3   4   2    2.20    1.96
  -3  -4  -2    2.34    1.08
  -3  -4  -2    3.60    3.03
   3   4   2    4.23    1.43
   3   4   2    3.91    1.83
   3   4   3  228.77    5.69
  -3  -4  -3  248.78    5.86
   3   4   3  241.38    5.85
   3   4   4    3.01    3.09
  -3  -4  -4    2.65    2.07
   3   4   4   -0.06    1.22
   3   4   4    3.99    1.50
  -3  -4  -4   -0.40    1.38
   3   4   5    3.35    2.70
  -3  -4  -5    1.37    1.18
   3   4   5   -0.22    1.08
   3   4   5    5.77    1.99
  -3  -4  -5    5.99    1.94
   3   4   6   95.85    4.93
  -3  -4  -6   88.79    3.32
   3   4   6   86.07    3.37
   3   4   6   86.97    3.63
  -3  -4  -6   83.43    3.48
   3   4   7    2.90    2.57
  -3  -4  -7    3.83    1.31
   3   4   7    3.04    1.03
   3   4   7    4.17    1.95
  -3  -4  -7    1.55    1.18
   3   4   8    6.90    3.13
  -3  -4  -8    3.96    1.65
   3   4   8    2.67    1.41
  -3  -4  -8    2.13    1.07
   3   4   9  157.93    7.20
  -3  -4  -9  147.68    6.67
   3   4   9  152.37    5.83
   3   4  10   43.79    4.07
   3   4  10   41.91    2.82
   3   4  11  241.91   12.76
  -3  -4 -11  221.87   10.08
   3   4  11  219.91   10.11
   3   4  12   38.01    3.87
   3   4  13    4.55    3.53
  -3  -5   9   39.20    5.26
   3   5  -9   25.26    7.54
  -3  -5   8   22.65    4.43
   3   5  -8   24.97    5.35
  -3  -5   7   23.95    4.26
   3   5  -7   35.07    8.49
  -3  -5   6   10.33    2.46
   3   5  -6   15.70    3.36
   3   5  -5    3.47    0.71
  -3  -5   5    8.30    3.02
   3   5  -5    7.65    1.55
   3   5  -4    4.80    0.87
  -3  -5   4    3.08    0.58
  -3  -5   4    1.19    3.19
   3   5  -4    2.34    0.81
   3   5  -3   89.89    4.21
  -3  -5   3   85.83    3.70
  -3  -5   3   86.76    5.95
   3   5  -3   95.04    5.67
   3   5  -2   94.79    3.67
  -3  -5   2   81.03    7.26
  -3  -5   2   88.47    5.00
   3   5  -2   98.03   12.26
   3   5  -1  103.19    3.96
  -3  -5   1   95.00    3.56
   3   5  -1   90.19    4.03
   3   5   0   62.27    4.96
  -3  -5   0   47.48    3.57
  -3  -5   0   57.53    5.44
   3   5   0   50.64    6.85
   3   5   1   29.02    2.16
  -3  -5  -1   30.33    1.96
  -3  -5  -1   27.72    3.11
   3   5   1   32.60    3.40
   3   5   2  147.61    5.28
  -3  -5  -2  152.38    5.75
   3   5   2  154.63    7.70
   3   5   3  884.87   22.50
  -3  -5  -3  889.17   22.52
   3   5   3  900.20   22.72
   3   5   4   13.71    2.54
  -3  -5  -4   13.89    1.82
   3   5   4   12.27    1.65
   3   5   4   13.00    2.10
   3   5   5   83.16    5.06
  -3  -5  -5   81.32    3.72
   3   5   5   77.49    3.13
   3   5   5   71.34    7.37
  -3  -5  -6   88.80    3.71
   3   5   6   89.78    3.53
   3   5   6   92.86    7.46
  -3  -5  -6   78.94    3.43
   3   5   7  107.29    6.08
  -3  -5  -7  111.67    7.89
   3   5   7   91.43    3.81
   3   5   7  110.81   11.44
  -3  -5  -7   93.37    3.92
   3   5   8  316.50   13.57
  -3  -5  -8  327.02   13.03
   3   5   8  283.78   11.20
   3   5   8  318.76   12.70
  -3  -5  -8  284.50   11.24
   3   5   9  468.86   16.30
  -3  -5  -9  478.85   15.34
   3   5   9  449.65   15.93
   3   5  10  504.69   21.70
  -3  -5 -10  517.75   36.70
   3   5  10  468.46   19.13
   3   5  11   14.63    4.46
  -3  -5 -11    6.39    1.06
   3   5  12   16.54    2.87
   3   5  13    5.63    2.48
  -3  -6   8    9.99    3.09
   3   6  -8    5.93    1.88
  -3  -6   7   10.37    2.52
   3   6  -7    9.88    2.30
  -3  -6   6   24.72    4.21
   3   6  -6   12.27    5.74
  -3  -6   5   22.11    3.90
   3   6  -5   15.87    3.68
   3   6  -4   11.29    2.69
  -3  -6   4   23.10    3.53
   3   6  -4   28.66    4.53
   3   6  -3    6.90    1.80
  -3  -6   3    3.72    0.90
  -3  -6   3    9.27    4.89
   3   6  -2   16.91    3.09
  -3  -6   2    9.95    1.83
  -3  -6   2   14.16    3.82
   3   6  -2   13.82    3.29
   3   6  -1    1.29    1.17
  -3  -6   1    0.76    1.19
  -3  -6   1    8.71    3.31
   3   6  -1    1.96    1.81
   3   6   0  183.00    6.77
  -3  -6   0  152.78    5.62
  -3  -6   0  189.12    8.60
   3   6   0  186.64    7.48
   3   6   1  109.29    4.76
  -3  -6  -1  104.93    5.21
   3   6   1  113.29    5.30
   3   6   2    4.55    3.11
  -3  -6  -2    9.07    2.64
   3   6   2    9.57    2.18
   3   6   3  191.36    7.49
  -3  -6  -3  178.35    7.16
   3   6   3  178.06   17.05
   3   6   4    2.07    2.22
  -3  -6  -4    6.84    2.61
   3   6   4    4.72    0.88
   3   6   5   81.27    4.95
  -3  -6  -5   82.58    4.03
   3   6   5   97.01    8.36
   3   6   6  112.34    5.72
  -3  -6  -6  132.72    5.54
   3   6   6  138.45    6.34
   3   6   7  321.46   11.88
   3   6   7  297.31    9.75
   3   6   8  538.36   22.02
  -3  -6  -8  596.42   24.16
   3   6   8  605.15   23.58
  -3  -6  -8  481.84   18.59
   3   6   9  103.34    6.64
  -3  -6  -9   94.26    8.64
   3   6   9   95.22    6.47
   3   6  10  133.16    6.41
  -3  -6 -10  124.62    9.00
   3   6  10  127.62    3.50
   3   6  11   37.64    4.94
  -3  -6 -11   34.33    5.63
   3   6  12   44.56    4.06
   3   6  13    5.02    2.89
  -3  -7   7    4.74    3.20
   3   7  -7    4.49    1.10
  -3  -7   6   14.31    3.38
   3   7  -6   16.18    4.46
  -3  -7   5   21.19    3.05
   3   7  -5   25.36    4.90
   3   7  -4    1.09    0.34
  -3  -7   4    6.06    4.65
   3   7  -4    4.41    1.96
   3   7  -3   36.08    4.93
  -3  -7   3   57.15    4.13
   3   7  -3   44.65    7.36
   3   7  -2    1.50    0.87
  -3  -7   2    6.27    3.98
   3   7  -2    2.37    1.69
   3   7  -1  338.76   12.20
  -3  -7   1  360.92   13.28
   3   7  -1  346.50   17.47
   3   7   0    8.33    2.61
  -3  -7   0    5.04    3.36
   3   7   0    8.88    2.92
   3   7   1  374.78   12.43
  -3  -7  -1  356.16   12.34
   3   7   1  401.90   13.63
   3   7   2    3.72    2.18
  -3  -7  -2   11.95    4.80
   3   7   2    1.99    1.60
   3   7   3   11.19    2.83
  -3  -7  -3   10.07    2.20
   3   7   3    6.16    1.37
   3   7   4  141.89    6.67
  -3  -7  -4  157.77    6.75
   3   7   4  159.33   12.07
   3   7   5   36.27    4.20
  -3  -7  -5   36.95    4.65
   3   7   5   39.98    5.81
   3   7   6  210.28   10.14
  -3  -7  -6  195.50    8.48
   3   7   6  197.94   10.67
  -3  -7  -7    6.84    2.91
   3   7   7    1.75    0.74
   3   7   8   46.84    6.75
  -3  -7  -8   36.16    5.03
   3   7   8   35.66    5.95
   3   7   9   57.62    6.11
  -3  -7  -9   51.71    6.24
   3   7   9   49.24    4.80
   3   7  10    6.77    3.19
  -3  -7 -10    0.57    1.01
   3   7  10    0.56    0.57
   3   7  11   91.35    4.67
  -3  -7 -11   75.53    7.43
   3   7  12    9.56    2.33
  -3  -7 -12    9.91    1.38
   3   7  13   22.13    5.40
  -3  -8   5    3.17    3.28
   3   8  -5    8.18    2.81
  -3  -8   4    3.22    2.89
   3   8  -4    3.23    2.27
   3   8  -3   17.85    3.68
  -3  -8   3   46.62    5.30
   3   8  -2   27.64    3.12
  -3  -8   2   32.56    4.19
   3   8  -2   32.27    4.88
   3   8  -1    5.03    1.52
  -3  -8   1   15.13    5.22
   3   8  -1    4.73    1.46
   3   8   0  146.07    6.06
   3   8   0  150.68   12.52
   3   8   1   39.34    4.88
  -3  -8  -1   36.43    5.36
   3   8   1   38.61    5.86
   3   8   2   11.79    2.97
  -3  -8  -2   13.53    4.37
   3   8   2    8.90    1.96
   3   8   3   28.66    3.78
  -3  -8  -3   25.89    4.30
   3   8   3   21.16    4.25
   3   8   4    2.75    2.74
  -3  -8  -4    6.17    3.96
   3   8   4    3.94    1.79
   3   8   5   47.62    5.20
  -3  -8  -5   50.72    5.95
   3   8   5   52.88    5.90
   3   8   6   73.99    7.90
  -3  -8  -6   71.17    7.17
   3   8   6   65.05    8.06
   3   8   7   18.36    3.64
  -3  -8  -7   20.40    3.30
   3   8   7   22.67    4.03
  -3  -8  -8   74.64    8.08
   3   8   8   70.94    8.74
   3   8   9   87.04    5.23
  -3  -8  -9   79.94   10.71
   3   8   9   73.97    4.08
   3   8  10    2.50    2.97
  -3  -8 -10    1.84    1.05
   3   8  11  112.84    8.05
  -3  -8 -11  102.06   12.18
   3   8  12   15.44    5.05
  -3  -8 -12   13.03    3.59
   3   8  13    8.62    3.26
  -3  -9   4    5.89    3.15
   3   9  -4    2.37    1.79
  -3  -9   3   27.29    4.59
   3   9  -3   35.61    7.13
   3   9  -2    7.69    1.95
  -3  -9   2    7.30    3.15
   3   9  -2    7.89    3.22
   3   9  -1    4.83    1.24
  -3  -9   1    4.29    2.86
   3   9  -1    3.55    2.17
   3   9   0    5.61    1.77
  -3  -9   0    8.96    3.56
   3   9   0   10.00    2.40
   3   9   1    3.08    1.52
  -3  -9  -1    7.44    2.84
   3   9   1    5.24    1.77
   3   9   2   47.14    3.98
  -3  -9  -2   39.89    4.36
   3   9   2   52.53    6.73
   3   9   3   33.66    3.25
  -3  -9  -3   26.51    3.68
   3   9   3   33.12    4.24
   3   9   4  209.96   10.36
  -3  -9  -4  205.95   10.82
   3   9   4  214.68   10.89
   3   9   5   32.63    3.40
  -3  -9  -5   26.07    3.16
   3   9   5   31.70    3.66
   3   9   6    6.23    4.15
  -3  -9  -6    2.95    2.40
   3   9   6    2.02    0.93
   3   9   7  137.78    6.84
  -3  -9  -7  131.33    4.66
   3   9   7  128.83    9.96
   3   9   8  126.71    7.72
  -3  -9  -8  123.31    6.94
   3   9   8  131.83    6.53
  -3  -9  -9  252.98    5.26
   3   9   9  246.98    4.23
   3   9  10   71.42    5.95
  -3  -9 -10   65.35   10.17
   3   9  11    3.86    2.96
  -3  -9 -11    5.50    1.78
   3   9  12   27.23    5.19
  -3  -9 -12   25.18    4.74
   3   9  13   41.55    6.59
  -3 -10   3   13.32    3.66
   3  10  -3   14.16    3.33
  -3 -10   2    7.58    3.03
   3  10  -2    7.66    3.93
   3  10  -1    3.63    1.22
  -3 -10   1    0.72    2.87
   3  10  -1    4.91    1.44
   3  10   0    5.43    1.79
  -3 -10   0    4.94    3.02
   3  10   0    5.36    2.46
   3  10   1    7.61    2.42
   3  10   1    5.00    2.04
   3  10   2   15.28    2.25
  -3 -10  -2   21.34    3.89
   3  10   2   14.29    3.64
   3  10   3   69.77    5.03
  -3 -10  -3   67.19    6.05
   3  10   3   62.37    7.19
   3  10   4    9.62    2.13
  -3 -10  -4   11.38    2.28
   3  10   4   10.60    2.80
   3  10   5   49.55    4.03
  -3 -10  -5   52.41    4.47
   3  10   5   43.75    6.20
   3  10   6    2.71    2.07
  -3 -10  -6   -0.82    2.46
   3  10   6    1.96    1.09
   3  10   7  119.82    5.82
  -3 -10  -7  112.82    4.47
   3  10   7  123.77    4.20
   3  10   8    9.53    3.03
  -3 -10  -8    5.47    3.06
   3  10   8    4.76    1.85
   3  10   9   57.49    5.55
  -3 -10  -9   62.66    4.91
   3  10   9   56.25    4.91
   3  10  10   10.51    3.45
  -3 -10 -10    9.94    2.40
   3  10  11    6.39    3.30
  -3 -10 -11    5.64    2.17
   3  10  12   36.24    5.66
  -3 -10 -12   29.86    6.62
  -3 -11   1    6.00    3.47
   3  11  -1    0.42    1.91
   3  11   0    1.43    0.87
  -3 -11   0    2.71    2.87
   3  11   0    1.80    1.43
   3  11   1    6.86    2.51
   3  11   1    7.01    3.33
   3  11   2   27.29    3.21
  -3 -11  -2   30.37    3.60
   3  11   2   29.16    5.12
   3  11   3   14.08    2.56
  -3 -11  -3   11.87    3.30
   3  11   3    9.56    1.95
   3  11   4    0.13    1.97
  -3 -11  -4    5.90    3.23
   3  11   4    2.34    1.28
   3  11   5   21.16    2.81
  -3 -11  -5   17.10    3.37
   3  11   5   16.20    3.80
   3  11   6   29.79    4.29
  -3 -11  -6   13.80    2.93
   3  11   6   14.32    3.21
   3  11   7   18.94    2.70
  -3 -11  -7   11.24    2.54
   3  11   7   15.76    2.79
   3  11   8   15.63    4.09
  -3 -11  -8   23.50    7.33
   3  11   8   14.76    4.08
   3  11   9    6.46    4.02
  -3 -11  -9   -3.04    2.00
  -3 -11 -10   12.09    3.42
   3  11  11   86.68   10.40
  -3 -11 -11   44.76    9.24
   3  12   2   17.67    3.65
  -3 -12  -2   16.83    3.93
   3  12   2   22.74    5.80
   3  12   3    2.98    1.68
  -3 -12  -3    4.18    2.99
   3  12   3    4.10    1.70
   3  12   4   41.46    3.41
  -3 -12  -4   41.73    4.71
   3  12   4   32.53    7.68
   3  12   5    4.15    2.50
  -3 -12  -5    1.76    3.02
   3  12   5    2.76    1.47
   3  12   6    6.09    2.25
  -3 -12  -6    7.20    2.99
   3  12   6    4.23    2.39
   3  12   7    7.08    3.81
  -3 -12  -7    3.77    2.47
   3  12   7    2.58    1.41
   3  12   8    2.31    3.55
  -3 -12  -8    5.00    2.64
   3  12   8    3.01    1.00
   3  12   9   64.45    7.78
  -3 -12  -9   66.55    7.81
  -4  12   6   50.51    9.40
   4 -12  -6   44.17    6.06
   4 -12  -6   52.61    6.16
  -4  12   5    4.10    2.11
   4 -12  -5    7.34    3.76
   4 -12  -5    3.61    2.20
  -4  12   4    5.23    2.91
   4 -12  -4   10.60    3.15
   4 -12  -4    9.59    2.96
  -4  11   9    8.19    2.25
   4 -11  -9   10.32    3.95
  -4  11   8   45.12    5.67
   4 -11  -8   46.40    4.99
  -4  11   7   33.56    6.36
   4 -11  -7   29.15    5.58
  -4  11   6    6.83    2.57
   4 -11  -6    4.84    2.63
   4 -11  -6    5.22    2.44
  -4  11   5    4.93    3.76
   4 -11  -5   11.16    3.49
   4 -11  -5    7.63    2.97
  -4  11   4    7.33    2.84
   4 -11  -4   11.36    3.28
   4 -11  -4    7.50    3.35
  -4  11   3   15.10    3.70
   4 -11  -3   21.11    4.51
   4 -11  -3   16.07    2.81
  -4  11   2    9.83    2.48
   4 -11  -2    4.31    2.01
   4 -11  -2    0.51    2.56
   4 -11  -1   10.95    3.02
   4 -11  -1   14.50    4.10
  -4  11   0   14.98    2.91
   4 -11   0   14.27    3.41
   4 -11   0   11.25    3.70
  -4  10  10    4.32    2.80
   4 -10 -10   -2.00    2.32
  -4  10   9   43.74    9.69
   4 -10  -9   47.99    8.61
  -4  10   8    6.27    2.14
   4 -10  -8    6.85    2.92
  -4  10   7   19.58    2.79
   4 -10  -7   24.35    3.61
   4 -10  -7   26.67    2.88
  -4  10   6   24.64    4.74
   4 -10  -6   29.32    3.32
   4 -10  -6   30.12    2.58
  -4  10   5   17.80    3.48
   4 -10  -5   15.93    3.28
   4 -10  -5   19.39    3.03
  -4  10   4  157.40   19.49
   4 -10  -4  157.72   13.05
   4 -10  -4  163.00   10.32
  -4  10   3   60.75   10.43
   4 -10  -3   54.00    6.77
   4 -10  -3   62.38    5.56
  -4  10   2    8.60    2.95
   4 -10  -2    2.85    2.07
   4 -10  -2    4.88    3.06
  -4  10   1   14.25    3.00
   4 -10  -1   16.35    2.64
   4 -10  -1   10.08    2.90
  -4  10   0   12.54    3.34
   4 -10   0   20.98    5.16
   4 -10   0   25.63    3.37
  -4  10  -1    6.63    1.98
   4 -10   1    0.28    1.93
   4 -10   1    7.13    3.12
  -4  10  -2    3.03    1.64
   4 -10   2    4.21    2.06
   4 -10   2   10.10    3.41
  -4   9  11    4.69    1.73
   4  -9 -11   -1.94    1.96
  -4   9  10    3.73    2.38
   4  -9 -10    6.95    1.91
  -4   9   9    4.73    2.18
   4  -9  -9    5.42    1.77
  -4   9   8   42.03    6.56
   4  -9  -8   44.49    4.96
  -4   9   7    8.64    2.72
   4  -9  -7    1.09    1.77
   4  -9  -7    5.82    2.16
  -4   9   6  203.42   21.97
   4  -9  -6  225.98   20.95
   4  -9  -6  213.25   10.41
  -4   9   5    1.31    1.19
   4  -9  -5    3.98    2.21
   4  -9  -5    4.70    3.11
  -4   9   4    6.86    2.51
   4  -9  -4    4.47    2.48
   4  -9  -4    6.29    2.59
  -4   9   3  187.29   17.10
   4  -9  -3  150.26   11.26
   4  -9  -3  165.71    9.03
  -4   9   2   71.33    8.10
   4  -9  -2   78.43    7.31
   4  -9  -2   76.38    5.46
  -4   9   1   14.69    2.90
   4  -9  -1    8.09    2.12
   4  -9  -1   11.79    3.10
  -4   9   0    3.29    2.02
   4  -9   0    7.67    2.29
   4  -9   0    6.83    2.95
  -4   9  -1    8.02    3.04
   4  -9   1    4.00    2.54
   4  -9   1   14.83    4.59
  -4   9  -2   34.72    3.85
   4  -9   2   32.65    3.63
   4  -9   2   35.69    4.72
  -4   9  -3    7.59    2.42
   4  -9   3    9.40    2.70
   4  -9   3    9.33    4.56
  -4   9  -4    5.09    2.18
   4  -9   4    1.14    1.39
   4  -9   4    5.94    4.51
  -4   8  11   40.57    6.64
   4  -8 -11   60.68    8.26
  -4   8  10   19.77    5.71
   4  -8 -10   23.47    7.85
  -4   8   9   28.91    4.45
   4  -8  -9   29.92    4.41
  -4   8   8   12.47    3.77
   4  -8  -8   16.43    2.50
   4  -8  -8    9.09    1.54
  -4   8   7   95.57   10.15
   4  -8  -7   93.26    9.12
   4  -8  -7   75.57    4.57
  -4   8   6  171.67   17.14
   4  -8  -6  170.31   13.90
   4  -8  -6  146.06    4.40
  -4   8   5   48.22    5.35
   4  -8  -5   34.63    4.96
   4  -8  -5   30.99    2.91
  -4   8   4   60.42    6.55
   4  -8  -4   55.91    8.86
   4  -8  -4   38.07    3.74
  -4   8   3   93.81    7.66
   4  -8  -3   92.00   11.51
   4  -8  -3   92.49    5.30
  -4   8   2  198.93   16.48
   4  -8  -2  204.69   17.55
   4  -8  -2  189.36    9.37
  -4   8   1   32.37    4.39
   4  -8  -1   41.71    6.72
   4  -8  -1   36.98    4.13
  -4   8   0  105.47   14.72
   4  -8   0   98.94    9.83
   4  -8   0   94.38    4.80
   4  -8   1  526.31   23.96
   4  -8   1  546.87    9.68
  -4   8  -2  241.35   19.66
   4  -8   2  251.24    5.66
   4  -8   2  245.55    6.94
  -4   8  -3    2.59    1.49
   4  -8   3    6.24    2.36
   4  -8   3    2.28    3.15
  -4   8  -4    3.30    2.16
   4  -8   4    1.92    1.53
   4  -8   4    2.57    3.14
  -4   8  -5    6.94    2.62
   4  -8   5    7.70    3.42
   4  -7 -12    7.50    2.72
  -4   7  11   16.81    3.03
   4  -7 -11   17.34    3.80
  -4   7  10   59.46    7.72
  -4   7   9   22.72    3.48
   4  -7  -9   21.51    3.63
  -4   7   8   50.76    4.58
   4  -7  -8   48.43    6.09
   4  -7  -8   44.07    2.20
  -4   7   7  245.36   11.37
   4  -7  -7  275.57   22.32
   4  -7  -7  249.42   10.79
  -4   7   6  384.19   14.04
   4  -7  -6  385.13   13.85
   4  -7  -6  375.73   13.02
  -4   7   5   78.85   12.65
   4  -7  -5   70.75    8.53
   4  -7  -5   70.85    7.36
  -4   7   4    3.87    1.86
   4  -7  -4    6.64    1.75
   4  -7  -4    3.09    2.29
  -4   7   3   95.26   11.79
   4  -7  -3  104.60   18.87
   4  -7  -3  110.43    5.38
  -4   7   2   13.42    3.27
   4  -7  -2   10.67    2.05
   4  -7  -2    7.88    3.94
  -4   7   1   29.43    4.58
   4  -7  -1   31.11    3.96
   4  -7  -1   24.73    3.39
  -4   7   0   22.32    4.47
   4  -7   0   20.78    3.60
   4  -7   0   13.20    4.60
  -4   7  -1  127.26   12.21
   4  -7   1  130.88    9.57
   4  -7   1  108.43    5.84
   4  -7   2  182.00    8.51
  -4   7  -3   45.44    8.37
   4  -7   3   42.05    2.73
   4  -7   3   44.47    4.91
  -4   7  -4   12.87    3.29
   4  -7   4   21.32    2.82
   4  -7   4   20.28    3.99
  -4   7  -5    3.66    1.55
   4  -7   5    3.65    1.50
   4  -7   5    3.64    3.19
  -4   7  -6   51.06   12.66
   4  -7   6   80.28   12.34
   4  -7   7    5.17    3.02
   4  -6 -12   12.83    3.30
  -4   6  11    4.67    1.38
   4  -6 -11    9.82    3.28
  -4   6  10    2.63    1.90
  -4   6   9   22.36    3.18
   4  -6  -9   30.42    4.26
   4  -6  -9   15.60    2.83
  -4   6   8   27.76    5.24
   4  -6  -8   26.87    3.96
   4  -6  -8   28.97    2.19
  -4   6   7    8.00    2.50
   4  -6  -7   14.89    4.24
   4  -6  -7    6.31    1.50
  -4   6   6   43.95    7.12
   4  -6  -6   40.65    6.11
   4  -6  -6   32.96    3.52
  -4   6   5  161.91   12.87
   4  -6  -5  145.74   14.20
   4  -6  -5  127.40    5.96
  -4   6   4   22.34    3.35
   4  -6  -4   21.95    4.43
   4  -6  -4   29.17    3.98
  -4   6   3  217.26   17.08
   4  -6  -3  202.91    7.92
   4  -6  -3  208.08    8.17
  -4   6   2  157.70   15.07
   4  -6  -2  157.71   14.28
   4  -6  -2  150.23    6.55
  -4   6   1    3.77    1.94
   4  -6  -1    2.47    1.13
   4  -6  -1    1.18    2.61
  -4   6   0    6.20    2.16
   4  -6   0    1.24    1.02
   4  -6   0    7.07    4.52
  -4   6  -1   79.51    9.94
   4  -6   1   96.41    7.65
   4  -6   1   86.68    5.14
  -4   6  -2    4.97    1.95
   4  -6   2    4.95    1.62
   4  -6   2    3.70    2.89
  -4   6  -3   26.83    3.99
   4  -6   3   17.77    1.84
   4  -6   3   17.12    2.66
  -4   6  -4   32.98    3.44
   4  -6   4   28.28    1.97
   4  -6   4   25.79    4.08
  -4   6  -5  131.51   16.51
   4  -6   5  162.86    3.91
   4  -6   5  150.09    6.27
  -4   6  -6   13.71    3.67
   4  -6   6   12.20    3.17
  -4   6  -7   10.17    3.01
   4  -6   7   14.56    4.54
  -4   6  -8    1.51    1.20
   4  -6   8    5.86    2.88
   4  -5 -12   12.17    3.86
   4  -5 -11   36.69    5.42
  -4   5  10   18.71    3.03
   4  -5 -10   23.95    4.78
  -4   5   9    5.79    1.43
   4  -5  -9    7.57    2.02
   4  -5  -9    5.19    0.98
  -4   5   8   82.05    6.83
   4  -5  -8   84.26    8.42
   4  -5  -8   77.29    7.16
  -4   5   7    1.17    1.17
   4  -5  -7    4.75    1.45
   4  -5  -7    1.61    1.20
  -4   5   6  201.46   15.74
   4  -5  -6  177.32   15.86
   4  -5  -6  173.77    7.41
  -4   5   5  105.68    6.22
   4  -5  -5  112.43    9.95
   4  -5  -5  106.38    5.13
  -4   5   4  202.28    7.57
   4  -5  -4  243.26   18.67
   4  -5  -4  196.07    7.49
  -4   5   3   13.29    2.22
   4  -5  -3   20.73    3.30
   4  -5  -3   14.59    3.13
  -4   5   2  833.77   73.28
   4  -5  -2  798.60   26.04
   4  -5  -2  832.68   72.55
  -4   5   1  196.46    7.83
   4  -5  -1  159.51    6.70
   4  -5  -1  167.24    6.95
  -4   5   0   47.06    7.46
   4  -5   0   48.05    7.74
   4  -5   0   35.74    5.00
  -4   5  -1   34.17    5.01
   4  -5   1   27.95    3.84
   4  -5   1   22.74    3.35
  -4   5  -2   31.69    5.68
   4  -5   2   27.92    5.61
   4  -5   2   23.24    4.10
  -4   5  -3   67.38   10.65
   4  -5   3   65.29    7.19
   4  -5   3   58.21    6.37
  -4   5  -4   42.03    6.52
   4  -5   4   31.81    5.03
  -4   5  -5   26.44    3.60
   4  -5   5   23.94    1.59
   4  -5   5   30.99    3.99
  -4   5  -6  243.03    6.16
   4  -5   6  246.00    3.90
   4  -5   6  239.83    7.00
  -4   5  -7    1.55    1.00
   4  -5   7    5.05    3.00
  -4   5  -8    8.29    1.60
   4  -5   8   11.69    3.16
   4  -5   9   20.11    4.47
   4  -4 -12   -0.62    1.67
   4  -4 -11  104.28   13.01
  -4   4  10    6.50    1.16
   4  -4 -10    9.09    2.28
  -4   4   9   89.37    8.91
   4  -4  -9   93.48    2.31
  -4   4   8   68.77    8.92
   4  -4  -8   74.06   10.21
   4  -4  -8   51.26    9.06
  -4   4   7  148.42    6.47
   4  -4  -7  179.85   12.54
   4  -4  -7  168.02    6.07
  -4   4   6   53.70    6.97
   4  -4  -6   62.88    7.83
   4  -4  -6   60.04    3.63
  -4   4   5    2.50    0.96
   4  -4  -5    4.89    2.05
   4  -4  -5    3.10    2.85
  -4   4   4  344.10   12.18
   4  -4  -4  345.05   12.05
   4  -4  -4  342.45   11.83
  -4   4   3  413.40   14.59
   4  -4  -3  407.18   13.14
   4  -4  -3  399.32   13.02
  -4   4   2  119.00    7.54
   4  -4  -2   96.92    6.10
   4  -4  -2   94.02    4.52
  -4   4   1   78.39    7.22
   4  -4  -1   95.22    8.95
   4  -4  -1   67.28    5.62
  -4   4   0    4.29    1.48
   4  -4   0    3.19    1.13
  -4   4   0    5.90    1.70
   4  -4   0    8.31    3.33
  -4   4  -1  328.09   11.61
   4  -4   1  320.43   10.26
  -4   4  -1  301.41    9.67
  -4   4  -2   24.76    4.22
   4  -4   2   28.18    4.50
  -4   4  -2   18.96    2.42
   4  -4   2   17.10    3.50
  -4   4  -3  131.95   11.67
   4  -4   3  118.59    5.54
  -4   4  -3  117.43    4.31
   4  -4   3  127.57    6.26
   4  -4   4   17.75    3.62
  -4   4  -4   12.70    2.13
   4  -4   4   18.07    4.52
  -4   4  -5   -0.58    2.06
   4  -4   5    1.08    0.58
   4  -4   5   -0.30    3.14
  -4   4  -6   74.65    9.05
   4  -4   6   79.61    2.05
   4  -4   6   84.10    4.49
  -4   4  -7   29.29    5.95
   4  -4   7   38.66    5.77
  -4   4  -8   28.95    4.67
   4  -4   8   18.10    3.27
  -4   4  -9    4.34    1.88
   4  -4   9    1.36    2.58
   4  -3 -12    0.87    2.38
   4  -3 -11    3.89    1.60
   4  -3 -10   57.48    8.55
   4  -3 -10   45.86    7.11
  -4   3   9   52.78    2.11
   4  -3  -9   53.33    5.24
   4  -3  -9   46.55    5.74
  -4   3   8  127.78    4.83
   4  -3  -8  140.55   10.76
   4  -3  -8  123.79    4.82
  -4   3   7   29.27    5.63
   4  -3  -7   24.68    3.73
   4  -3  -7   36.22    7.12
   4  -3  -7   27.06    6.04
  -4   3   6   93.30    5.86
   4  -3  -6   76.64    3.23
   4  -3  -6   70.86    7.69
   4  -3  -6   74.79    9.76
  -4   3   5   30.01    5.46
   4  -3  -5   22.64    2.88
   4  -3  -5   26.21    4.32
   4  -3  -5   23.66    3.55
  -4   3   4  117.16    4.58
   4  -3  -4  108.40    4.41
   4  -3  -4  110.63    7.18
   4  -3  -4  121.21    4.93
  -4   3   3  185.94    8.36
   4  -3  -3  155.51    4.73
   4  -3  -3  197.83   12.47
   4  -3  -3  177.30    6.03
  -4   3   2   19.57    3.01
   4  -3  -2   18.14    2.10
   4  -3  -2   15.48    2.28
  -4   3   1   11.60    2.17
   4  -3  -1   16.32    2.72
  -4   3   1    9.33    1.36
   4  -3  -1    7.83    1.69
  -4   3   0   25.30    3.90
   4  -3   0   23.40    2.59
  -4   3   0   19.41    1.58
   4  -3   0   24.96    2.87
  -4   3  -1  108.21    8.56
   4  -3   1  105.32    3.45
  -4   3  -1   96.31    3.19
   4  -3   1   99.36    4.58
  -4   3  -2   74.27    8.11
   4  -3   2   71.37    6.69
  -4   3  -2   57.67    4.17
   4  -3   2   49.19    4.79
  -4   3  -3  258.93   12.30
   4  -3   3  256.35    9.04
  -4   3  -3  248.03    8.23
   4  -3   3  276.56   10.30
  -4   3  -4  680.30   21.77
   4  -3   4  648.13   19.82
  -4   3  -4  641.24   19.27
   4  -3   4  682.74   21.98
  -4   3  -5   13.63    3.06
   4  -3   5    7.77    1.40
   4  -3   5    7.49    1.54
   4  -3   5    5.23    3.40
  -4   3  -6    2.03    1.55
   4  -3   6    0.98    0.72
   4  -3   6    4.20    2.99
  -4   3  -7    2.78    1.70
   4  -3   7    1.93    3.28
  -4   3  -8    7.13    1.60
   4  -3   8    7.25    3.19
  -4   3  -9    4.01    2.23
   4  -3   9    6.11    3.01
  -4   3 -10    5.13    2.23
   4  -3  10   11.92    4.40
   4  -2 -12    6.40    2.78
   4  -2 -11    8.71    2.65
   4  -2 -10    4.22    2.33
   4  -2 -10    3.98    1.48
   4  -2  -9    4.23    1.30
   4  -2  -9    2.58    1.72
  -4   2   8    1.22    0.53
   4  -2  -8    2.54    1.08
   4  -2  -8    2.24    1.16
  -4   2   7  235.99    7.71
   4  -2  -7  225.05    7.28
   4  -2  -7  256.71    9.56
   4  -2  -7  251.41    9.00
  -4   2   6  208.61    6.88
   4  -2  -6  199.57    6.48
   4  -2  -6  219.25    8.31
   4  -2  -6  211.32    7.51
  -4   2   5    9.04    1.88
   4  -2  -5    7.99    1.39
   4  -2  -5    7.91    2.13
   4  -2  -5    7.73    1.72
  -4   2   4   50.45    4.21
   4  -2  -4   45.15    3.49
   4  -2  -4   56.32    5.72
   4  -2  -4   56.24    4.64
  -4   2   3  135.14    6.17
   4  -2  -3  120.71    3.79
   4  -2  -3  131.98   10.45
   4  -2  -3  134.59    5.02
  -4   2   2  257.15    7.14
   4  -2  -2  216.03   13.13
   4  -2  -2  247.29    8.10
   4  -2  -2  245.93    7.25
  -4   2   1  138.68    7.53
   4  -2  -1  158.38    5.45
   4  -2  -1  136.67    3.94
  -4   2   1  131.77    6.13
   4  -2  -1  147.96    4.84
  -4   2   0    9.66    1.51
   4  -2   0    8.55    1.39
  -4   2   0    5.33    0.84
  -4   2  -1   24.39    4.12
   4  -2   1   23.24    2.55
  -4   2  -1   13.06    1.11
   4  -2   1   19.69    2.92
  -4   2  -2   -0.33    2.06
   4  -2   2    1.37    0.57
   4  -2   2    4.96    2.77
  -4   2  -3   13.06    1.83
   4  -2   3   11.22    1.67
  -4   2  -3    7.14    0.95
   4  -2   3   14.94    3.26
  -4   2  -4  129.86    9.31
   4  -2   4  119.63    4.50
  -4   2  -4  118.96    4.02
   4  -2   4  112.78    5.63
  -4   2  -5  292.16   10.25
   4  -2   5  273.92    8.20
   4  -2   5  282.42    8.43
   4  -2   5  301.47   11.13
  -4   2  -6    1.76    1.44
   4  -2   6   -0.94    3.43
  -4   2  -7  126.42   10.31
   4  -2   7  115.49    6.67
  -4   2  -8    2.06    1.30
   4  -2   8    7.49    3.23
  -4   2  -9   89.33   11.13
   4  -2   9  100.63    7.63
  -4   2 -10   17.35    3.79
   4  -2  10   17.00    4.19
   4  -2  11   63.33    7.60
   4  -2  11   95.98   10.96
   4  -1 -11   19.00    4.17
   4  -1 -10    1.78    1.81
   4  -1 -10    1.64    1.07
   4  -1  -9    4.80    1.91
   4  -1  -9    8.18    1.05
   4  -1  -8    1.01    1.02
   4  -1  -7  397.31   13.65
   4  -1  -7  411.27   13.52
  -4   1   6  101.06    3.20
   4  -1  -6  103.52    3.33
   4  -1  -6  134.74   10.82
   4  -1  -6  107.48   10.60
  -4   1   5    1.87    0.74
   4  -1  -5    2.34    0.83
   4  -1  -5    0.82    1.39
   4  -1  -5   -0.36    1.53
  -4   1   4   36.09    4.55
   4  -1  -4   33.08    2.49
   4  -1  -4   37.88    6.02
   4  -1  -4   37.12    4.65
  -4   1   3   36.84    2.86
   4  -1  -3   34.45    2.02
   4  -1  -3   40.37    6.93
   4  -1  -3   35.20    2.98
  -4   1   2  431.11   10.79
   4  -1  -2  407.81    8.24
   4  -1  -2  445.37    9.52
   4  -1  -2  434.68    9.73
  -4   1   1  707.42   15.84
   4  -1  -1  715.73   14.06
   4  -1  -1  709.45   15.47
  -4   1   1  651.47   12.85
   4  -1  -1  715.89   14.67
  -4   1   0 5517.73  101.84
   4  -1   0 5015.07   91.66
   4  -1   0 5201.78   94.18
  -4   1   0 5375.97   97.67
  -4   1  -1  709.73   15.45
   4  -1   1  704.30   14.09
  -4   1  -1  723.12   13.91
   4  -1   1  716.48   15.02
  -4   1  -2  239.05    7.41
   4  -1   2  232.33    6.41
  -4   1  -2  235.76    6.14
   4  -1   2  235.65    7.48
  -4   1  -3    3.41    1.55
   4  -1   3    1.58    0.47
  -4   1  -3    0.09    0.39
   4  -1   3   -1.48    2.86
  -4   1  -4   14.51    2.29
   4  -1   4   15.89    4.38
  -4   1  -5   76.32   11.64
   4  -1   5   76.48    7.63
   4  -1   6  156.16    6.92
  -4   1  -7   70.20    9.45
   4  -1   7   84.31    8.92
  -4   1  -8  486.97   21.08
   4  -1   8  533.79   38.35
  -4   1  -9  157.23    8.47
   4  -1   9  180.68   10.11
   4  -1  10   19.36    3.36
   4  -1  10   15.83    3.04
   4  -1  11    2.54    3.58
   4  -1  11    6.50    3.18
   4   0 -11   75.79    4.78
   4   0 -10    8.70    2.89
   4   0 -10    9.83    2.36
   4   0  -9   80.03    6.05
   4   0  -9   52.88    9.28
   4   0  -8   70.53   11.57
   4   0  -7 1117.45  102.01
   4   0  -7 1063.52   35.12
   4   0  -6   71.40   11.60
   4   0  -6   70.79    7.94
   4   0  -5   39.59    7.33
   4   0  -5   40.42    6.07
  -4   0   4   85.44    2.80
   4   0  -4   95.04    3.01
   4   0  -4  103.78   11.27
   4   0  -4   91.93    9.00
  -4   0   3    2.82    0.49
   4   0  -3    2.40    0.55
   4   0  -3    5.43    1.89
  -4   0   2    2.93    0.61
   4   0  -2    2.60    0.47
   4   0  -2    2.57    1.54
   4   0  -2    7.31    2.77
  -4   0   1   76.28    7.17
   4   0  -1   74.50    8.83
   4   0  -1   94.25    6.48
  -4   0   1   70.59    8.03
   4   0  -1   85.11    6.32
  -4   0   0  281.08    6.25
   4   0   0  278.61    6.11
   4   0   0  280.26    6.74
  -4   0   0  272.16    5.88
   4   0   0  275.08    6.73
  -4   0  -1 6917.80  290.25
   4   0   1 6238.19  113.34
   4   0   1 6640.62  277.87
  -4   0  -1 6476.41  116.81
   4   0   1 6948.45  291.26
  -4   0  -2 1727.19   32.71
   4   0   2 1642.99   30.17
  -4   0  -2 1645.50   30.28
   4   0   2 1752.89   33.32
  -4   0  -3   99.08    8.22
  -4   0  -3   76.73    3.54
  -4   0  -3   81.11    3.63
   4   0   3   84.61    6.74
  -4   0  -4   37.48    3.57
   4   0   4   33.40    3.32
  -4   0  -5   81.54    9.59
   4   0   5   70.93    5.92
  -4   0  -6    6.07    1.77
   4   0   6   13.60    4.12
  -4   0  -7    4.72    2.07
   4   0   7    3.72    2.95
  -4   0  -8  109.75    5.62
   4   0   8  130.78    6.74
   4   0   9   88.52    4.58
   4   0   9   90.50    4.89
   4   0  10   30.61    4.69
   4   0  10   25.85    3.54
   4   0  11    2.27    2.63
   4   0  11    4.52    2.28
   4   0  12    3.02    2.39
   4   0  12    2.62    1.89
  -4  -1  11    0.84    2.71
   4   1 -11    2.64    1.31
   4   1 -10   62.94   11.72
   4   1  -9   14.56    3.53
   4   1  -9   14.16    3.00
   4   1  -8   29.88    3.75
   4   1  -8   17.22    2.82
   4   1  -7    5.27    1.72
   4   1  -7    6.11    2.40
   4   1  -6   28.37    4.90
   4   1  -6   33.52    5.76
   4   1  -5  125.78    5.50
   4   1  -5  111.90   13.24
   4   1  -4  309.31   11.12
   4   1  -4  312.86   11.11
   4   1  -3   98.38    3.04
   4   1  -3   97.18    3.03
   4   1  -3  115.43   10.00
   4   1  -3   97.61   12.40
   4   1  -2   27.03    3.14
   4   1  -2   28.95    1.69
   4   1  -2   30.04    3.97
   4   1  -2   31.74    3.67
   4   1  -1   14.53    1.97
   4   1  -1   17.16    2.66
  -4  -1   0   89.23    5.88
   4   1   0   84.29    8.19
   4   1   0   89.12    5.90
  -4  -1   0   90.11    7.46
   4   1   0   93.74    6.67
  -4  -1  -1    1.76    0.72
   4   1   1    4.97    1.15
   4   1   1    0.10    0.88
  -4  -1  -1    2.07    0.74
   4   1   1    6.17    3.32
  -4  -1  -2  561.27   12.03
  -4  -1  -2  557.59   10.85
  -4  -1  -2  610.92   11.78
   4   1   2  575.53   12.44
  -4  -1  -3   25.15    2.52
  -4  -1  -3   18.10    1.86
  -4  -1  -3   18.12    1.22
   4   1   3   26.78    3.75
  -4  -1  -4  235.91    7.09
   4   1   4  229.99    7.74
  -4  -1  -5   25.53    3.03
   4   1   5   21.46    2.66
  -4  -1  -6    3.92    2.00
   4   1   6    3.00    3.61
   4   1   7    1.64    3.18
   4   1   7    3.21    3.42
   4   1   8  211.73    9.04
   4   1   8  231.89    8.79
   4   1   9   89.05    5.67
   4   1   9   94.48    5.45
   4   1  10   -3.37    3.02
   4   1  10    0.28    2.21
   4   1  11   16.06    2.96
   4   1  11   17.42    2.48
   4   1  12    2.37    2.57
   4   1  12    6.11    2.59
   4   2 -10   26.16    6.02
  -4  -2   9   59.66    4.59
   4   2  -9   44.07    6.83
  -4  -2   8   34.05    4.66
   4   2  -8   22.05    4.34
  -4  -2   7  143.25    5.92
   4   2  -7  118.17   11.44
   4   2  -6   41.60    9.02
   4   2  -4    0.70    1.87
   4   2  -4    0.38    1.81
   4   2  -3  473.90   15.35
   4   2  -3  493.57   15.81
   4   2  -2 1172.28   76.99
   4   2  -2 1161.43   28.00
   4   2  -2 1111.79   28.06
   4   2  -2 1166.57   78.14
   4   2  -1   83.19    3.94
   4   2  -1   78.11    3.86
  -4  -2   1   83.32    4.71
   4   2  -1   82.40    4.65
   4   2   0  106.83    5.56
   4   2   0  133.76    4.33
  -4  -2   0  106.29    6.31
  -4  -2   0  133.93    4.88
   4   2   0  144.19   14.49
   4   2   1   18.01    2.36
   4   2   1   30.43    2.87
  -4  -2  -1   20.87    2.36
  -4  -2  -1   22.00    2.34
   4   2   1   29.57    3.38
   4   2   2   70.99    8.64
   4   2   2   98.06    6.74
  -4  -2  -2   93.05    8.00
  -4  -2  -2   97.20    6.52
   4   2   2   96.83    7.25
   4   2   3   33.21    3.09
  -4  -2  -3   27.86    2.97
  -4  -2  -3   28.32    1.80
   4   2   3   35.21    3.29
   4   2   4   91.33    4.27
  -4  -2  -4   78.96    3.73
  -4  -2  -4   84.91    5.84
   4   2   4   82.73    5.13
  -4  -2  -5  173.43    5.14
  -4  -2  -5  151.23    4.50
   4   2   5  181.57    6.97
   4   2   6   97.86    5.83
   4   2   6   93.46    4.84
   4   2   7   23.60    3.58
   4   2   7   10.58    2.22
   4   2   8    3.81    3.07
   4   2   8    4.49    3.15
   4   2   9   69.99    6.71
   4   2   9   71.85    4.46
   4   2  10   87.30    6.49
   4   2  10   79.90    5.02
   4   2  11   28.06    4.53
   4   2  11   22.74    2.96
   4   2  12    5.64    3.53
  -4  -3   9  134.45   18.60
   4   3  -9  104.08   20.48
  -4  -3   8    6.75    3.94
   4   3  -8    5.13    1.91
  -4  -3   7  175.09   10.34
   4   3  -7  148.02   13.05
  -4  -3   6  106.02    6.62
   4   3  -6   89.57   12.17
  -4  -3   5   49.13    5.90
   4   3  -5   51.83    5.75
  -4  -3   4   13.36    4.37
   4   3  -4    4.37    1.70
  -4  -3   3   13.49    3.49
   4   3  -3   16.69    3.80
   4   3  -2  291.95    9.06
   4   3  -2  293.43    8.90
  -4  -3   2  294.90   10.32
   4   3  -2  305.96   10.47
   4   3  -1   25.99    3.18
   4   3  -1   33.89    2.77
  -4  -3   1   31.21    3.14
   4   3  -1   32.80    5.79
   4   3   0  156.52    8.48
   4   3   0  161.71    4.86
  -4  -3   0  170.09    5.96
   4   3   0  171.93    6.30
   4   3   1  108.85    4.28
  -4  -3  -1   99.65    3.38
  -4  -3  -1   98.13    3.98
   4   3   1  111.77   10.39
   4   3   2    9.19    1.58
   4   3   2    4.99    2.03
  -4  -3  -2    8.94    1.27
  -4  -3  -2    7.44    1.32
   4   3   2   11.25    1.43
   4   3   3   78.29    4.60
  -4  -3  -3   84.52    7.32
  -4  -3  -3   83.27    4.39
   4   3   3   90.31    4.32
   4   3   4   59.44    4.54
  -4  -3  -4   49.34    4.05
  -4  -3  -4   53.77    2.87
   4   3   4   63.65    4.50
   4   3   5  635.04   20.15
  -4  -3  -5  535.98   15.97
  -4  -3  -5  595.00   17.81
   4   3   5  592.33   18.62
   4   3   6   -2.07    3.16
  -4  -3  -6    1.12    0.56
  -4  -3  -6    2.33    0.72
   4   3   6    6.19    2.73
   4   3   7   18.22    4.46
  -4  -3  -7    6.22    0.98
  -4  -3  -7    7.37    1.01
   4   3   7   15.23    2.34
   4   3   8   81.27    8.62
   4   3   8   78.43    7.45
   4   3   9    1.73    2.94
   4   3   9    5.29    2.62
   4   3  10  160.33    9.65
   4   3  10  159.46    8.08
   4   3  11    6.53    3.25
   4   3  11    7.43    2.37
   4   3  12   40.89    4.10
   4   3  13   11.58    3.30
  -4  -4   9   15.62    4.12
   4   4  -9    6.64    2.85
  -4  -4   8   -2.39    2.81
   4   4  -8    3.16    1.63
  -4  -4   7    6.23    2.79
   4   4  -7    4.68    2.30
  -4  -4   6    5.54    3.19
   4   4  -6    2.59    1.76
  -4  -4   5  141.07    8.47
   4   4  -5  135.38   16.83
  -4  -4   4  129.99    6.25
   4   4  -4  126.37   16.19
   4   4  -3   67.28    9.23
   4   4  -2    2.77    0.47
   4   4  -2    3.88    0.79
  -4  -4   2    8.75    3.09
   4   4  -1   36.53    5.13
   4   4  -1   51.15    6.01
  -4  -4   1   56.84    7.65
   4   4  -1   51.69    8.07
   4   4   0    7.79    1.81
   4   4   0   10.75    1.50
  -4  -4   0    9.99    2.41
   4   4   0   10.53    2.40
   4   4   1  211.98    7.99
   4   4   1  237.66    8.01
  -4  -4  -1  235.36    8.03
   4   4   1  253.90    9.37
   4   4   2    2.31    2.08
  -4  -4  -2   13.18    2.39
   4   4   2    5.67    1.51
   4   4   3 1047.57  114.60
  -4  -4  -3  898.89   27.02
  -4  -4  -3 1007.00   30.44
   4   4   3 1018.26  111.77
   4   4   4  173.99    6.75
  -4  -4  -4  168.72    5.90
   4   4   4  167.49    5.68
   4   4   4  160.32   13.58
   4   4   5  365.58   13.26
  -4  -4  -5  353.72   11.73
   4   4   5  346.24   11.36
   4   4   5  364.80   12.68
   4   4   6  230.70    9.24
  -4  -4  -6  221.88    7.53
   4   4   6  209.20    7.05
   4   4   6  234.48    8.68
   4   4   7   14.80    3.56
  -4  -4  -7    5.09    1.11
   4   4   7    5.13    1.12
   4   4   7    7.46    2.62
   4   4   8   74.32    7.82
  -4  -4  -8   76.77    7.81
   4   4   8   73.86    6.53
   4   4   8   81.98    7.68
   4   4   9    7.03    4.63
  -4  -4  -9    2.02    0.49
   4   4   9    3.38    1.51
   4   4  10    8.40    4.78
   4   4  10    1.47    1.43
   4   4  11   84.55    7.06
   4   4  11   79.54    5.36
   4   4  13   75.37    5.88
  -4  -5   8    3.61    2.83
   4   5  -8    2.17    1.04
  -4  -5   7   40.85    4.28
   4   5  -7   27.88    7.71
  -4  -5   6    8.37    3.04
   4   5  -6    9.17    1.92
  -4  -5   5    4.57    4.32
   4   5  -5    3.28    1.79
  -4  -5   4  271.37   12.57
   4   5  -4  261.68   15.26
   4   5  -3   65.25    7.02
   4   5  -3   68.18    7.48
  -4  -5   3   85.59   10.58
   4   5  -3   73.78   13.82
   4   5  -2    6.92    1.17
   4   5  -2   12.83    2.53
  -4  -5   2    8.12    3.23
   4   5  -2    9.35    2.27
   4   5  -1   68.86    3.04
  -4  -5   1   59.85    2.65
  -4  -5   1   76.67    5.03
   4   5  -1   70.25    8.49
   4   5   0  172.62    6.35
  -4  -5   0  156.16    5.68
  -4  -5   0  177.95    7.71
   4   5   0  165.50   17.87
   4   5   1    4.08    2.00
  -4  -5  -1   -0.85    2.51
   4   5   1    1.59    1.28
   4   5   2   24.38    3.49
  -4  -5  -2   23.18    3.39
   4   5   2   21.90    4.01
   4   5   3  253.76    9.48
  -4  -5  -3  251.53    9.41
   4   5   3  253.08    9.27
   4   5   4  280.00   10.48
  -4  -5  -4  275.75    9.98
   4   5   4  292.57   15.77
   4   5   5  116.57    5.66
  -4  -5  -5  127.28    5.71
   4   5   5   99.93    4.16
   4   5   5  120.98   11.23
   4   5   6  133.44    6.28
  -4  -5  -6  138.90    5.29
   4   5   6  126.15    4.69
   4   5   6  140.91    9.80
  -4  -5  -7    6.02    2.00
   4   5   7    6.64    1.55
   4   5   7    6.67    1.58
   4   5   8  130.28    7.24
  -4  -5  -8  108.71   19.86
   4   5   8  107.63   17.99
   4   5   8  122.14    6.43
   4   5   9   34.95    4.10
  -4  -5  -9   21.42    2.92
   4   5   9   20.70    2.22
   4   5  10   12.93    3.36
   4   5  10    7.72    1.50
   4   5  11   10.20    3.32
   4   5  11    4.32    1.10
   4   5  12    2.90    3.09
   4   5  13   33.35    4.85
  -4  -6   7   60.62    5.09
   4   6  -7   53.00   10.36
  -4  -6   6    8.99    3.22
   4   6  -6    6.57    2.22
  -4  -6   5   73.65    5.97
   4   6  -5   59.80   10.14
  -4  -6   4   27.72    3.85
   4   6  -4   16.35    4.49
   4   6  -3   69.58    5.53
  -4  -6   3   70.15    6.54
   4   6  -3   84.93    9.63
   4   6  -2    1.82    0.72
   4   6  -2    3.02    1.57
   4   6  -1  299.91    9.89
  -4  -6   1  250.11    8.24
  -4  -6   1  313.46   12.14
   4   6  -1  288.94   13.19
   4   6   0   65.13    6.82
  -4  -6   0   38.19    5.65
  -4  -6   0   54.13    8.67
   4   6   0   60.13    9.38
   4   6   1    2.89    1.95
  -4  -6  -1    4.69    2.85
   4   6   1    2.88    1.47
   4   6   2    5.16    2.24
  -4  -6  -2   -0.78    2.50
   4   6   2    0.81    2.20
   4   6   3   11.36    2.73
  -4  -6  -3    7.44    2.70
   4   6   3    8.73    1.74
   4   6   4   26.52    3.61
  -4  -6  -4   34.13    4.35
   4   6   4   42.08    5.68
   4   6   5   84.47    5.30
  -4  -6  -5   87.35    4.43
   4   6   5   89.79    6.77
   4   6   6   21.83    4.37
  -4  -6  -6   23.18    3.80
   4   6   6   27.53    4.88
   4   6   7  244.24    9.65
  -4  -6  -7  263.37    9.18
   4   6   7  242.41    8.98
  -4  -6  -8  328.13   13.84
   4   6   8  316.37   11.06
   4   6   9    7.85    4.81
  -4  -6  -9    1.64    1.02
   4   6   9    4.20    1.07
   4   6  10   15.42    4.39
  -4  -6 -10   10.31    2.01
   4   6  10   10.55    1.47
   4   6  11   53.99    5.15
   4   6  12    7.37    4.56
   4   6  13    7.42    3.05
  -4  -7   6    6.08    3.09
   4   7  -6   10.87    3.31
  -4  -7   5   17.28    3.85
   4   7  -5   12.18    2.00
  -4  -7   4   28.70    4.33
   4   7  -4   34.94    4.83
  -4  -7   3    2.54    2.80
   4   7  -2    3.44    1.21
  -4  -7   2   10.73    4.64
   4   7  -2    1.92    1.53
   4   7  -1  173.57    7.66
  -4  -7   1  174.73    8.92
   4   7  -1  182.19   20.62
   4   7   0  425.25   14.54
  -4  -7   0  425.71   15.39
   4   7   0  448.40   16.09
   4   7   1  421.59   14.03
  -4  -7  -1  394.42   14.09
   4   7   1  423.69   14.73
   4   7   2   10.38    2.93
  -4  -7  -2    3.08    2.62
   4   7   2    5.11    2.39
   4   7   3  412.84   16.77
  -4  -7  -3  378.87   15.67
   4   7   3  383.90   15.75
   4   7   4   24.45    5.02
  -4  -7  -4   32.35    6.09
   4   7   4   29.35    6.78
   4   7   5  203.09    8.13
  -4  -7  -5  216.38    8.11
   4   7   5  229.83   18.82
   4   7   6    9.79    4.42
  -4  -7  -6    3.66    2.10
   4   7   6    1.73    1.40
   4   7   7   64.88    8.52
  -4  -7  -7   62.24    7.23
   4   7   7   49.33    7.51
   4   7   8  360.36   16.06
  -4  -7  -8  351.39   15.54
   4   7   8  361.34   15.22
   4   7   9   66.20    5.87
  -4  -7  -9   49.63    5.44
   4   7   9   40.31    5.15
   4   7  10    7.24    4.10
  -4  -7 -10    5.52    1.20
   4   7  10    3.71    1.05
   4   7  11   22.54    4.15
   4   7  12   64.51   10.51
   4   7  13   33.12    5.49
  -4  -8   5    7.57    3.23
   4   8  -5   12.30    3.74
   4   8  -4   42.35    8.03
  -4  -8   3    4.46    2.91
   4   8  -3    5.80    1.67
   4   8  -2    3.74    1.33
   4   8  -1    1.30    0.54
  -4  -8   1    7.64    3.05
   4   8  -1    3.15    2.33
   4   8   0   10.01    1.83
  -4  -8   0   10.63    4.27
   4   8   0    9.50    2.28
   4   8   1   66.84    4.06
  -4  -8  -1   69.79    6.53
   4   8   1   74.88   11.54
   4   8   2   57.98    4.09
  -4  -8  -2   72.91    5.10
   4   8   2   60.16    7.37
   4   8   3  120.72    5.58
  -4  -8  -3  126.37    6.41
   4   8   3  130.67   11.21
   4   8   4  215.27    8.59
  -4  -8  -4  234.30    9.43
   4   8   4  236.42   13.64
   4   8   5    4.09    2.33
  -4  -8  -5    3.38    2.51
   4   8   5    1.83    1.61
   4   8   6   47.55    4.92
  -4  -8  -6   50.98    4.03
   4   8   6   43.69    5.58
   4   8   7  170.18    6.17
  -4  -8  -7  160.16    4.40
   4   8   7  146.40   13.88
   4   8   8   67.92    5.62
  -4  -8  -8   82.54    5.19
   4   8   8   65.90   10.29
   4   8   9   86.61    4.50
  -4  -8  -9   71.08    9.04
   4   8   9   74.62    6.27
   4   8  10    3.94    2.90
  -4  -8 -10    1.63    1.24
   4   8  10    1.02    0.78
   4   8  11    5.11    3.30
   4   8  12   14.00    5.15
  -4  -9   3   74.92    5.55
   4   9  -3   71.57   14.16
  -4  -9   2    4.68    3.82
   4   9  -2    5.21    2.30
   4   9  -1   25.07    4.56
   4   9  -1   39.09    4.94
   4   9   0    4.23    1.24
  -4  -9   0    7.53    3.25
   4   9   0   12.35    2.65
   4   9   1   50.43    3.53
  -4  -9  -1   50.49    4.14
   4   9   1   40.44    7.30
   4   9   2   29.29    2.56
  -4  -9  -2   21.91    3.45
   4   9   2   23.20    2.76
   4   9   3    5.94    1.38
  -4  -9  -3   11.52    3.00
   4   9   3   13.66    2.88
   4   9   4   33.64    2.94
  -4  -9  -4   29.19    2.81
   4   9   4   37.27    4.26
   4   9   5  316.38    6.99
  -4  -9  -5  294.22    6.61
   4   9   5  278.54   14.34
   4   9   6   20.02    3.44
  -4  -9  -6   14.72    2.51
   4   9   6   17.68    3.18
   4   9   7   50.79    4.66
  -4  -9  -7   44.14    3.38
   4   9   7   54.83    6.44
   4   9   8   30.41    4.24
  -4  -9  -8   28.32    3.74
   4   9   8   23.38    4.77
   4   9   9    4.57    2.92
  -4  -9  -9   -0.12    1.47
   4   9   9    1.58    0.75
  -4  -9 -10    0.78    1.26
   4   9  11   34.93    6.36
  -4  -9 -11   18.15    4.23
   4   9  12    8.92    3.74
  -4 -10   2   11.62    3.69
   4  10  -2    1.70    1.51
  -4 -10   1    5.44    2.88
   4  10  -1    5.17    2.13
   4  10   0   13.95    3.35
  -4 -10   0   14.11    4.21
   4  10   0   19.57    5.17
   4  10   1    1.08    1.34
  -4 -10  -1    4.04    3.19
   4  10   1   -2.80    1.82
   4  10   2    8.53    2.82
  -4 -10  -2   17.78    4.68
   4  10   2   12.45    2.27
   4  10   3    9.47    3.03
  -4 -10  -3    6.39    2.64
   4  10   3    2.69    1.58
   4  10   4    7.83    2.27
  -4 -10  -4   12.46    2.62
   4  10   4    3.29    1.85
   4  10   5   11.19    2.60
  -4 -10  -5   13.18    3.32
   4  10   5    5.63    2.12
   4  10   6    1.28    2.30
  -4 -10  -6    4.27    2.28
   4  10   6    4.83    2.09
   4  10   7    3.99    2.23
  -4 -10  -7    5.20    2.18
   4  10   7    1.24    1.18
   4  10   8    2.61    2.55
  -4 -10  -8    5.42    2.90
   4  10   8    0.87    1.68
   4  10   9  135.67    8.16
  -4 -10  -9   88.25   14.47
   4  10   9  104.04    5.67
   4  10  10    7.28    2.77
  -4 -10 -10    3.71    1.82
   4  10  11   43.02    6.21
  -4 -10 -11   30.09    5.72
  -4 -11   0    2.80    2.89
   4  11   0    6.29    2.11
   4  11   1    4.69    2.04
  -4 -11  -1    8.19    4.44
   4  11   2    5.42    2.19
  -4 -11  -2   10.48    3.47
   4  11   2    3.57    2.63
   4  11   3   45.09    6.76
  -4 -11  -3   48.49    7.97
   4  11   3   38.72    7.93
   4  11   4   21.71    4.58
  -4 -11  -4   23.79    7.67
   4  11   4   19.03    5.64
   4  11   5   49.95    4.89
  -4 -11  -5   48.51    5.12
   4  11   5   41.27    5.71
   4  11   6    1.15    2.14
  -4 -11  -6    6.15    2.57
   4  11   6    5.85    2.15
   4  11   7  114.09   16.05
  -4 -11  -7  106.98   14.91
   4  11   7  109.01   19.78
   4  11   8   35.95    6.67
  -4 -11  -8   56.42    8.58
   4  11   8   36.90    8.71
   4  11   9  110.93    6.57
  -4 -11  -9  100.07    4.73
   4  11  10   26.26    5.58
   4  12   4    9.70    2.45
  -4 -12  -4   14.33    3.35
   4  12   4   12.05    3.23
  -4 -12  -5    6.23    4.18
   4  12   5   -0.53    1.56
   4  12   6   13.99    2.96
  -4 -12  -6   13.23    4.34
   4  12   6    9.60    2.91
   4  12   7   10.71    2.91
  -4 -12  -7   19.66    3.97
   4  12   7    9.37    3.02
  -5  11   6    7.18    4.30
   5 -11  -6    6.10    2.56
  -5  11   5    0.92    2.73
   5 -11  -5    5.44    2.34
   5 -11  -5    3.61    2.16
  -5  11   4   10.96    3.02
   5 -11  -4    0.56    2.23
   5 -11  -4    8.90    3.69
  -5  11   3    6.25    3.61
   5 -11  -3   11.95    3.54
   5 -11  -3   13.58    4.36
  -5  11   2    2.87    2.13
   5 -11  -2   -0.67    1.90
   5 -11  -2    2.14    2.77
  -5  10   8   25.54    3.64
   5 -10  -8   29.57    4.81
  -5  10   7    2.61    1.81
   5 -10  -7   10.24    3.01
   5 -10  -7    5.65    2.68
  -5  10   6    9.20    2.33
   5 -10  -6    5.31    3.80
   5 -10  -6    7.39    2.07
  -5  10   5   22.92    4.32
   5 -10  -5   23.04    5.36
   5 -10  -5   14.91    2.63
  -5  10   4    1.68    1.48
   5 -10  -4    4.50    2.84
   5 -10  -4    3.84    2.63
  -5  10   3  131.61   16.75
   5 -10  -3  134.43   11.87
   5 -10  -3  150.81    9.30
  -5  10   2    6.30    2.86
   5 -10  -2    5.91    1.94
   5 -10  -2    5.39    2.77
  -5  10   1   20.21    4.46
   5 -10  -1   18.23    3.61
   5 -10  -1   20.80    4.45
  -5  10   0   39.42    4.41
   5 -10   0   30.40    7.09
   5 -10   0   46.95    4.68
   5 -10   1    4.19    1.46
   5 -10   1    4.38    3.38
  -5   9  10   14.73    3.61
   5  -9 -10   17.12    4.24
  -5   9   9   11.83    3.65
   5  -9  -9    4.60    2.03
  -5   9   8    0.28    2.07
   5  -9  -8    7.63    2.83
  -5   9   7   21.26    4.55
   5  -9  -7   19.75    3.97
   5  -9  -7   21.39    4.45
  -5   9   6   11.29    4.12
   5  -9  -6   13.60    3.05
   5  -9  -6   10.08    1.86
  -5   9   5   83.03    9.09
   5  -9  -5   94.87   13.94
   5  -9  -5   76.64    6.08
  -5   9   4   30.21    4.71
   5  -9  -4   34.15    5.41
   5  -9  -4   30.41    4.25
  -5   9   3   40.90    4.80
   5  -9  -3   32.37    5.55
   5  -9  -3   34.17    4.93
  -5   9   2   85.75   10.11
   5  -9  -2   89.12   11.86
   5  -9  -2   99.29    7.89
  -5   9   1    2.82    1.58
   5  -9  -1    5.33    2.39
   5  -9  -1    5.98    4.28
  -5   9   0    3.90    1.73
   5  -9   0    5.01    2.67
   5  -9   0    3.92    2.89
  -5   9  -1  100.41   12.15
   5  -9   1  107.99   16.51
   5  -9   1  119.90    7.46
  -5   9  -2    4.62    2.53
   5  -9   2    2.92    1.42
   5  -9   2   12.73    3.91
  -5   9  -3   38.28    7.81
  -5   8  10    2.92    0.92
   5  -8 -10    4.72    2.58
  -5   8   9   53.64   11.87
   5  -8  -9   56.89   11.12
  -5   8   8   10.38    2.60
   5  -8  -8    3.74    2.89
   5  -8  -8    7.08    2.03
  -5   8   7    3.78    1.82
   5  -8  -7    5.53    2.40
   5  -8  -7    9.77    2.42
  -5   8   6   13.32    2.32
   5  -8  -6   22.66    3.22
   5  -8  -6   14.23    2.45
  -5   8   5   74.91    7.83
   5  -8  -5   99.96   10.50
   5  -8  -5   88.15    5.39
  -5   8   4   20.98    3.65
   5  -8  -4   10.29    2.06
   5  -8  -4   15.79    2.73
  -5   8   3   35.47    4.40
   5  -8  -3   37.26    3.20
   5  -8  -3   34.33    4.00
  -5   8   2    2.61    1.69
   5  -8  -2    5.65    1.55
   5  -8  -2    5.41    2.76
  -5   8   1    2.67    2.38
   5  -8  -1    6.83    2.57
   5  -8  -1    5.64    3.07
  -5   8   0   91.47    9.77
   5  -8   0   84.55   10.73
   5  -8   0   88.08    4.65
  -5   8  -1   13.12    2.78
   5  -8   1   22.48    3.34
   5  -8   1   29.24    4.95
  -5   8  -2   22.19    3.01
   5  -8   2   17.00    3.78
   5  -8   2   22.56    3.49
  -5   8  -3    5.77    2.20
   5  -8   3    1.82    0.75
   5  -8   3    7.79    4.02
  -5   8  -4    4.07    1.64
   5  -8   4    0.73    3.18
   5  -7 -11   33.59    8.90
  -5   7  10    3.90    1.59
   5  -7 -10    6.31    1.41
  -5   7   9   99.04   10.05
   5  -7  -9  113.08   11.11
  -5   7   8    7.76    2.25
   5  -7  -8   -2.14    2.24
   5  -7  -8    1.02    1.10
  -5   7   7   94.95    8.02
   5  -7  -7  101.07    7.68
   5  -7  -7   96.10    3.13
  -5   7   6  106.82    7.28
   5  -7  -6  110.29   11.64
   5  -7  -6  100.56    5.84
  -5   7   5    6.52    2.64
   5  -7  -5    2.31    0.97
   5  -7  -5    8.01    2.78
  -5   7   4   31.78    3.91
   5  -7  -4   28.88    3.43
   5  -7  -4   22.12    2.63
  -5   7   3   15.86    2.41
   5  -7  -3   14.86    2.52
   5  -7  -3   11.06    2.82
  -5   7   2   -0.67    2.18
   5  -7  -2    3.20    2.32
   5  -7  -2    4.53    3.61
  -5   7   1    4.22    2.14
   5  -7  -1    5.27    1.67
   5  -7  -1    1.91    2.97
  -5   7   0    4.33    2.53
   5  -7   0    7.08    1.27
   5  -7   0    6.25    2.98
  -5   7  -1  156.84   16.63
   5  -7   1  130.47   10.14
   5  -7   1  140.23    8.09
  -5   7  -2  180.72   19.54
   5  -7   2  172.71   10.83
   5  -7   3   34.95    5.55
   5  -7   3   37.52    4.84
  -5   7  -4    4.07    2.37
   5  -7   4    5.32    1.42
   5  -7   4    3.28    3.17
  -5   7  -5    6.15    1.67
   5  -7   5   12.03    3.67
  -5   7  -6   22.10    4.76
   5  -7   6   24.31    4.39
  -5   6  10    1.70    0.78
   5  -6 -10    3.94    2.16
  -5   6   9  103.52   13.68
   5  -6  -9  125.46    9.95
  -5   6   8  157.63    6.62
   5  -6  -8  156.78   10.15
   5  -6  -8  167.37    3.71
  -5   6   7    1.84    1.47
   5  -6  -7    3.48    1.47
   5  -6  -7    1.78    1.33
  -5   6   6  127.39   11.54
   5  -6  -6  121.87   12.79
   5  -6  -6  125.51    6.25
  -5   6   5  231.72    9.10
   5  -6  -5  227.79   16.85
   5  -6  -5  210.48    8.27
  -5   6   4    4.50    1.98
   5  -6  -4    3.49    2.07
   5  -6  -4    0.86    1.97
  -5   6   3  114.12    9.12
   5  -6  -3  112.69    8.66
   5  -6  -3  109.78    5.97
  -5   6   2   63.73   10.67
   5  -6  -2   56.88    8.11
   5  -6  -2   47.09    5.59
  -5   6   1  167.34   13.56
   5  -6  -1  166.65   10.01
   5  -6  -1  158.67    8.16
  -5   6   0  151.08   16.90
   5  -6   0  133.86   13.33
   5  -6   0  127.56    6.42
  -5   6  -1  184.59   15.86
   5  -6   1  171.95   10.08
   5  -6   1  186.62    9.57
  -5   6  -2  112.30   11.71
   5  -6   2  112.07    7.32
   5  -6   2  108.22    5.41
  -5   6  -3   70.01   12.45
   5  -6   3   71.52    8.64
   5  -6   3   77.21    6.12
   5  -6   4    7.67    1.25
   5  -6   4   11.79    4.44
  -5   6  -5    3.60    2.12
   5  -6   5    6.24    3.56
  -5   6  -6    1.49    1.17
   5  -6   6    4.75    3.50
  -5   6  -7   -1.71    1.64
   5  -6   7    2.21    3.07
   5  -5 -10   63.97    5.83
  -5   5   9   28.64    5.59
   5  -5  -9   26.16    5.64
   5  -5  -9   23.33    4.22
  -5   5   8  208.21   14.69
   5  -5  -8  208.13   10.56
   5  -5  -8  201.42   10.92
  -5   5   7   90.48    7.80
   5  -5  -7  104.05    8.33
   5  -5  -7   90.64    3.09
  -5   5   6   37.02    6.02
   5  -5  -6   35.45    5.39
   5  -5  -6   31.16    3.93
  -5   5   5   82.78    9.16
   5  -5  -5   82.84   10.16
   5  -5  -5   76.93    7.40
  -5   5   4   11.15    1.98
   5  -5  -4   11.61    3.12
   5  -5  -4    8.44    1.80
  -5   5   3   35.83    5.91
   5  -5  -3   38.77    7.23
   5  -5  -3   26.47    4.73
  -5   5   2  106.77   14.49
   5  -5  -2   99.22   11.87
   5  -5  -2  100.57    5.47
  -5   5   1   25.01    5.70
   5  -5  -1   19.87    3.96
   5  -5  -1   22.75    4.52
  -5   5   0  175.68   16.21
   5  -5   0  175.18   10.65
   5  -5   0  165.00    8.21
  -5   5  -1    9.49    2.24
   5  -5   1   11.76    1.93
   5  -5   1   15.03    3.12
  -5   5  -2    2.80    2.17
   5  -5   2    2.90    1.36
   5  -5   2    6.08    4.43
  -5   5  -3   -1.06    2.44
   5  -5   3    1.41    1.09
   5  -5   3    0.10    3.52
  -5   5  -4    8.12    2.39
   5  -5   4    8.83    1.65
   5  -5   4   15.45    4.82
  -5   5  -5    6.88    2.03
   5  -5   5    4.71    3.46
  -5   5  -6   13.24    3.00
   5  -5   6   12.22    3.21
  -5   5  -7   54.37   12.24
   5  -5   7   71.60   11.65
  -5   5  -8   13.11    3.23
   5  -5   8    9.79    4.25
   5  -4 -11   12.28    3.60
   5  -4 -10   39.80    4.89
   5  -4  -9  250.70   19.34
   5  -4  -9  273.44   15.81
  -5   4   8   35.26    4.66
   5  -4  -8   41.75    4.60
   5  -4  -8   38.26    4.66
  -5   4   7  112.93   10.52
   5  -4  -7  139.06   11.95
   5  -4  -7  114.62   11.60
  -5   4   6   79.42    9.33
   5  -4  -6   79.24   11.43
   5  -4  -6   67.93    7.94
  -5   4   5   21.68    2.99
   5  -4  -5   24.11    3.54
   5  -4  -5   24.90    3.21
  -5   4   4    4.96    1.40
   5  -4  -4    8.90    3.05
   5  -4  -4    6.28    2.50
  -5   4   3   21.81    3.59
   5  -4  -3   15.50    2.71
   5  -4  -3   14.96    2.37
  -5   4   2    5.01    1.84
   5  -4  -2   10.32    1.73
   5  -4  -2   11.52    4.11
  -5   4   1   -1.18    1.81
   5  -4  -1    2.17    1.26
   5  -4  -1    0.51    3.17
  -5   4   0   24.29    3.64
   5  -4   0   20.31    3.39
   5  -4   0   14.66    3.23
  -5   4  -1    6.32    3.31
   5  -4   1    3.45    1.00
  -5   4  -2  145.41   13.12
   5  -4   2  153.23   10.07
  -5   4  -2  104.07    4.64
   5  -4   2  138.23    7.43
  -5   4  -3   10.05    2.50
   5  -4   3    9.71    2.13
  -5   4  -3    3.66    0.82
   5  -4   3    3.32    3.24
  -5   4  -4   30.96    5.80
   5  -4   4   20.29    4.34
  -5   4  -5   20.35    3.52
   5  -4   5    6.27    1.48
   5  -4   5   15.67    3.44
  -5   4  -6   28.06    5.34
   5  -4   6   37.23    5.63
  -5   4  -7   25.98    2.91
   5  -4   7   26.91    4.42
  -5   4  -8    4.13    2.10
   5  -4   8    8.15    4.25
  -5   4  -9   10.95    2.86
   5  -4   9   10.09    3.16
   5  -3 -11   38.83    8.96
   5  -3  -9   46.84    5.31
   5  -3  -9   33.47    5.94
  -5   3   8  113.07    5.48
   5  -3  -8  126.28   16.08
   5  -3  -8  123.25    6.31
  -5   3   7    1.36    0.57
   5  -3  -7    4.17    2.49
   5  -3  -7    1.43    0.81
  -5   3   6   46.46    7.48
   5  -3  -6   43.98    5.00
   5  -3  -6   65.48    9.60
   5  -3  -6   50.81    9.02
  -5   3   5    1.83    1.16
   5  -3  -5    4.04    1.61
   5  -3  -5    4.94    1.89
  -5   3   4    9.96    1.91
   5  -3  -4    8.69    2.71
   5  -3  -4    6.56    2.33
  -5   3   3   19.52    3.23
   5  -3  -3   17.11    2.87
   5  -3  -3   22.56    3.49
  -5   3   2  122.47   11.80
   5  -3  -2  115.57   11.92
   5  -3  -2  105.82    5.42
  -5   3   1  116.55    9.15
   5  -3  -1  113.18    8.79
   5  -3  -1   95.22    5.67
  -5   3   0   26.56    4.22
   5  -3   0   24.09    4.47
   5  -3   0   16.28    3.46
  -5   3  -1  309.25   19.67
   5  -3   1  245.21    8.59
  -5   3  -1  220.59    7.58
   5  -3   1  274.24   10.77
  -5   3  -2    1.67    1.43
   5  -3   2    1.59    0.90
  -5   3  -2    0.25    0.87
   5  -3   2   11.07    3.25
  -5   3  -3  299.02   13.21
   5  -3   3  290.91   11.93
  -5   3  -3  268.98   10.49
   5  -3   3  308.73   13.65
  -5   3  -4   12.16    3.24
   5  -3   4    5.81    0.89
  -5   3  -4    3.96    0.65
   5  -3   4    6.54    5.00
  -5   3  -5   46.19    7.11
   5  -3   5   41.96    4.91
   5  -3   5   64.27    8.07
   5  -3   6   53.84    4.37
  -5   3  -7   92.37    8.82
   5  -3   7  109.96    6.37
  -5   3  -8   49.86    7.67
   5  -3   8   43.27    4.67
  -5   3  -9   12.99    3.46
   5  -3   9   18.04    3.97
   5  -2 -11   17.77    4.13
   5  -2 -10   10.33    3.35
   5  -2  -9    4.14    1.97
   5  -2  -9    2.53    1.02
   5  -2  -8   86.06    7.72
   5  -2  -8   63.10   10.02
  -5   2   7    7.21    1.15
   5  -2  -7   11.82    2.95
   5  -2  -7    2.73    1.58
  -5   2   6  134.05    8.04
   5  -2  -6  144.15    7.93
   5  -2  -6  163.72    7.23
  -5   2   5    2.30    0.95
   5  -2  -5    5.06    1.43
   5  -2  -5    3.50    1.99
   5  -2  -5    3.72    1.42
  -5   2   4  421.07   13.19
   5  -2  -4  387.91   12.15
   5  -2  -4  431.78   14.13
   5  -2  -4  449.81   15.04
  -5   2   3   89.59    7.59
   5  -2  -3   65.33    7.44
   5  -2  -3   82.27    8.02
   5  -2  -3   87.59    4.92
  -5   2   2   45.01    6.64
   5  -2  -2   47.94    6.46
   5  -2  -2   37.01    5.01
  -5   2   1   61.15    8.63
   5  -2  -1   54.10    6.70
   5  -2  -1   54.83    5.06
  -5   2   0  141.32   12.17
   5  -2   0  140.07    5.53
   5  -2   0  125.61    6.48
  -5   2  -1  152.87   14.16
   5  -2   1  149.38    8.79
  -5   2  -1  131.52    4.82
   5  -2   1  137.88    6.54
  -5   2  -2    3.07    1.47
   5  -2   2    3.54    1.07
  -5   2  -2    6.04    1.50
   5  -2   2   11.42    3.17
  -5   2  -3  187.26   14.21
   5  -2   3  151.69    7.91
  -5   2  -3  142.63    4.71
   5  -2   3  167.35    7.58
  -5   2  -4   82.19    9.84
   5  -2   4   69.66    3.41
  -5   2  -4   75.33    3.03
   5  -2   4   70.49    5.29
  -5   2  -5    4.23    2.20
   5  -2   5   11.97    4.91
  -5   2  -6   65.10    7.31
   5  -2   6   77.90    5.92
  -5   2  -7   39.17    4.77
   5  -2   7   43.51    4.34
  -5   2  -8  152.71   13.79
   5  -2   8  184.09    6.40
  -5   2  -9    7.10    2.21
   5  -2   9   16.01    4.38
  -5   2 -10   10.29    1.94
   5  -2  10    9.48    4.44
   5  -1 -10   57.06   11.11
   5  -1 -10   30.38    6.82
   5  -1  -9   33.27    5.21
   5  -1  -9   23.16    6.32
   5  -1  -8    7.61    2.29
   5  -1  -8    4.98    2.38
   5  -1  -7    5.22    2.56
   5  -1  -7    6.39    2.37
  -5   1   6   25.27    2.74
   5  -1  -6   26.08    2.83
   5  -1  -6   44.34    6.48
   5  -1  -6   26.51    5.09
  -5   1   5  293.92   11.63
   5  -1  -5  300.65   11.57
   5  -1  -5  296.25   12.94
   5  -1  -5  337.67   14.10
  -5   1   4    2.90    0.96
   5  -1  -4    2.28    1.12
   5  -1  -4    2.50    1.37
   5  -1  -4    2.95    1.69
  -5   1   3  209.77    8.75
   5  -1  -3  203.71    7.06
   5  -1  -3  208.29    8.19
   5  -1  -3  208.19    8.11
  -5   1   2    4.07    0.91
   5  -1  -2    2.43    0.99
   5  -1  -2    8.89    2.05
   5  -1  -2    5.12    2.52
  -5   1   1   82.83    8.64
   5  -1  -1   93.85    9.82
   5  -1  -1   81.60    4.71
  -5   1   0   33.54    4.13
   5  -1   0   30.38    4.66
  -5   1   0   17.57    2.85
  -5   1  -1   52.50    6.13
   5  -1   1   44.53    5.94
  -5   1  -1   31.81    4.76
   5  -1   1   46.79    5.04
  -5   1  -2   -0.23    1.62
   5  -1   2    2.32    0.85
  -5   1  -2    2.36    1.11
   5  -1   2    0.97    2.62
  -5   1  -3    1.96    1.45
   5  -1   3    0.59    0.47
  -5   1  -3    2.47    0.78
   5  -1   3    2.09    3.13
  -5   1  -4  113.69   11.18
   5  -1   4  108.13    6.32
  -5   1  -5   21.51    4.47
   5  -1   5   20.09    4.39
  -5   1  -6   94.38    7.02
   5  -1   6   86.92   10.37
  -5   1  -7   43.16    5.73
   5  -1   7   36.07    4.41
  -5   1  -8   31.66    4.20
   5  -1   8   26.43    3.04
  -5   1  -9   34.59    4.33
   5  -1   9   18.76    3.16
   5  -1  10    5.92    3.94
   5  -1  10    4.12    2.90
   5  -1  11   66.76    8.17
   5  -1  11   80.12    9.56
   5   0 -10   23.84    5.24
   5   0 -10   13.41    3.68
   5   0  -9   16.33    4.37
   5   0  -8    3.19    1.21
   5   0  -8    1.03    1.27
   5   0  -7   58.30    6.26
   5   0  -7   44.18    7.81
   5   0  -6    4.86    2.54
   5   0  -6    3.43    1.52
   5   0  -5  149.23   10.30
   5   0  -5  124.53   13.48
   5   0  -4  167.83    5.31
   5   0  -4  181.89   14.30
   5   0  -4  198.18   18.21
  -5   0   3    3.48    0.86
   5   0  -3    3.62    0.98
   5   0  -3    6.11    2.19
   5   0  -3    2.30    1.32
  -5   0   2  131.66    6.71
   5   0  -2  134.54    4.98
   5   0  -2  169.15   11.91
   5   0  -2  140.36    6.47
  -5   0   1   13.75    1.67
   5   0  -1   12.67    2.43
   5   0  -1   18.03    2.27
   5   0  -1   15.89    2.78
  -5   0   0   12.36    2.08
   5   0   0   12.63    1.87
  -5   0   0    7.51    1.09
   5   0   0   12.12    2.85
  -5   0  -1  318.01   10.77
   5   0   1  299.43   11.13
  -5   0  -1  310.37    9.77
   5   0   1  304.68   10.72
  -5   0  -2  101.90    8.72
   5   0   2   85.31    3.23
  -5   0  -2   67.37    6.52
   5   0   2   84.45    5.45
  -5   0  -3  164.82   12.67
  -5   0  -3  141.18    5.34
  -5   0  -3  144.57    4.95
   5   0   3  129.22    5.96
  -5   0  -4   72.42   11.74
   5   0   4   72.41    8.74
  -5   0  -5  180.29   13.28
   5   0   5  171.05    7.81
  -5   0  -6   23.88    4.16
   5   0   6   16.47    3.57
  -5   0  -7  262.59   10.29
   5   0   7  266.12   11.33
   5   0   8   77.47    5.15
   5   0   9    3.31    2.86
   5   0   9    4.99    2.55
   5   0  10   15.91    4.86
   5   0  10   17.50    4.35
   5   0  11  104.75    6.08
   5   0  11  100.72    5.05
  -5  -1  10    4.69    2.91
   5   1 -10    4.14    1.99
   5   1  -9   33.79    5.58
   5   1  -9   29.73    7.08
   5   1  -8   69.41    5.60
   5   1  -8   52.66    8.03
   5   1  -7  183.00   18.22
   5   1  -7  174.79   11.12
   5   1  -6  223.25   21.60
   5   1  -6  241.42   10.85
   5   1  -5    3.38    2.09
   5   1  -5    5.16    2.31
   5   1  -4  101.62    9.43
   5   1  -4   92.09    8.83
   5   1  -3    1.01    0.61
   5   1  -3    0.98    0.75
   5   1  -3   -0.64    1.41
   5   1  -3    6.07    2.51
   5   1  -2  186.24    6.60
   5   1  -2  196.17    6.74
   5   1  -2  211.75    8.04
   5   1  -2  196.23   20.46
   5   1  -1   51.26    4.73
   5   1  -1   64.56    7.03
   5   1  -1   59.87    4.96
  -5  -1   0   11.91    1.61
   5   1   0    8.56    1.27
   5   1   0   18.17    3.11
   5   1   0   14.58    3.67
  -5  -1  -1   39.72    3.39
   5   1   1   46.79    3.75
  -5  -1  -1   31.62    4.19
   5   1   1   42.13    4.40
  -5  -1  -2   66.06    5.22
  -5  -1  -2   61.51    6.03
  -5  -1  -2   70.00    5.16
   5   1   2   71.50    6.09
  -5  -1  -3   38.21    4.89
  -5  -1  -3   32.46    4.98
  -5  -1  -3   41.90    4.81
   5   1   3   49.08    6.33
  -5  -1  -4   38.75    4.95
  -5  -1  -4   36.64    4.31
  -5  -1  -4   38.75    4.35
   5   1   4   50.24    6.75
  -5  -1  -5  147.60    6.36
   5   1   5  169.54    7.64
   5   1   6  236.21   10.72
   5   1   7  110.95    5.84
   5   1   7  126.27    6.49
   5   1   8   88.25    6.93
   5   1   8   94.89    5.71
   5   1   9   13.06    3.22
   5   1   9   13.96    3.28
   5   1  10    8.50    3.50
   5   1  10    4.71    2.43
   5   1  11    6.20    2.86
   5   1  11    5.37    2.18
  -5  -2   9   25.11    5.70
   5   2  -9   13.76    4.23
  -5  -2   8   16.89    3.57
   5   2  -8   15.17    2.72
  -5  -2   7    4.83    2.84
   5   2  -7    4.57    1.36
  -5  -2   6   69.71    4.16
   5   2  -6   56.16    8.90
   5   2  -5   55.81    8.48
   5   2  -4  129.88    6.41
   5   2  -4  107.84   21.91
   5   2  -3   49.96    7.87
   5   2  -3   42.93    9.47
   5   2  -2    8.10    1.35
   5   2  -2   14.36    1.66
   5   2  -2   17.38    2.88
   5   2  -1  140.57    6.15
   5   2  -1  153.45    5.71
  -5  -2   1  161.80    6.70
   5   2   0    1.06    0.75
   5   2   0    0.82    1.52
  -5  -2   0    8.64    3.42
   5   2   0    1.82    1.16
   5   2   1  161.13    5.88
  -5  -2  -1  169.82    6.70
   5   2   1  167.94    6.88
   5   2   2   49.49    4.47
  -5  -2  -2   32.08    4.80
  -5  -2  -2   44.62    3.66
   5   2   2   48.85    4.92
   5   2   3   73.78    8.91
  -5  -2  -3   54.50    8.63
  -5  -2  -3   79.59    7.35
   5   2   3   63.76    7.61
   5   2   4  160.65    6.64
  -5  -2  -4  138.01    5.10
  -5  -2  -4  144.86    5.07
   5   2   4  147.28    6.82
   5   2   5   20.41    3.75
  -5  -2  -5   14.08    1.67
  -5  -2  -5   21.70    1.97
   5   2   5   16.48    3.32
   5   2   6    3.96    2.85
   5   2   6    5.04    3.80
   5   2   7   11.82    2.71
   5   2   7   22.81    4.97
   5   2   8   17.06    3.49
   5   2   8    6.21    2.47
   5   2   9    7.87    3.11
   5   2   9    2.49    2.21
   5   2  10   21.71    4.05
   5   2  10   15.86    2.78
   5   2  11   71.52    5.89
   5   2  11   67.14    4.80
   5   2  12    3.20    2.75
  -5  -3   8    4.33    3.40
   5   3  -8    0.85    0.90
  -5  -3   7   23.21    3.34
   5   3  -7   22.56    5.82
  -5  -3   6    7.26    2.96
   5   3  -6    4.60    1.48
   5   3  -5  207.85    6.28
  -5  -3   4   16.07    3.63
   5   3  -4   26.46    6.68
  -5  -3   3   37.47    5.31
   5   3  -3   46.29    6.49
   5   3  -2   41.77    6.55
   5   3  -2   54.63    5.52
  -5  -3   2   64.92    7.84
   5   3  -2   49.89    9.05
   5   3  -1    6.28    1.07
   5   3  -1    5.72    1.19
  -5  -3   1    6.80    3.78
   5   3  -1    9.45    2.18
   5   3   0   27.81    5.05
   5   3   0   35.49    4.55
  -5  -3   0   47.88    6.34
   5   3   0   34.62    7.06
   5   3   1   10.14    2.46
  -5  -3  -1   16.07    3.88
   5   3   1    6.08    2.42
   5   3   2    4.05    2.24
  -5  -3  -2    1.79    1.96
   5   3   2    5.32    2.61
   5   3   3    2.84    2.51
  -5  -3  -3    1.40    0.66
  -5  -3  -3    0.86    1.57
   5   3   3    5.03    2.58
   5   3   4    5.70    3.68
  -5  -3  -4    1.70    0.73
  -5  -3  -4    0.29    1.74
   5   3   4    8.56    3.64
   5   3   5    1.38    2.96
  -5  -3  -5    0.89    0.47
  -5  -3  -5    1.81    1.15
   5   3   5    3.25    2.45
   5   3   6    4.31    2.91
  -5  -3  -6    1.06    0.37
  -5  -3  -6    1.26    0.34
   5   3   6    7.00    2.67
   5   3   7   19.95    3.27
   5   3   8   83.21    6.38
   5   3   8   76.42    4.57
   5   3   9   98.48    6.84
   5   3   9   98.03    5.78
   5   3  10   90.89    6.89
   5   3  10   88.84    6.29
   5   3  11  284.17   81.05
   5   3  11  265.23   13.09
   5   3  12   14.71    3.87
  -5  -4   8    4.24    2.80
   5   4  -8    5.05    2.67
   5   4  -7   28.62    8.06
  -5  -4   6   34.06    4.59
   5   4  -6   36.04    7.64
  -5  -4   5    5.93    4.35
   5   4  -5    3.78    2.00
  -5  -4   4   63.32    4.30
   5   4  -4   62.90   10.97
  -5  -4   3    4.93    3.00
   5   4  -3    2.56    1.59
   5   4  -2   37.72    4.58
   5   4  -2   53.31    4.80
  -5  -4   2   56.72    6.64
   5   4  -2   57.40    9.49
   5   4  -1   24.01    5.39
   5   4  -1   41.42    6.11
  -5  -4   1   38.96    6.64
   5   4  -1   36.61    7.58
   5   4   0    1.63    1.15
   5   4   0    4.24    1.55
  -5  -4   0    7.66    2.70
   5   4   0    5.44    1.29
   5   4   1   18.51    2.77
  -5  -4  -1   15.96    2.89
   5   4   1   21.33    3.77
   5   4   2  201.36    7.42
  -5  -4  -2  204.51    7.64
   5   4   2  190.65   19.78
   5   4   3    1.22    2.65
  -5  -4  -3   10.57    3.10
   5   4   3    8.51    2.46
   5   4   4   60.11    4.55
  -5  -4  -4   40.87    6.06
  -5  -4  -4   57.81    2.81
   5   4   4   72.85    8.60
   5   4   5   14.16    4.25
  -5  -4  -5    5.19    1.35
  -5  -4  -5    8.07    1.81
   5   4   5   16.22    3.47
   5   4   6    7.33    2.89
  -5  -4  -6    3.25    1.09
  -5  -4  -6    5.61    1.37
   5   4   6    4.34    3.02
   5   4   7  115.72    6.35
  -5  -4  -7  110.47    4.12
   5   4   7  109.74    5.09
   5   4   8    8.21    4.05
   5   4   8    6.46    1.93
   5   4   9  268.24   13.99
   5   4   9  236.76   11.44
   5   4  10   32.19    4.47
   5   4  10   37.35    3.85
   5   4  11   53.77    5.57
   5   4  11   59.43    4.60
   5   4  12   26.49    4.27
  -5  -5   7   59.37    5.85
   5   5  -7   42.58    7.59
  -5  -5   6    2.96    2.92
   5   5  -6    2.21    1.12
  -5  -5   5    5.83    2.71
   5   5  -5    1.06    1.23
   5   5  -4    1.82    2.83
  -5  -5   3   10.05    3.85
   5   5  -3    3.53    1.60
   5   5  -2   58.18    6.39
  -5  -5   2   73.68    8.90
   5   5  -1    2.70    0.89
   5   5  -1    2.13    1.25
  -5  -5   1   12.70    4.75
   5   5  -1    5.09    2.17
   5   5   0   84.04    7.56
   5   5   0  104.50   17.59
  -5  -5   0   85.19    8.28
   5   5   0  102.63   15.25
   5   5   1   22.53    3.79
  -5  -5  -1   24.96    4.65
   5   5   1   30.50    8.79
   5   5   2  102.74    5.67
  -5  -5  -2  119.67    6.43
   5   5   2  119.35   15.47
   5   5   3  237.36   10.38
  -5  -5  -3  225.30    9.71
   5   5   3  253.95   12.53
   5   5   4   67.43    4.95
  -5  -5  -4   67.36    3.85
   5   5   4   78.03    7.91
   5   5   5   98.51    9.62
  -5  -5  -5  103.91   17.64
   5   5   5   91.06    8.73
   5   5   6    9.85    2.48
  -5  -5  -6    3.20    0.81
  -5  -5  -6    5.23    1.38
   5   5   6    5.00    1.95
   5   5   7  189.77    8.86
  -5  -5  -7  202.23    7.04
   5   5   7  199.05   17.46
   5   5   8   83.27    5.37
  -5  -5  -8   56.32    5.31
   5   5   8   61.76    4.96
   5   5   9   16.34    2.60
   5   5   9   28.20    3.03
   5   5  10  143.60   10.23
   5   5  10  145.70    9.04
   5   5  11   72.76    6.85
   5   5  11   72.61    4.34
   5   5  12    5.05    4.31
  -5  -6   6   14.53    4.08
   5   6  -6   11.44    3.41
  -5  -6   5   10.52    3.38
   5   6  -5    6.24    2.29
  -5  -6   4   21.10    3.45
   5   6  -4   29.23    3.97
  -5  -6   3    4.51    2.61
   5   6  -3    3.27    0.92
  -5  -6   2   11.67    4.08
   5   6  -2    8.16    2.56
   5   6  -1   33.28    2.30
  -5  -6   1   34.79    4.29
   5   6  -1   27.48    5.59
   5   6   0   98.18    4.27
  -5  -6   0  112.27    6.06
   5   6   0  102.99   12.06
   5   6   1  105.17    4.69
  -5  -6  -1  112.68    5.36
   5   6   1  103.88   11.40
   5   6   2    3.32    2.42
  -5  -6  -2    0.35    2.46
   5   6   2   -2.34    2.09
   5   6   3    3.87    2.96
  -5  -6  -3    3.91    2.53
   5   6   3    3.93    2.73
   5   6   4    6.16    2.74
  -5  -6  -4    7.06    3.22
   5   6   4    8.71    2.73
   5   6   5    6.34    3.16
  -5  -6  -5   10.10    2.41
   5   6   5    8.66    2.19
   5   6   6   63.03    8.10
  -5  -6  -6   57.51    6.80
   5   6   6   39.48    6.56
   5   6   7   -0.03    2.88
  -5  -6  -7    5.50    1.42
   5   6   7    6.16    2.83
   5   6   8   92.23    5.49
  -5  -6  -8   74.49    6.66
   5   6   8   73.99    9.18
   5   6   9   47.51    4.09
   5   6   9   46.57    7.21
   5   6  10   38.67    8.28
   5   6  10   19.68    4.15
   5   6  11  186.92   10.53
   5   6  12    6.66    3.63
  -5  -7   5    7.03    3.39
   5   7  -5   20.50    3.94
  -5  -7   4   10.61    4.45
   5   7  -4    4.17    2.59
  -5  -7   3    9.76    3.46
   5   7  -3    6.16    1.97
  -5  -7   2   33.40    5.26
   5   7  -2   24.98    4.78
   5   7  -1   86.11    4.40
  -5  -7   1  105.12    6.59
   5   7  -1   84.08   11.74
   5   7   0  134.19    3.46
  -5  -7   0  128.72    5.22
   5   7   0  139.64   16.39
   5   7   1    6.93    2.16
  -5  -7  -1    6.60    3.91
   5   7   1    4.22    1.90
   5   7   2   50.74    4.23
  -5  -7  -2   48.03    4.99
   5   7   2   38.78    5.92
   5   7   3    3.92    3.00
  -5  -7  -3    8.76    2.50
   5   7   3    9.81    2.28
   5   7   4   27.57    2.82
  -5  -7  -4   24.00    3.19
   5   7   4   23.04    3.45
   5   7   5   21.08    3.19
  -5  -7  -5   22.54    2.82
   5   7   5   28.51    4.01
   5   7   6   39.89    5.20
  -5  -7  -6   30.01    2.89
   5   7   6   32.81    5.04
   5   7   7   86.74    5.30
  -5  -7  -7   86.39    3.13
   5   7   7   91.07    8.14
   5   7   8   15.56    3.63
  -5  -7  -8   11.09    1.55
   5   7   8    9.26    2.17
   5   7   9    4.32    2.92
  -5  -7  -9    2.57    1.05
   5   7   9    2.50    1.10
   5   7  10   25.36    4.09
   5   7  11   88.59   13.03
   5   7  12    2.65    3.49
  -5  -8   4    3.67    3.02
   5   8  -4    4.55    1.08
  -5  -8   2   20.60    4.91
   5   8  -2   16.00    5.05
  -5  -8   1   14.05    4.52
   5   8  -1   10.94    3.06
   5   8   0   13.35    1.91
  -5  -8   0   15.68    4.49
   5   8   0   10.11    2.96
   5   8   1   84.34    4.02
  -5  -8  -1   78.62    5.16
   5   8   1   74.87    8.61
   5   8   2    1.22    1.69
  -5  -8  -2    2.19    2.46
   5   8   2    2.28    0.95
   5   8   3   12.21    2.27
  -5  -8  -3   10.77    2.69
   5   8   3   11.78    2.31
   5   8   4   39.53    3.77
  -5  -8  -4   39.07    3.61
   5   8   4   43.08    5.79
   5   8   5   -0.99    2.45
  -5  -8  -5    2.05    2.09
   5   8   5    5.31    1.71
   5   8   6   48.80    4.63
  -5  -8  -6   50.47    3.66
   5   8   6   46.36    9.16
   5   8   7   87.42    4.83
  -5  -8  -7   88.32    3.54
   5   8   7   86.83    9.69
   5   8   8   14.25    3.46
  -5  -8  -8   11.99    2.28
   5   8   8   15.38    2.52
   5   8   9   42.08    3.92
  -5  -8  -9   31.22    3.78
   5   8   9   25.63    4.58
   5   8  10    2.57    2.73
   5   8  10    3.98    1.63
   5   8  11    9.83    3.22
  -5  -9   2   10.91    3.44
   5   9  -2    8.57    2.63
  -5  -9   1    0.00    2.96
   5   9  -1    7.57    1.89
  -5  -9   0    4.83    3.96
   5   9   0   -0.02    2.00
   5   9   1    1.39    1.29
  -5  -9  -1    3.97    2.87
   5   9   1    0.29    1.46
   5   9   2   16.80    2.56
  -5  -9  -2   16.70    3.04
   5   9   2   26.53    3.89
   5   9   3   37.25    4.01
  -5  -9  -3   44.10    5.33
   5   9   3   46.88    6.22
   5   9   4   18.57    3.08
  -5  -9  -4   21.32    3.34
   5   9   4   18.92    3.62
   5   9   5   71.08    5.46
  -5  -9  -5   75.77    5.96
   5   9   5   64.78    8.51
   5   9   6    5.47    2.47
  -5  -9  -6    4.32    2.16
   5   9   6    6.50    2.57
   5   9   7   28.37    3.80
  -5  -9  -7   27.78    2.93
   5   9   7   27.32    3.92
   5   9   8   32.48    4.28
  -5  -9  -8   42.72    2.82
   5   9   8   27.29    4.36
   5   9   9    3.02    2.54
  -5  -9  -9    1.56    0.74
   5   9   9    3.06    1.00
   5   9  10   50.49    4.45
   5   9  11   25.26    4.87
  -5 -10   0   -0.78    3.27
   5  10   0    1.22    1.94
  -5 -10  -1    3.86    4.17
   5  10   1    3.59    1.94
   5  10   2    4.18    2.45
  -5 -10  -2    4.03    3.13
   5  10   2    6.82    2.11
   5  10   3   16.43    3.60
  -5 -10  -3   18.14    4.52
   5  10   3   17.61    4.40
   5  10   4    2.00    1.96
  -5 -10  -4    2.49    2.58
   5  10   4    1.94    0.95
   5  10   5   18.22    4.12
  -5 -10  -5   16.23    4.10
   5  10   5   20.80    4.90
   5  10   6    7.56    2.71
  -5 -10  -6   11.53    3.06
   5  10   6    7.85    2.19
   5  10   7   14.67    3.63
  -5 -10  -7   10.16    3.05
   5  10   7    9.15    2.95
   5  10   8    0.57    2.57
  -5 -10  -8    4.58    2.38
   5  10   8    6.85    1.81
   5  10   9    4.16    3.60
  -5 -10  -9   -0.33    1.50
   5  10   9    0.63    0.89
   5  10  10   40.67    5.98
   5  11   3   15.47    2.76
  -5 -11  -3   10.28    3.48
   5  11   3   23.71    5.86
   5  11   4    4.95    2.00
  -5 -11  -4   11.75    3.53
   5  11   4    5.19    2.88
   5  11   5    3.49    2.70
  -5 -11  -5    2.50    2.51
   5  11   5    2.89    1.48
   5  11   6   18.18    4.35
  -5 -11  -6   16.00    3.87
   5  11   6   10.59    3.15
   5  11   7    4.49    2.37
  -5 -11  -7    4.48    3.00
   5  11   7    1.58    1.30
   5  11   8   -0.02    2.35
  -5 -11  -8    2.57    2.69
   5  11   8    2.48    1.10
  -6  10   5    0.51    1.40
   6 -10  -5    4.61    1.88
   6 -10  -5    1.88    2.07
  -6  10   4   47.11    7.19
   6 -10  -4   51.30    9.63
   6 -10  -4   54.19    6.90
  -6  10   3  101.51   17.94
   6 -10  -3   96.87   13.64
   6 -10  -3  104.63   11.27
  -6  10   2    7.38    3.48
   6 -10  -2    5.64    1.84
   6 -10  -2    2.53    2.70
  -6   9   8   11.32    3.09
   6  -9  -8    8.74    3.82
  -6   9   7    4.33    1.48
   6  -9  -7    3.41    1.97
   6  -9  -7    2.53    1.57
  -6   9   6   22.85    5.81
   6  -9  -6   26.49    3.18
   6  -9  -6   13.29    3.15
  -6   9   5   10.19    2.15
   6  -9  -5   19.47    3.50
   6  -9  -5   11.74    2.30
  -6   9   4    3.51    2.17
   6  -9  -4    5.14    2.03
   6  -9  -4    1.44    2.58
  -6   9   3   20.88    4.24
   6  -9  -3   15.99    2.86
   6  -9  -3   16.76    3.49
  -6   9   2   75.08   12.28
   6  -9  -2   73.11   11.11
   6  -9  -2   77.82   11.29
  -6   9   1    1.81    2.63
   6  -9  -1    2.35    1.32
   6  -9  -1    5.28    3.28
  -6   9   0    8.42    3.03
   6  -9   0   13.47    3.18
   6  -9   0    9.96    2.81
  -6   9  -1    3.88    3.08
   6  -9   1    4.76    2.18
   6  -9   1    6.09    3.43
  -6   8   9    4.61    1.51
   6  -8  -9    3.84    1.84
  -6   8   8   30.65    5.80
   6  -8  -8   35.79    3.91
  -6   8   7   76.98   12.73
   6  -8  -7   74.86   12.11
   6  -8  -7   83.18   11.44
  -6   8   6   26.87    3.83
   6  -8  -6   29.69    3.84
   6  -8  -6   32.10    3.09
  -6   8   5   56.98    7.55
   6  -8  -5   64.48   11.37
   6  -8  -5   71.81    3.94
  -6   8   4    5.57    1.97
   6  -8  -4   13.83    2.77
   6  -8  -4    3.55    2.50
  -6   8   3   90.34   14.42
   6  -8  -3   88.59    7.83
   6  -8  -3   94.68    5.19
  -6   8   2    4.85    2.03
   6  -8  -2    6.21    2.16
   6  -8  -2   10.60    4.10
  -6   8   1   43.03    5.44
   6  -8  -1   59.29    7.12
   6  -8  -1   62.35    5.09
  -6   8   0    2.50    2.65
   6  -8   0    4.80    1.71
   6  -8   0    6.91    3.21
  -6   8  -1  137.91   23.38
   6  -8   1  133.19   21.65
   6  -8   1  189.62    7.12
  -6   8  -2  299.64   15.67
   6  -8   2  314.26    8.89
  -6   8  -3   14.19    5.04
   6  -8   3   11.02    3.87
  -6   7   9   22.79    5.95
   6  -7  -9   40.49    7.54
  -6   7   8   11.92    2.71
   6  -7  -8    6.10    2.60
   6  -7  -8   10.32    2.36
  -6   7   7    8.32    2.61
   6  -7  -7    9.23    2.43
  -6   7   6   77.40    8.74
   6  -7  -6   93.43    9.75
   6  -7  -6   85.48    6.05
  -6   7   5  192.97   17.94
   6  -7  -5  196.03   18.09
   6  -7  -5  233.63   14.68
  -6   7   4    6.70    2.10
   6  -7  -4    4.58    1.52
   6  -7  -4    1.09    2.53
  -6   7   3   46.77    7.59
   6  -7  -3   54.73    4.68
   6  -7  -3   59.34    4.10
  -6   7   2   23.95    3.65
   6  -7  -2   25.68    3.95
   6  -7  -2   18.53    3.98
  -6   7   1    0.75    1.34
   6  -7  -1    3.93    1.94
   6  -7  -1    3.07    2.68
  -6   7   0   31.43    5.88
   6  -7   0   33.16    4.21
   6  -7   0   29.87    4.02
  -6   7  -1   36.73    4.86
   6  -7   1   37.51    4.79
   6  -7   1   49.50    5.73
  -6   7  -2   33.28    5.17
   6  -7   2   29.24    4.32
   6  -7   2   38.79    4.03
  -6   7  -3   16.51    5.24
   6  -7   3   16.70    4.39
  -6   7  -4    5.69    2.08
   6  -7   4    1.20    3.29
   6  -6 -10    7.61    2.63
   6  -6  -9   20.87    4.34
  -6   6   8   41.57    6.07
   6  -6  -8   65.86    9.56
   6  -6  -8   44.80    5.23
  -6   6   7   21.21    4.05
   6  -6  -7   31.72    5.25
   6  -6  -7   14.43    2.22
  -6   6   6   16.25    2.81
   6  -6  -6   12.59    2.69
   6  -6  -6   11.61    1.90
  -6   6   5   64.94    7.13
   6  -6  -5   60.85    5.89
   6  -6  -5   69.43    5.38
  -6   6   4    3.17    1.87
   6  -6  -4    4.05    2.27
   6  -6  -4   10.49    3.33
  -6   6   3   70.80    9.02
   6  -6  -3   79.58    5.45
   6  -6  -3   69.69    4.57
  -6   6   2  160.42    9.48
   6  -6  -2  165.84    9.73
   6  -6  -2  162.07    5.91
  -6   6   1    6.53    1.21
   6  -6  -1    8.99    4.10
  -6   6   0    1.76    1.47
   6  -6   0    2.82    1.89
   6  -6   0    5.68    3.17
  -6   6  -1   71.19    6.83
   6  -6   1   76.36    6.17
   6  -6   1   46.86    4.53
  -6   6  -2    8.13    2.94
   6  -6   2    0.35    0.95
  -6   6  -3   11.23    3.53
   6  -6   3   10.22    1.34
   6  -6   3   14.30    4.33
  -6   6  -4    5.57    2.19
   6  -6   4    9.66    3.87
   6  -6   5   60.18    5.60
  -6   6  -6   49.31   10.12
   6  -6   6   54.68    7.01
   6  -5 -10    5.92    2.72
   6  -5  -9   26.98    3.90
  -6   5   8    6.16    2.44
   6  -5  -8    1.38    1.07
   6  -5  -8    5.68    1.97
  -6   5   7    3.11    1.28
   6  -5  -7    2.40    1.96
   6  -5  -7    1.25    1.48
  -6   5   6    3.09    1.87
   6  -5  -6    6.62    1.94
   6  -5  -6   -1.15    1.70
  -6   5   5    5.43    2.46
   6  -5  -5    7.07    2.22
   6  -5  -5    7.48    2.66
  -6   5   4   91.37    6.85
   6  -5  -4   69.45    5.71
   6  -5  -4   68.31    3.74
  -6   5   3   65.01    9.79
   6  -5  -3   69.03    7.18
   6  -5  -3   69.63    6.69
  -6   5   2  117.27    9.43
   6  -5  -2  127.95   10.14
   6  -5  -2  122.35    7.47
  -6   5   1  145.80   10.13
   6  -5  -1  135.88    9.41
   6  -5  -1  127.02    7.59
  -6   5   0   37.24    3.92
   6  -5   0   31.84    3.23
   6  -5   0   32.62    3.70
  -6   5  -1   43.18    4.66
   6  -5   1   37.14    4.82
   6  -5   1   39.46    3.63
  -6   5  -2   16.86    2.78
   6  -5   2   21.55    3.47
   6  -5   2   21.78    3.91
  -6   5  -3   66.16    9.41
   6  -5   3   63.35    4.39
   6  -5   3   57.19    4.59
  -6   5  -4   15.22    3.41
   6  -5   4   13.58    3.45
  -6   5  -5    5.73    2.20
   6  -5   5    7.82    3.55
  -6   5  -6   78.72   13.86
   6  -5   6  110.72   15.57
  -6   5  -7   18.98    3.48
   6  -5   7   32.14    5.81
   6  -4 -10   15.40    4.56
   6  -4  -9   22.30    4.90
   6  -4  -9   11.08    2.82
   6  -4  -8    9.12    2.29
   6  -4  -8    2.57    1.45
  -6   4   7    1.82    1.01
   6  -4  -7    1.12    1.50
   6  -4  -7    0.23    0.90
  -6   4   6    2.65    1.06
   6  -4  -6    2.64    2.05
   6  -4  -6    1.78    1.55
  -6   4   5   63.35    6.34
   6  -4  -5   74.57   11.34
   6  -4  -5   59.36    3.22
  -6   4   4   25.13    4.12
   6  -4  -4   27.83    3.22
   6  -4  -4   32.41    3.35
  -6   4   3  293.83   10.80
   6  -4  -3  288.47   22.10
   6  -4  -3  266.39   10.36
  -6   4   2   19.23    3.53
   6  -4  -2   19.49    3.33
   6  -4  -2    7.67    2.14
  -6   4   1   52.57    6.63
   6  -4  -1   50.26    7.00
   6  -4  -1   46.31    6.18
  -6   4   0   85.30   14.04
   6  -4   0   72.63    9.18
   6  -4   0   57.95    7.61
  -6   4  -1  268.75   22.34
   6  -4   1  267.73   13.22
   6  -4   1  258.69   10.74
  -6   4  -2   18.00    2.99
   6  -4   2   23.00    3.31
   6  -4   2   20.37    3.77
  -6   4  -3  220.61   19.78
   6  -4   3  186.78    4.85
   6  -4   3  211.63    7.07
  -6   4  -4   34.58    4.47
   6  -4   4   28.47    4.40
  -6   4  -5    4.20    1.67
   6  -4   5    0.37    2.99
  -6   4  -6   18.15    4.66
   6  -4   6   22.31    4.27
  -6   4  -7   15.78    4.36
   6  -4   7   12.76    3.75
  -6   4  -8    4.59    1.62
   6  -4   8    3.96    2.98
   6  -3 -10    4.91    2.34
   6  -3  -9   20.26    3.42
   6  -3  -9   13.88    3.59
   6  -3  -8   37.13    5.23
   6  -3  -8   32.10    5.99
   6  -3  -7   91.67   12.07
   6  -3  -7   85.37   12.29
  -6   3   6    2.78    0.73
   6  -3  -6    6.48    1.91
   6  -3  -6    2.78    1.27
  -6   3   5    0.39    0.85
   6  -3  -5    2.36    1.27
   6  -3  -5    7.69    2.50
  -6   3   4   63.19    9.31
   6  -3  -4   73.53   10.32
   6  -3  -4   71.98    8.54
  -6   3   3  119.86    7.72
   6  -3  -3  130.05   10.50
   6  -3  -3  119.94    5.87
  -6   3   2   70.76   11.51
   6  -3  -2   68.85    7.58
   6  -3  -2   63.90    6.45
  -6   3   1   44.51    6.47
   6  -3  -1   33.14    4.53
   6  -3  -1   40.49    5.49
  -6   3   0   18.60    3.89
   6  -3   0   16.05    3.32
   6  -3   0   12.60    3.13
  -6   3  -1   80.34    9.22
   6  -3   1   93.16    9.22
  -6   3  -2    2.55    1.33
   6  -3   2    1.30    0.92
  -6   3  -2    2.03    1.20
   6  -3   2    6.80    3.14
  -6   3  -3    4.30    1.92
   6  -3   3    2.58    0.54
   6  -3   3    8.76    4.62
  -6   3  -4  185.86   17.38
   6  -3   4  183.59    7.25
  -6   3  -5  106.28   10.16
   6  -3   5   97.08    6.92
  -6   3  -6    2.22    1.67
   6  -3   6    2.70    3.25
  -6   3  -7    3.29    1.83
   6  -3   7    3.57    2.88
  -6   3  -8    8.72    2.80
   6  -3   8    4.45    3.07
   6  -2 -10    1.60    1.59
   6  -2  -9    7.75    2.47
   6  -2  -9    7.70    3.41
   6  -2  -8   16.18    2.91
   6  -2  -8   11.46    2.27
   6  -2  -7  109.21    9.24
   6  -2  -7   93.04   15.72
  -6   2   6   28.59    2.60
   6  -2  -6   36.19    5.15
   6  -2  -6   26.06    6.99
  -6   2   5   10.58    1.86
   6  -2  -5    7.25    2.03
   6  -2  -5    8.84    2.35
   6  -2  -4   11.72    2.75
   6  -2  -4    7.64    2.68
  -6   2   3   13.20    2.62
   6  -2  -3   18.44    3.41
   6  -2  -3    9.55    1.85
  -6   2   2   92.27   13.04
   6  -2  -2  122.27   13.14
   6  -2  -2   97.02    9.38
  -6   2   1   96.71    6.89
   6  -2  -1  100.98    6.47
   6  -2  -1   91.04    6.08
  -6   2   0   40.48    6.99
   6  -2   0   43.49    7.43
   6  -2   0   25.34    4.92
  -6   2  -1   15.11    3.95
   6  -2   1   10.31    2.14
   6  -2   1    5.27    3.70
  -6   2  -2   42.92    6.13
   6  -2   2   29.77    3.73
  -6   2  -2   35.44    3.52
   6  -2   2   33.38    4.79
  -6   2  -3   59.04    8.60
   6  -2   3   47.68    6.49
  -6   2  -4    4.46    2.28
   6  -2   4   -0.72    3.17
  -6   2  -5  111.72    9.49
   6  -2   5  105.36    5.23
  -6   2  -6   80.65    7.58
   6  -2   6   87.44    6.45
  -6   2  -7   45.62    7.29
   6  -2   7   36.16    4.80
   6  -2   8  114.91    8.47
  -6   2  -9    9.86    3.08
   6  -2   9   11.57    3.53
   6  -1  -9    4.35    2.48
   6  -1  -9   -0.20    0.92
   6  -1  -8   68.27   12.71
   6  -1  -8   59.00    9.56
   6  -1  -7   62.54    7.40
   6  -1  -7   59.87    7.95
   6  -1  -6   36.12    4.23
   6  -1  -6   38.53    5.88
  -6   1   5   23.62    2.70
   6  -1  -5   41.76    7.79
   6  -1  -5   31.98    5.39
  -6   1   4    3.77    1.04
   6  -1  -4    4.97    1.48
   6  -1  -4   13.08    3.50
  -6   1   3   37.65    6.16
   6  -1  -3   34.52    3.34
   6  -1  -3   46.38    8.44
   6  -1  -3   41.70    4.72
  -6   1   2    7.02    1.77
   6  -1  -2   10.54    2.23
   6  -1  -2   10.82    3.35
  -6   1   1   14.12    3.19
   6  -1  -1   14.85    2.71
   6  -1  -1   12.04    3.03
  -6   1   0  631.90   26.26
   6  -1   0  658.53   25.64
  -6   1  -1 2286.95  220.15
   6  -1   1 2213.96  212.50
   6  -1   1 2601.23  249.90
  -6   1  -2   21.35    3.86
   6  -1   2   23.97    4.48
  -6   1  -2   16.44    3.27
   6  -1   2   21.73    4.68
  -6   1  -3  172.19   10.60
   6  -1   3  173.25    8.11
  -6   1  -3  161.67    5.33
   6  -1   3  170.69    8.06
  -6   1  -4    1.23    1.51
   6  -1   4    1.21    3.26
  -6   1  -5    4.54    2.01
   6  -1   5    1.14    2.87
  -6   1  -6   98.96   11.36
   6  -1   6  103.24    6.29
  -6   1  -7    5.85    1.53
   6  -1   7   10.87    4.15
  -6   1  -8  159.67    5.50
   6  -1   8  160.05    6.07
  -6   1  -9  147.21   20.15
   6  -1   9  173.10    7.19
   6  -1  10   12.07    3.48
   6  -1  10   11.90    3.34
   6   0  -9    4.55    2.66
   6   0  -9    3.26    1.54
   6   0  -8    7.65    3.02
   6   0  -8    0.31    1.42
   6   0  -7   91.59   12.01
   6   0  -7  100.10   12.03
   6   0  -6  285.25   25.65
   6   0  -6  305.46   14.57
   6   0  -5   31.32    4.59
   6   0  -5   34.58    5.86
   6   0  -4   96.86    3.56
   6   0  -4  107.95   10.31
   6   0  -4  123.96   14.69
  -6   0   3   13.43    1.75
   6   0  -3    9.15    1.62
   6   0  -3   18.89    4.33
   6   0  -3    9.63    2.42
  -6   0   2    5.41    1.39
   6   0  -2    3.38    1.08
   6   0  -2    3.87    1.49
   6   0  -2   11.68    3.33
  -6   0   1   72.44    7.60
   6   0  -1   77.87    6.43
   6   0  -1   85.55    6.02
  -6   0   0   54.72    7.00
   6   0   0   51.67    9.78
  -6   0  -1 1469.81  141.65
   6   0   1 1415.77   54.20
   6   0   1 1521.76  146.52
  -6   0  -2  791.13   31.11
   6   0   2  750.81   28.73
  -6   0  -2  668.87   26.37
   6   0   2  761.56   30.58
  -6   0  -3   10.43    3.15
  -6   0  -3    2.44    0.94
  -6   0  -3    2.16    0.85
   6   0   3    8.26    3.21
  -6   0  -4   19.85    3.14
  -6   0  -4   14.42    1.48
  -6   0  -4   14.78    1.54
   6   0   4   18.46    3.83
  -6   0  -5    2.20    1.96
   6   0   5    7.26    3.15
  -6   0  -6   25.10    3.01
   6   0   6   23.67    3.83
  -6   0  -7   16.54    2.40
   6   0   7    8.56    3.87
   6   0   8   16.59    2.60
   6   0   9   26.59    4.46
   6   0   9   23.32    7.48
   6   0  10   18.87    4.21
   6   0  10   20.53    4.62
   6   1  -9   25.25    7.62
   6   1  -8   32.81    5.37
   6   1  -8   19.76    6.12
   6   1  -7   47.56    4.57
   6   1  -7   43.30    6.61
   6   1  -6    7.38    2.78
   6   1  -6    9.97    2.85
   6   1  -5   49.90    7.48
   6   1  -5   43.03    6.29
   6   1  -4   34.48    4.63
   6   1  -4   37.08    6.21
   6   1  -3  182.40    6.27
   6   1  -3  213.52   21.43
   6   1  -3  198.10    8.84
   6   1  -2   21.40    3.75
   6   1  -2   31.72    3.27
   6   1  -2   44.78    6.93
   6   1  -2   45.77    6.19
   6   1  -1   29.45    4.72
   6   1  -1   32.58    6.01
   6   1  -1   34.23    6.25
   6   1   0   28.66    4.60
   6   1   0   22.66    4.05
  -6  -1  -1    0.79    1.28
  -6  -1  -1    2.86    2.02
   6   1   1    2.46    2.58
  -6  -1  -2    1.77    1.67
  -6  -1  -2    2.80    0.82
  -6  -1  -2    3.48    1.59
   6   1   2    9.38    3.30
  -6  -1  -3  108.14    5.77
  -6  -1  -3   72.89    6.67
  -6  -1  -3   92.80    4.12
   6   1   3  109.81    6.92
  -6  -1  -4   54.91    6.01
  -6  -1  -4   38.34    4.38
  -6  -1  -4   52.34    4.74
   6   1   4   49.28    5.53
  -6  -1  -5   59.98    7.42
   6   1   5   61.64    7.74
   6   1   6   28.37    3.16
   6   1   6   39.46    4.61
   6   1   7    6.63    2.74
   6   1   8    1.53    2.64
   6   1   8   -1.37    2.48
   6   1   9  124.72    5.73
   6   1   9  115.62    5.35
   6   1  10   23.80    4.82
   6   1  10   16.50    3.30
   6   1  11   18.27    4.26
   6   1  11    7.37    2.03
  -6  -2   8    2.89    2.85
   6   2  -8    2.16    1.22
  -6  -2   7    3.83    4.21
   6   2  -7    6.34    2.77
  -6  -2   6    7.59    2.91
   6   2  -6    4.24    1.71
  -6  -2   5   17.95    3.46
   6   2  -5   11.75    3.23
  -6  -2   4    9.99    4.13
   6   2  -4    3.58    1.55
   6   2  -3   19.94    1.15
  -6  -2   3   18.21    3.36
   6   2  -3   21.31    5.68
   6   2  -2  354.34   11.75
  -6  -2   2  395.21   14.29
   6   2  -2  376.23   13.91
   6   2  -1   21.00    3.89
   6   2  -1   49.40    4.86
  -6  -2   1   41.33    5.14
   6   2   0    1.78    1.62
  -6  -2   0    2.43    2.20
   6   2   0    5.79    1.79
   6   2   1  142.63    7.27
  -6  -2  -1  139.78    6.44
   6   2   1  132.86    7.40
   6   2   2    9.16    2.45
  -6  -2  -2    6.91    1.78
   6   2   2   23.32    5.17
   6   2   3  119.22    5.90
  -6  -2  -3  101.71    4.40
  -6  -2  -3  128.80    5.64
   6   2   3  135.16    7.77
   6   2   4   63.62    6.94
  -6  -2  -4   45.78    5.48
  -6  -2  -4   56.82    5.16
   6   2   4   55.22    5.92
   6   2   5   80.75    9.50
  -6  -2  -5   72.56    7.77
  -6  -2  -5   78.48    8.41
   6   2   5   89.56   10.54
   6   2   6   74.90    5.35
   6   2   6   70.26    6.18
   6   2   7   13.72    4.22
   6   2   7    4.17    2.52
   6   2   8    6.17    2.82
   6   2   8    3.75    2.39
   6   2   9   31.66    3.54
   6   2   9   38.77    4.05
   6   2  10   57.22    9.25
   6   2  10   54.70    8.04
   6   2  11    4.90    2.62
   6   2  11   -0.11    1.84
  -6  -3   7    3.93    2.81
   6   3  -7    4.34    2.42
  -6  -3   6    2.09    2.88
   6   3  -6    1.82    1.22
  -6  -3   5   41.90    5.20
   6   3  -5   26.99    6.68
  -6  -3   4   15.21    3.38
   6   3  -4   17.52    2.72
  -6  -3   3    6.10    3.88
   6   3  -3    5.75    1.96
   6   3  -2   15.37    1.41
  -6  -3   2   29.05    3.25
   6   3  -2   17.27    3.85
   6   3  -1  177.60    6.49
  -6  -3   1  186.11    7.89
   6   3   0    2.29    1.47
  -6  -3   0    4.44    2.40
   6   3   0    4.20    1.80
   6   3   1  431.51   14.31
  -6  -3  -1  423.69   14.31
   6   3   1  434.15   15.60
   6   3   2   49.22    5.51
  -6  -3  -2   47.92    4.89
   6   3   2   54.49    7.49
   6   3   3  137.19    6.12
  -6  -3  -3  137.32    5.35
   6   3   3  163.97    7.70
   6   3   4    5.27    2.82
  -6  -3  -4    1.59    0.65
  -6  -3  -4    4.89    1.90
   6   3   4    6.91    2.73
   6   3   5  246.02    9.81
  -6  -3  -5  239.50    8.06
   6   3   5  258.40   10.60
   6   3   6  100.10    6.56
   6   3   6   96.29    6.07
   6   3   7   59.35    4.98
   6   3   7   64.17    4.71
   6   3   8    4.32    2.64
   6   3   8    9.18    2.48
   6   3   9    6.16    2.74
   6   3   9    1.57    1.91
   6   3  10    6.96    3.36
   6   3  10    5.56    2.15
   6   3  11   57.12    6.21
   6   3  11   61.40    4.86
  -6  -4   7    8.41    4.72
   6   4  -7    8.23    3.25
   6   4  -6   14.35    3.76
  -6  -4   5   14.90    3.16
   6   4  -5   18.15    4.54
  -6  -4   4  213.37   14.01
   6   4  -4  215.33   13.28
  -6  -4   3    7.59    2.85
   6   4  -3    8.07    1.90
  -6  -4   2   21.63    4.12
   6   4  -2   20.29    2.70
   6   4  -1   88.16    4.16
  -6  -4   1   78.72    5.24
   6   4  -1   76.81   11.25
   6   4   0   -1.29    1.24
  -6  -4   0    3.12    2.47
   6   4   0    1.86    1.70
   6   4   1   75.86    8.74
  -6  -4  -1   83.55    9.82
   6   4   1   87.92   13.65
   6   4   2   10.01    2.24
  -6  -4  -2   10.12    2.74
   6   4   2   12.80    3.56
   6   4   3   82.34    9.54
  -6  -4  -3   91.84    4.47
   6   4   3   91.47   10.22
   6   4   4  264.70   10.29
  -6  -4  -4  236.23    8.47
   6   4   4  236.41   19.32
   6   4   5    4.80    2.30
  -6  -4  -5    4.45    1.42
   6   4   5    5.40    2.45
   6   4   6  113.42    7.04
  -6  -4  -6   95.75    4.29
   6   4   6  113.82    6.75
   6   4   7    5.08    3.08
   6   4   7    5.36    2.27
   6   4   8    4.08    2.67
   6   4   8    6.66    2.72
   6   4   9    3.93    1.88
   6   4  10   10.57    4.67
   6   4  10    6.81    2.16
   6   4  11   30.42    3.69
   6   4  11   41.07    3.70
  -6  -5   6    4.08    2.89
   6   5  -6    2.51    1.18
  -6  -5   5    7.79    2.89
   6   5  -5    8.44    2.95
  -6  -5   4   34.80    4.22
   6   5  -4   31.60    5.97
  -6  -5   3  106.81    8.63
   6   5  -3   77.44    9.29
  -6  -5   2    4.00    2.71
   6   5  -2    3.32    1.84
   6   5  -1    9.51    1.45
  -6  -5   1   14.82    3.74
   6   5  -1   14.85    2.96
   6   5   0    2.59    1.16
  -6  -5   0    2.93    2.47
   6   5   0    4.72    1.88
   6   5   1   94.89    5.27
  -6  -5  -1   95.47    5.39
   6   5   1   83.63   11.88
   6   5   2    2.07    1.66
  -6  -5  -2    1.71    2.43
   6   5   2    0.90    1.85
   6   5   3    5.21    2.33
  -6  -5  -3   13.99    2.55
   6   5   3    9.00    2.58
   6   5   4  102.57    5.64
  -6  -5  -4  130.20    6.60
   6   5   4  119.80   11.18
   6   5   5  100.82    6.65
  -6  -5  -5   99.65    5.10
   6   5   5  110.94   15.00
   6   5   6    3.04    2.36
  -6  -5  -6    2.52    1.52
   6   5   6    5.85    2.35
   6   5   7  142.81    8.51
   6   5   7  118.41   12.57
   6   5   8    2.98    2.86
   6   5   8    7.35    2.36
   6   5   9   60.40    4.42
   6   5   9   57.42    3.40
   6   5  10    6.58    3.29
   6   5  10   10.79    3.05
   6   5  11   38.22    5.07
   6   5  11   25.17    4.67
  -6  -6   5    3.73    2.99
   6   6  -5    6.08    1.81
  -6  -6   4   51.93    8.52
   6   6  -4   46.57   11.03
  -6  -6   3    2.23    2.41
   6   6  -3    0.66    1.70
  -6  -6   2   14.74    3.09
   6   6  -2    6.02    1.83
  -6  -6   1   48.57    3.94
   6   6  -1   39.72    6.66
   6   6   0  102.26    5.36
  -6  -6   0  109.91    7.34
   6   6   0   96.16   11.20
   6   6   1  147.37    3.76
  -6  -6  -1  158.84    5.84
   6   6   1  146.26   17.30
   6   6   2   42.99    2.96
  -6  -6  -2   43.36    3.47
   6   6   2   43.80    4.66
   6   6   3   30.68    3.11
  -6  -6  -3   38.27    3.35
   6   6   3   24.41    3.76
   6   6   4   55.20    3.77
  -6  -6  -4   46.13    3.05
   6   6   4   47.60    4.84
   6   6   5   72.17    4.56
  -6  -6  -5   59.90    2.96
   6   6   5   63.78    8.29
   6   6   6   -0.83    2.27
  -6  -6  -6    6.06    1.20
   6   6   6    3.14    1.47
   6   6   7  180.32    5.79
  -6  -6  -7  172.71    3.54
   6   6   7  181.22   12.26
   6   6   8  218.75   14.13
   6   6   8  163.88   21.90
   6   6   9   12.30    2.90
   6   6   9    5.37    1.55
   6   6  10    2.47    2.78
   6   6  10    5.99    1.70
   6   6  11   15.15    4.77
  -6  -7   3   11.30    3.59
   6   7  -3    6.78    2.28
  -6  -7   2    8.21    4.23
   6   7  -2    2.33    1.79
  -6  -7   1    4.71    2.88
   6   7  -1   -2.63    1.98
  -6  -7   0  213.77   13.68
   6   7   0  174.59   25.63
   6   7   1  335.42    6.04
  -6  -7  -1  356.24   39.84
   6   7   1  343.07   11.30
   6   7   2   11.03    2.70
  -6  -7  -2   14.37    3.66
   6   7   2    6.02    2.87
   6   7   3   76.42    4.06
  -6  -7  -3   74.82    4.03
   6   7   3   71.90    6.09
   6   7   4   36.31    4.45
  -6  -7  -4   39.05    4.62
   6   7   4   28.74    5.20
   6   7   5   95.68    4.20
  -6  -7  -5  121.90    4.11
   6   7   5  104.15   12.48
   6   7   6    6.92    3.36
  -6  -7  -6   10.04    2.41
   6   7   6    7.51    2.62
   6   7   7   64.92    5.69
   6   7   7   51.21    6.96
   6   7   8    3.20    2.41
   6   7   8   10.16    2.43
   6   7   9   39.03    4.53
   6   7   9   37.99    5.61
   6   7  10   46.93    6.26
   6   7  10   31.92    6.74
   6   7  11    8.40    3.43
  -6  -8   2    0.11    3.30
   6   8  -2    2.95    2.44
  -6  -8   1    7.62    3.22
   6   8  -1    5.10    3.08
  -6  -8   0   44.62    4.97
   6   8   0   31.85    6.69
   6   8   1    2.82    1.37
  -6  -8  -1    2.49    2.57
   6   8   1   -0.07    2.00
   6   8   2    4.94    1.86
  -6  -8  -2    4.12    2.55
   6   8   2    4.92    1.84
   6   8   3   12.89    2.86
  -6  -8  -3    6.38    2.42
   6   8   3    7.65    1.65
   6   8   4  151.97   10.03
   6   8   4  135.04   17.02
   6   8   5   77.64    6.19
  -6  -8  -5   76.83    6.17
   6   8   5   74.16    7.82
   6   8   6    4.29    2.45
  -6  -8  -6    4.96    1.93
   6   8   6    2.99    1.78
   6   8   7   -3.50    2.19
  -6  -8  -7    5.50    2.37
   6   8   7    2.82    1.05
   6   8   8   19.83    4.91
   6   8   8   22.81    7.57
   6   8   9    6.49    2.82
   6   8   9    6.28    1.65
   6   8  10    8.55    3.39
   6   8  10    5.60    1.54
  -6  -9   0    4.82    2.81
   6   9   0    3.79    2.03
  -6  -9  -1    5.60    4.20
   6   9   1    7.59    2.67
   6   9   2    8.38    1.49
  -6  -9  -2    1.66    2.60
   6   9   2    6.17    2.40
   6   9   3    7.24    2.52
  -6  -9  -3    6.64    2.45
   6   9   3    3.95    2.09
   6   9   4    7.71    2.41
  -6  -9  -4    4.93    2.50
   6   9   4   10.20    3.39
   6   9   5  103.71    7.08
  -6  -9  -5  107.37    6.66
   6   9   5   87.63   13.82
   6   9   6   92.75   13.44
  -6  -9  -6   70.04    9.91
   6   9   6   58.30   12.49
   6   9   7    2.09    2.39
  -6  -9  -7    1.14    1.72
   6   9   7    2.93    1.41
   6   9   8   32.41    3.83
  -6  -9  -8   20.10    3.92
   6   9   8   23.41    5.95
   6   9   9   43.01    5.91
   6   9   9   26.00    7.86
   6  10   3    6.24    2.46
  -6 -10  -3   10.68    3.28
   6  10   3    4.43    1.72
   6  10   4   14.47    3.41
  -6 -10  -4   12.33    4.03
   6  10   4    4.85    1.77
   6  10   5   11.20    3.16
  -6 -10  -5   12.65    3.27
   6  10   5   13.20    4.71
  -6 -10  -6    6.63    2.50
   6  10   6    4.79    2.12
   6  10   7   15.10    2.96
  -6 -10  -7    6.57    2.25
   6  10   7   12.47    3.27
  -7   8   6    1.85    1.24
   7  -8  -6    2.18    1.58
   7  -8  -6    2.30    1.87
  -7   8   5    9.00    2.90
   7  -8  -5   14.43    4.01
   7  -8  -5   16.05    4.06
  -7   8   4   15.46    3.28
   7  -8  -4   19.40    3.99
   7  -8  -4   16.86    3.65
  -7   8   3   12.11    3.04
   7  -8  -3   15.65    3.47
   7  -8  -3   19.61    4.30
  -7   8   2   11.70    2.59
   7  -8  -2   10.93    2.37
   7  -8  -2   12.23    4.59
  -7   8   1    4.08    2.00
   7  -8  -1    9.14    2.60
   7  -8  -1    6.61    3.14
  -7   8   0    8.48    2.27
   7  -8   0    6.43    1.97
   7  -8   0    7.79    3.02
  -7   7   7   13.01    2.96
   7  -7  -7    7.12    1.93
   7  -7  -7   11.67    3.07
  -7   7   6   74.09    8.26
   7  -7  -6   73.39    7.51
   7  -7  -6   87.66    4.36
  -7   7   5   31.50    6.33
   7  -7  -5   31.15    6.32
   7  -7  -5   20.06    3.36
  -7   7   4   11.77    3.32
   7  -7  -4    7.28    2.47
   7  -7  -4    3.13    2.42
  -7   7   3    6.08    2.26
   7  -7  -3   16.93    3.97
  -7   7   2    3.16    2.79
   7  -7  -2    3.44    1.49
   7  -7  -2    7.22    2.82
  -7   7   1   14.60    4.02
   7  -7  -1   15.83    3.74
   7  -7  -1   16.69    4.38
  -7   7   0    4.21    3.09
   7  -7   0    1.18    1.19
   7  -7   0    0.99    2.93
  -7   7  -1   32.69    6.65
   7  -7   1   40.12    5.15
  -7   7  -2   50.39    8.43
   7  -7   2   65.69    5.42
   7  -6  -8   62.26   12.07
  -7   6   7    8.86    3.51
   7  -6  -7   11.93    3.29
   7  -6  -7   11.72    2.69
  -7   6   6   19.18    4.67
   7  -6  -6   14.52    3.13
   7  -6  -6   13.03    2.39
  -7   6   5   60.81   13.30
   7  -6  -5   79.23    7.72
   7  -6  -5   74.23    5.13
  -7   6   4   24.42    3.14
   7  -6  -4   26.02    3.79
   7  -6  -4   27.19    3.27
  -7   6   3   41.38    7.03
   7  -6  -3   52.93    5.67
   7  -6  -3   44.92    3.58
  -7   6   2    0.89    1.44
   7  -6  -2    5.47    1.79
   7  -6  -2    2.52    2.89
  -7   6   1   66.77    9.44
   7  -6  -1   43.38    5.36
   7  -6  -1   52.11    4.13
  -7   6   0   47.37    8.90
   7  -6   0   42.89    4.31
   7  -6   0   50.44    4.62
   7  -6   1    3.99    1.49
   7  -6   1    1.40    4.12
  -7   6  -2   44.82    8.03
   7  -6   2   52.48    9.15
  -7   6  -3    4.18    2.32
   7  -6   3    3.50    3.20
  -7   6  -4    5.23    3.49
   7  -6   4   12.16    5.36
   7  -5  -8    3.40    1.25
   7  -5  -8    2.96    1.55
   7  -5  -7  112.41   21.98
   7  -5  -7  100.30   17.47
  -7   5   6    2.52    1.18
   7  -5  -6    3.85    1.50
   7  -5  -6    5.64    2.12
  -7   5   5   33.20    3.77
   7  -5  -5   38.40    4.00
   7  -5  -5   39.77    3.15
  -7   5   4   12.34    1.92
   7  -5  -4   11.90    2.11
   7  -5  -4    8.45    2.58
  -7   5   3    8.69    7.56
   7  -5  -3    3.02    1.58
   7  -5  -3    8.62    3.61
  -7   5   2   14.11    2.72
   7  -5  -2   16.71    2.70
   7  -5  -2   18.45    3.30
  -7   5   1   16.32    3.64
   7  -5  -1   20.61    3.58
   7  -5  -1   14.22    2.91
  -7   5   0   16.43    2.91
   7  -5   0   13.46    2.67
   7  -5   0   15.45    2.96
  -7   5  -1   19.37    3.68
   7  -5   1   14.10    2.18
   7  -5   1   11.89    3.32
  -7   5  -2    3.29    2.31
  -7   5  -3    4.20    1.73
   7  -5   3   10.35    3.57
  -7   5  -4    3.34    2.26
  -7   5  -5    4.02    2.01
   7  -5   5    3.00    3.04
   7  -4  -8   99.64   15.06
   7  -4  -8   72.97   13.08
   7  -4  -7   11.07    3.67
   7  -4  -7    9.37    2.55
  -7   4   6   45.29    8.21
   7  -4  -6   62.30    6.96
   7  -4  -6   71.74    4.69
  -7   4   5    3.18    1.46
   7  -4  -5    6.04    2.00
   7  -4  -5    3.71    2.83
  -7   4   4    2.22    1.79
   7  -4  -4    3.80    1.33
   7  -4  -4    1.30    2.98
  -7   4   3    1.40    0.94
   7  -4  -3   10.21    2.46
   7  -4  -3    6.81    2.55
  -7   4   2    1.17    2.06
   7  -4  -2    4.00    1.51
   7  -4  -2    6.11    3.49
  -7   4   1   16.35    3.69
   7  -4  -1   16.50    2.52
   7  -4  -1   11.21    3.04
  -7   4   0    4.80    2.00
   7  -4   0    3.13    1.38
   7  -4   0    5.75    3.00
  -7   4  -1    3.16    1.75
   7  -4   1    0.89    0.90
   7  -4   1   -0.21    2.80
  -7   4  -2   11.85    5.94
   7  -4   2    6.31    1.04
  -7   4  -3   -0.67    2.11
   7  -4   3    7.67    3.01
  -7   4  -4    8.74    2.15
   7  -4   4   12.49    4.66
  -7   4  -5    9.56    3.50
   7  -4   5   12.74    4.20
  -7   4  -6    3.46    1.73
   7  -4   6    2.13    3.17
   7  -3  -8   18.20    5.24
   7  -3  -8   14.08    4.41
   7  -3  -7    9.32    2.95
   7  -3  -7    6.16    2.04
   7  -3  -6   10.67    2.51
   7  -3  -6    4.40    2.04
  -7   3   5    1.38    0.90
   7  -3  -5    3.76    1.86
   7  -3  -5    7.58    3.09
  -7   3   4   12.08    2.22
   7  -3  -4   19.13    2.78
   7  -3  -4   12.72    2.76
  -7   3   3    5.39    1.75
   7  -3  -3    5.50    1.68
   7  -3  -3    3.68    2.32
  -7   3   2   25.39    4.91
   7  -3  -2   33.74    4.17
   7  -3  -2   28.81    3.08
  -7   3   1   55.36    4.29
   7  -3  -1   62.25    4.08
   7  -3  -1   51.25    4.34
  -7   3   0   45.50    7.52
   7  -3   0   39.60    4.75
   7  -3   0   38.73    3.58
  -7   3  -1   36.15    5.04
   7  -3   1   29.20    3.78
   7  -3   1   29.05    2.67
  -7   3  -2   33.22    4.33
   7  -3   2   14.51    2.54
   7  -3   2   15.16    3.58
  -7   3  -3   65.84    7.46
   7  -3   3   71.90    5.52
  -7   3  -4   37.59    6.12
   7  -3   4   31.71    4.95
  -7   3  -5    5.28    2.09
   7  -3   5    1.63    2.97
  -7   3  -6   22.02    4.50
   7  -3   6   29.09    6.24
  -7   3  -7    9.38    3.19
   7  -3   7   26.43    4.31
   7  -2  -8    4.64    2.46
   7  -2  -8    1.00    1.40
   7  -2  -7   16.95    4.25
   7  -2  -7   13.47    3.02
   7  -2  -6   30.08    4.41
   7  -2  -6   17.60    3.34
   7  -2  -5   95.88    7.86
   7  -2  -5   88.73    8.53
  -7   2   4   45.21    6.16
   7  -2  -4   62.28    9.35
   7  -2  -4   66.38    5.24
  -7   2   3  150.23   14.47
   7  -2  -3  154.35   14.42
   7  -2  -3  178.84    9.68
  -7   2   2    1.63    1.07
   7  -2  -2    4.31    1.40
   7  -2  -2    0.74    2.30
  -7   2   1    7.16    1.43
   7  -2  -1    4.65    1.49
   7  -2  -1    3.69    2.65
  -7   2   0   35.25    5.09
   7  -2   0   26.86    3.56
   7  -2   0   26.44    3.37
  -7   2  -1   16.91    2.64
   7  -2   1    9.46    1.50
   7  -2   1    8.40    2.71
  -7   2  -2   18.72    3.13
   7  -2   2   10.91    1.88
   7  -2   2   10.48    3.18
  -7   2  -3   13.61    2.71
   7  -2   3   20.31    3.67
  -7   2  -4   53.52    7.01
   7  -2   4   55.11    5.39
  -7   2  -5    7.39    2.43
   7  -2   5   19.67    4.73
  -7   2  -6   27.78    3.86
   7  -2   6   28.83    3.50
  -7   2  -7    8.96    3.24
   7  -2   7    8.05    3.13
  -7   2  -8   19.23    4.71
   7  -2   8   24.27    4.65
   7  -1  -8    7.79    2.94
   7  -1  -8    2.60    1.93
   7  -1  -7    4.32    2.83
   7  -1  -7    8.37    2.23
   7  -1  -6    9.15    2.51
   7  -1  -6    7.67    2.73
   7  -1  -5  119.95   17.15
   7  -1  -5  102.35   14.74
  -7   1   4   18.44    3.29
   7  -1  -4   29.76    4.54
   7  -1  -4   26.95    3.45
  -7   1   3   17.40    2.86
   7  -1  -3   19.94    3.21
   7  -1  -3   20.70    2.98
  -7   1   2   41.55    4.35
   7  -1  -2   47.51    4.84
   7  -1  -2   34.42    3.45
  -7   1   1   20.28    2.39
   7  -1  -1   16.62    3.13
   7  -1  -1   11.54    2.77
  -7   1   0   18.16    2.98
   7  -1   0   13.32    2.38
   7  -1   0   11.11    2.71
  -7   1  -1    3.41    1.06
   7  -1   1    3.43    1.33
   7  -1   1    4.70    3.68
  -7   1  -2    4.55    1.63
   7  -1   2    1.30    0.52
   7  -1   2    8.35    4.04
  -7   1  -3   13.27    2.45
  -7   1  -3   14.85    1.22
   7  -1   3    8.07    2.83
  -7   1  -4   57.87    8.39
   7  -1   4   40.67    3.89
  -7   1  -5    5.68    2.94
   7  -1   5    9.01    3.34
  -7   1  -6   27.10    3.92
   7  -1   6   45.99    5.11
  -7   1  -7   49.53    4.32
   7  -1   7   45.82    4.77
  -7   1  -8    9.56    3.14
   7  -1   8   20.61    4.27
   7   0  -8    1.92    1.04
   7   0  -8    3.50    1.67
   7   0  -7   41.22    9.00
   7   0  -7   28.19    7.49
   7   0  -6    5.44    2.06
   7   0  -6    8.68    3.62
   7   0  -5    8.19    2.40
   7   0  -5   10.37    3.21
   7   0  -4   39.87    5.41
   7   0  -4   42.90    6.21
   7   0  -3   35.56    2.14
   7   0  -3   40.13    4.95
   7   0  -3   36.65    6.83
  -7   0   2   38.25    2.34
   7   0  -2   39.50    5.83
   7   0  -2   52.74    4.58
  -7   0   1    7.60    1.43
   7   0  -1    3.39    1.20
   7   0  -1    8.78    3.41
  -7   0   0    2.12    1.38
   7   0   0    2.22    0.99
  -7   0  -1   40.02    4.33
   7   0   1   40.10    3.00
   7   0   1   34.27    3.84
  -7   0  -2  119.19   11.51
  -7   0  -2  137.79    6.40
   7   0   2  127.77    8.10
  -7   0  -3    8.71    2.00
  -7   0  -3   10.92    1.21
   7   0   3   14.57    2.52
  -7   0  -4    2.48    2.16
   7   0   4    5.82    3.17
  -7   0  -5   84.62    5.91
   7   0   5   59.70    5.45
  -7   0  -6   19.12    2.75
   7   0   6   21.96    3.96
  -7   0  -7   79.48    4.38
   7   0   7   97.65    5.80
   7   0   8   37.21    6.71
   7   0   8   33.90    5.93
   7   0   9   21.26    4.84
   7   0   9   11.10    4.09
   7   1  -7    3.60    2.27
   7   1  -6  110.93   15.64
   7   1  -6   80.61   15.23
   7   1  -5   49.62    3.22
   7   1  -4   30.01    4.06
   7   1  -4   32.31    5.56
   7   1  -3   28.69    5.26
   7   1  -3   30.06    5.53
   7   1  -2   24.16    1.77
   7   1  -2   34.52    2.73
   7   1  -2   25.22    3.95
   7   1  -1   69.46    2.74
   7   1  -1   71.74    3.24
   7   1  -1   77.04    9.47
  -7  -1   0    2.52    1.90
   7   1   0    1.27    2.15
   7   1   1   80.18    4.88
  -7  -1  -1   81.78    4.59
   7   1   1  102.15    6.55
  -7  -1  -2    3.33    1.49
   7   1   2    5.63    3.77
  -7  -1  -3   40.45    2.68
   7   1   3   47.03    4.71
   7   1   4   37.54    3.53
   7   1   5   10.15    3.61
   7   1   5    0.13    2.79
   7   1   6  114.40    5.82
   7   1   6  116.36    5.57
   7   1   7    5.60    2.94
   7   1   7    8.46    3.17
   7   1   8   28.82    4.41
   7   1   8   44.26    5.14
   7   1   9   18.56    4.64
   7   1   9   18.52    4.40
  -7  -2   6   22.92    5.42
   7   2  -6   18.66    5.44
  -7  -2   5  107.32    7.34
   7   2  -5   83.72   17.07
  -7  -2   4   10.10    2.74
   7   2  -4    9.89    3.07
  -7  -2   3   58.42    4.54
   7   2  -3   50.97   11.32
   7   2  -2   11.11    1.17
  -7  -2   2   12.91    3.61
   7   2  -2   12.55    3.24
   7   2  -1   26.64    2.06
  -7  -2   1   20.53    2.62
   7   2  -1   19.38    3.18
   7   2   0   22.33    2.34
  -7  -2   0   22.54    2.98
   7   2   0   17.30    2.61
   7   2   1   67.40    4.25
  -7  -2  -1   59.47    3.92
   7   2   1   81.75    6.01
   7   2   2    2.33    1.94
  -7  -2  -2    6.83    2.47
   7   2   2    2.59    2.47
   7   2   3    8.97    1.69
  -7  -2  -3   10.97    1.31
   7   2   3   16.24    3.20
   7   2   4   35.38    3.58
  -7  -2  -4   32.47    1.94
   7   2   4   34.20    3.11
   7   2   5   23.39    3.47
   7   2   5   27.24    4.08
   7   2   6    3.28    2.38
   7   2   6    4.47    3.48
   7   2   7    4.74    2.78
   7   2   7    1.99    2.59
   7   2   8   37.13    5.17
   7   2   8   23.52    7.66
   7   2   9    5.39    2.75
   7   2  10   67.53    8.54
   7   2  10   65.37    7.60
  -7  -3   6    5.72    3.00
   7   3  -6    0.82    1.45
  -7  -3   5   16.17    3.55
   7   3  -5   15.14    2.84
  -7  -3   4   54.55    5.39
   7   3  -4   48.41    7.89
  -7  -3   3    4.12    2.69
   7   3  -3    7.28    2.33
  -7  -3   2   13.05    2.41
   7   3  -2   15.39    2.75
   7   3  -1    2.25    1.39
  -7  -3   1    0.30    2.35
   7   3   0   39.87    2.39
  -7  -3   0   42.75    3.71
   7   3   0   38.98    6.03
   7   3   1    3.31    1.56
  -7  -3  -1   -0.24    1.84
   7   3   1   11.15    2.97
   7   3   2   15.39    2.47
  -7  -3  -2   18.76    2.14
   7   3   2   12.54    3.18
   7   3   3   -1.26    2.00
  -7  -3  -3    2.68    2.22
   7   3   3    7.35    3.88
   7   3   4    9.99    2.56
  -7  -3  -4    6.74    1.58
   7   3   4    8.58    3.71
   7   3   5    2.20    2.56
   7   3   5    7.44    2.61
   7   3   6    0.53    2.32
   7   3   6   -1.34    2.21
   7   3   7   18.70    4.16
   7   3   7   12.74    2.25
   7   3   8    0.32    2.54
   7   3   8    8.21    2.84
   7   3   9   75.57   11.07
   7   3   9   65.21    9.61
   7   3  10    3.37    2.98
  -7  -4   5   42.28    6.37
   7   4  -5   25.13    4.31
  -7  -4   4    6.69    3.01
   7   4  -4    7.19    2.29
  -7  -4   3   21.11    5.32
   7   4  -3   11.92    3.60
  -7  -4   2   21.90    4.40
   7   4  -2   19.32    5.15
  -7  -4   1    3.08    2.39
   7   4  -1   -3.14    2.13
   7   4   0    4.02    1.29
  -7  -4   0    9.50    3.42
   7   4   0    4.84    1.56
   7   4   1   12.65    1.77
  -7  -4  -1   18.78    2.50
   7   4   1   25.07    3.45
   7   4   2   52.24    3.88
  -7  -4  -2   41.51    3.30
   7   4   2   59.14    7.97
   7   4   3  101.53    5.84
  -7  -4  -3  120.84    6.43
   7   4   3   98.69   15.23
   7   4   4    8.39    3.28
  -7  -4  -4    4.34    1.39
   7   4   4    7.39    3.28
   7   4   5   17.45    3.25
  -7  -4  -5   13.71    1.71
   7   4   5   14.63    3.32
   7   4   6    9.64    2.83
   7   4   6    5.71    3.14
   7   4   7   39.11    4.00
   7   4   7   26.85    3.08
   7   4   8   21.15    4.93
   7   4   8   21.49    4.64
   7   4   9   11.69    2.87
   7   4   9    8.87    2.97
   7   4  10  106.71   12.37
   7   4  10   92.16    9.85
  -7  -5   4   12.62    4.26
   7   5  -4    5.74    2.33
  -7  -5   3    3.69    2.95
   7   5  -3    3.99    1.90
  -7  -5   2    3.85    2.43
   7   5  -2    9.74    2.51
  -7  -5   1   27.27    3.60
   7   5  -1   24.98    4.64
   7   5   0   16.65    2.32
  -7  -5   0   17.24    2.90
   7   5   0   20.09    3.18
   7   5   1  113.88    3.82
  -7  -5  -1  113.72    4.67
   7   5   1  120.82   12.58
   7   5   2   22.67    3.38
  -7  -5  -2   23.44    3.34
   7   5   2   34.56    7.22
   7   5   3   56.28    3.52
  -7  -5  -3   54.55    4.03
   7   5   3   62.77    7.97
   7   5   4   70.43    5.13
  -7  -5  -4   57.81    3.01
   7   5   4   59.09    5.50
   7   5   5    7.37    3.21
  -7  -5  -5    4.90    1.64
   7   5   5    5.03    1.67
   7   5   6   16.92    3.21
   7   5   6   16.52    2.70
   7   5   7   45.68    3.67
   7   5   7   37.17    5.79
   7   5   8   77.83    7.07
   7   5   8   58.17   10.57
   7   5   9   18.31    4.99
   7   5   9    7.05    2.53
   7   5  10   68.68    8.34
   7   5  10   70.62    8.23
  -7  -6   3    4.67    2.31
   7   6  -3    7.25    2.49
  -7  -6   2    5.75    3.67
  -7  -6   1   60.69    5.52
   7   6  -1   39.95    7.67
  -7  -6   0    5.45    2.79
   7   6   0    9.48    3.03
   7   6   1   76.86    3.31
  -7  -6  -1   78.96    4.96
   7   6   1   64.35   10.68
   7   6   2    1.79    1.54
  -7  -6  -2    6.94    2.39
   7   6   2    3.29    1.50
   7   6   3    5.80    2.73
  -7  -6  -3    2.82    1.86
   7   6   3    5.56    2.00
   7   6   4    3.55    3.26
  -7  -6  -4   -0.13    1.55
   7   6   4    2.78    1.20
   7   6   5    2.35    3.07
  -7  -6  -5    5.32    2.34
   7   6   5    4.04    1.36
   7   6   6   14.15    2.72
   7   6   6    5.87    2.33
   7   6   7   10.05    2.71
   7   6   8    2.45    2.85
   7   6   8    4.53    2.14
   7   6   9   18.29    5.03
   7   6   9   10.73    3.24
  -7  -7   1    1.81    3.05
   7   7  -1    3.39    2.11
  -7  -7   0   41.87    6.97
   7   7   0   28.61    6.42
  -7  -7  -1   89.22   12.82
   7   7   1   69.69   15.81
   7   7   2    7.93    2.53
  -7  -7  -2    1.68    2.17
   7   7   2    2.72    2.99
   7   7   3   11.62    3.25
   7   7   4    5.56    3.03
  -7  -7  -4    4.30    2.65
   7   7   4    8.23    2.04
   7   7   5   16.57    4.08
   7   7   5   10.62    2.68
   7   7   6    4.35    2.39
  -7  -7  -6    5.90    1.67
   7   7   6    3.34    1.71
   7   7   7   47.35    7.30
   7   7   7   44.39    7.62
   7   7   8   18.06    5.00
   7   7   8   16.66    4.17
   7   7   9    4.89    3.57
   7   7   9    4.01    1.77
  -7  -8  -1   56.35    6.69
   7   8   1   37.99    8.61
  -7  -8  -2    3.15    2.31
   7   8   2    7.45    2.90
   7   8   3    0.46    1.64
  -7  -8  -3    4.98    3.40
   7   8   3    5.21    2.96
   7   8   4   23.53    3.79
  -7  -8  -4   21.98    3.56
   7   8   4   18.27    3.57
   7   8   5   10.51    2.32
  -7  -8  -5   14.53    3.65
   7   8   5    8.70    2.86
   7   8   6    5.74    2.49
  -7  -8  -6    4.26    1.60
   7   8   6    6.62    2.75
   7   8   7   59.82    5.17
   7   8   7   37.28    5.38
   7   8   8   23.64    4.39
   7   8   8   15.45    2.94
   7   9   4    2.96    1.97
  -7  -9  -4   12.15    3.82
   7   9   4    4.52    1.27
   7   9   5   26.70    4.19
  -7  -9  -5   22.83    3.62
   7   9   5   24.58    3.86
  -8   6   4   20.60    5.19
   8  -6  -4   30.18    4.38
   8  -6  -4   18.44    3.42
  -8   6   3    4.55    1.75
   8  -6  -3    4.04    2.44
   8  -6  -3    3.44    2.44
  -8   6   2   41.00    5.68
   8  -6  -2   41.31    5.53
   8  -6  -2   53.51    5.34
  -8   6   1   53.59    7.28
   8  -6  -1   49.69    6.70
   8  -6  -1   73.87    5.13
  -8   6   0    3.99    1.62
   8  -6   0    7.30    2.97
  -8   6  -1    7.62    2.95
   8  -6   1    9.91    3.36
  -8   5   5    3.14    1.38
   8  -5  -5    4.94    1.98
   8  -5  -5   10.76    3.39
  -8   5   4   17.67    3.96
   8  -5  -4   30.61    5.01
   8  -5  -4   26.43    3.50
  -8   5   3   50.03   10.70
   8  -5  -3   45.72    7.90
   8  -5  -3   53.01    8.40
  -8   5   2    1.21    1.18
   8  -5  -2    1.83    1.11
   8  -5  -2    1.70    2.49
  -8   5   1   90.46   17.64
   8  -5  -1   83.27   13.26
   8  -5  -1  123.93   17.57
  -8   5   0   11.10    2.44
   8  -5   0    3.53    1.50
   8  -5   0    8.72    3.59
  -8   5  -1   12.39    3.29
   8  -5   1   16.46    4.73
  -8   5  -2    3.00    1.38
   8  -5   2    9.32    3.52
  -8   5  -3    6.53    2.64
   8  -5   3    7.71    3.50
   8  -4  -6    3.95    1.99
   8  -4  -6    2.29    2.42
   8  -4  -5    3.79    2.01
   8  -4  -5    4.65    3.15
  -8   4   4    2.68    1.16
   8  -4  -4    3.19    1.70
   8  -4  -4    4.67    3.36
  -8   4   3   33.30    5.47
   8  -4  -3   51.14    5.98
   8  -4  -3   44.98    4.28
  -8   4   2   18.32    4.00
   8  -4  -2   21.45    4.64
   8  -4  -2   16.57    4.15
  -8   4   1    7.97    3.18
   8  -4  -1    7.66    2.27
   8  -4  -1   11.12    3.27
  -8   4   0    2.79    1.26
   8  -4   0    0.69    0.66
   8  -4   0    6.96    3.75
  -8   4  -1    8.07    3.72
   8  -4   1    9.92    4.30
  -8   4  -2    4.46    1.87
   8  -4   2   12.16    3.23
  -8   4  -3    5.83    2.16
   8  -4   3   11.00    3.65
  -8   4  -4   41.40    9.56
   8  -4   4   57.38    8.26
   8  -3  -6   14.34    2.37
   8  -3  -5   12.18    2.96
   8  -3  -5    6.84    3.07
  -8   3   4    1.38    1.06
   8  -3  -4    3.76    2.27
   8  -3  -4    4.49    3.28
  -8   3   3   21.97    6.12
   8  -3  -3   34.38    4.61
   8  -3  -3   35.11    4.28
  -8   3   2   22.01    3.79
   8  -3  -2   24.30    4.21
   8  -3  -2   29.11    4.09
  -8   3   1    7.30    2.32
   8  -3  -1    6.44    1.91
   8  -3  -1   11.32    2.87
  -8   3   0    4.15    1.98
   8  -3   0    5.22    2.07
   8  -3   0    0.70    2.86
  -8   3  -1    7.90    2.45
   8  -3   1    2.86    0.76
   8  -3   1    4.40    4.10
  -8   3  -2    5.58    2.47
   8  -3   2   10.82    3.42
  -8   3  -3   21.03    3.99
   8  -3   3   17.33    3.40
  -8   3  -4   54.44    8.08
   8  -3   4   54.62    5.75
  -8   3  -5   78.77   13.35
   8  -3   5  105.65   12.18
   8  -2  -6   43.19    6.59
   8  -2  -6   46.39    7.67
   8  -2  -5   19.48    3.08
   8  -2  -5   10.81    2.61
   8  -2  -4    0.81    1.39
   8  -2  -4    0.36    2.05
  -8   2   3    1.44    0.69
   8  -2  -3    1.77    1.87
   8  -2  -3    4.92    2.49
  -8   2   2   17.03    3.52
   8  -2  -2   16.24    2.70
   8  -2  -2   27.87    3.19
  -8   2   1   10.32    2.03
   8  -2  -1    6.19    1.08
   8  -2  -1   14.86    4.03
  -8   2   0  162.04   19.45
   8  -2   0  135.61   16.21
   8  -2   0  178.08   11.92
  -8   2  -1   55.13    4.91
   8  -2   1   44.44    5.00
  -8   2  -2   22.71    4.17
   8  -2   2   29.07    4.16
  -8   2  -3   -1.69    2.16
   8  -2   3    9.61    4.35
  -8   2  -4   -1.95    2.28
   8  -2   4    8.32    3.24
  -8   2  -5    4.05    2.27
   8  -2   5    7.25    4.63
  -8   2  -6   25.89    5.38
   8  -2   6   49.30    7.01
   8  -1  -6   51.16   11.34
   8  -1  -6   50.84   10.32
   8  -1  -5    7.24    1.49
   8  -1  -5    5.22    2.52
   8  -1  -4   -0.56    1.89
   8  -1  -4    2.65    1.24
   8  -1  -3    9.41    2.29
   8  -1  -3    7.58    2.57
  -8   1   2    2.60    0.99
   8  -1  -2    2.64    0.93
   8  -1  -2    9.89    3.27
  -8   1   1   23.39    4.70
   8  -1  -1   22.05    3.48
   8  -1  -1   24.78    4.04
  -8   1   0   50.62    7.95
   8  -1   0   64.31    5.71
   8  -1   0   69.32    5.73
  -8   1  -1  718.86  134.91
   8  -1   1  645.18   36.88
   8  -1   1  703.17  131.93
  -8   1  -2  185.35   19.02
   8  -1   2  205.21   13.30
  -8   1  -3    2.87    1.29
   8  -1   3    3.23    2.87
  -8   1  -4    5.43    1.53
   8  -1   4   14.80    3.80
  -8   1  -5    4.28    2.55
   8  -1   5    7.63    4.11
  -8   1  -6   13.42    3.44
   8  -1   6   13.58    3.47
   8   0  -6   49.37   12.17
   8   0  -6   55.69   13.25
   8   0  -5   38.44    5.07
   8   0  -5   35.87    8.59
   8   0  -4    5.35    1.63
   8   0  -4    4.21    2.00
   8   0  -3   27.15    6.03
   8   0  -3   28.61    5.52
   8   0  -2    4.32    1.87
   8   0  -2    3.05    1.36
   8   0  -2    5.70    2.10
   8   0  -1    2.22    1.41
   8   0  -1    2.34    2.62
  -8   0   0   22.11    2.61
   8   0   0   14.44    2.20
   8   0   0    7.42    2.33
  -8   0  -1    9.12    1.96
  -8   0  -1   11.26    2.46
   8   0   1    8.58    3.89
  -8   0  -2  353.57   20.81
  -8   0  -2  317.07   18.10
   8   0   2  371.27   22.21
  -8   0  -3  133.95    8.85
   8   0   3  115.36    8.39
  -8   0  -4   26.94    3.66
   8   0   4   28.84    3.66
  -8   0  -5   14.46    3.57
   8   0   5   12.41    4.53
   8   0   6   10.67    3.11
   8   0   7    3.89    3.02
   8   0   7    4.18    2.66
  -8  -1   5    3.37    2.63
   8   1  -5    0.70    1.80
   8   1  -4    5.48    2.77
  -8  -1   3   41.04    4.64
   8   1  -3   54.46    8.39
  -8  -1   2   74.43    4.46
   8   1  -2   64.62    9.35
   8   1  -1    4.83    1.37
  -8  -1   1    5.55    2.05
   8   1  -1    7.99    2.81
   8   1   0    9.87    2.93
  -8  -1   0    7.16    2.42
   8   1   1    2.40    1.75
  -8  -1  -1    2.33    1.61
   8   1   1    4.11    2.44
   8   1   2    6.81    2.22
  -8  -1  -2    7.54    1.66
   8   1   2    6.70    2.73
   8   1   3   21.03    3.25
   8   1   3    9.96    3.37
   8   1   4    6.73    2.72
   8   1   4   14.11    3.11
   8   1   5   18.73    4.09
   8   1   5   13.76    3.85
   8   1   6   17.35    4.78
   8   1   6   15.77    3.36
   8   1   7    5.51    3.06
   8   1   7    2.81    2.48
  -8  -2   4    3.86    2.51
   8   2  -4    4.28    2.12
  -8  -2   3    4.22    2.96
   8   2  -3    0.59    1.33
  -8  -2   2   94.76    6.21
   8   2  -2   69.71   11.68
  -8  -2   1  104.68    4.49
   8   2  -1   82.29   16.18
   8   2   0    5.74    2.23
  -8  -2   0    8.43    3.02
   8   2   0    2.99    2.00
   8   2   1   24.32    3.24
  -8  -2  -1   27.65    3.13
   8   2   1   21.78    4.60
   8   2   2    7.95    2.74
  -8  -2  -2    3.23    1.43
   8   2   2    3.82    2.46
   8   2   3    9.65    2.80
   8   2   3    5.30    3.45
   8   2   4    4.83    2.39
   8   2   4    3.76    2.62
   8   2   5   25.65    3.91
   8   2   5   17.64    3.84
   8   2   6   24.67    4.27
   8   2   6   17.38    4.08
   8   2   7    1.97    2.61
   8   2   7    3.35    2.42
   8   2   8   10.31    4.31
   8   2   8    8.57    3.59
  -8  -3   4   18.91    4.22
   8   3  -4   17.82    3.72
  -8  -3   3    9.47    4.05
   8   3  -3    4.94    2.40
  -8  -3   2    9.64    2.55
   8   3  -2    9.19    2.46
  -8  -3   1   19.34    4.71
   8   3  -1   17.73    4.44
   8   3   0    5.61    1.75
  -8  -3   0    5.69    2.26
   8   3   0   14.39    2.71
   8   3   1   41.03    2.69
  -8  -3  -1   36.92    2.68
   8   3   1   38.79    4.91
   8   3   2    3.28    1.94
  -8  -3  -2    6.07    1.99
   8   3   2   13.80    3.40
   8   3   3   20.96    3.00
  -8  -3  -3   21.03    2.12
   8   3   3   25.54    4.65
   8   3   4   45.00    3.56
   8   3   4   44.48    4.22
   8   3   5   30.52    3.78
   8   3   5   26.87    3.62
   8   3   6   91.91   13.13
   8   3   6   92.47   13.32
   8   3   7    5.13    2.94
   8   3   7   11.69    3.67
   8   3   8    2.79    2.74
   8   3   8    6.36    3.40
  -8  -4   3   43.05    6.18
   8   4  -3   13.37    3.45
  -8  -4   2    6.52    2.96
   8   4  -2    5.75    1.98
  -8  -4   1    5.21    2.87
  -8  -4   0   23.24    7.20
   8   4   0   11.55    2.76
   8   4   1    1.78    1.36
  -8  -4  -1    3.90    1.78
   8   4   1    3.36    2.72
   8   4   2   11.10    3.09
  -8  -4  -2    9.14    3.01
   8   4   2   10.71    3.75
   8   4   3    3.68    2.02
  -8  -4  -3    5.64    1.70
   8   4   3   10.29    4.06
   8   4   4  135.13    7.84
   8   4   4  129.90   16.11
   8   4   5   33.54    3.66
   8   4   5   22.19    5.93
   8   4   6   20.13    3.87
   8   4   6   18.42    3.43
   8   4   7   31.41    4.01
   8   4   7   47.65    4.76
   8   4   8    9.40    3.01
   8   4   8    9.35    2.71
  -8  -5   1   11.00    3.94
   8   5  -1    0.96    1.39
  -8  -5   0   10.59    3.60
   8   5   0    2.31    2.41
  -8  -5  -1    8.86    2.62
   8   5   1   13.01    3.51
   8   5   2    1.26    1.58
  -8  -5  -2    0.79    1.77
   8   5   2    4.38    2.16
   8   5   3    7.99    2.76
  -8  -5  -3    2.75    1.79
   8   5   3    6.38    1.78
   8   5   4   16.40    3.94
   8   5   4   19.77    3.70
   8   5   5   20.50    3.80
   8   5   5   17.45    4.20
   8   5   6    1.90    2.27
   8   5   6    4.97    2.15
   8   5   7   38.51    5.60
   8   5   7   26.07    5.41
  -8  -6   0   52.78    6.69
   8   6   0   42.90    9.92
  -8  -6  -1   75.98    4.44
   8   6   1   64.62    9.21
  -8  -6  -2    6.58    2.55
   8   6   2    6.03    4.35
   8   6   3   17.00    3.66
  -8  -6  -3   28.35    3.36
   8   6   3   17.07    3.67
   8   6   4    3.93    3.05
  -8  -6  -4    4.22    1.55
   8   6   4    1.20    1.22
   8   6   5   20.08    4.53
   8   6   5   20.43    5.22
   8   6   6   13.64    3.88
   8   6   6   13.02    3.12
  -8  -7  -3    1.47    1.82
   8   7   3    1.69    1.30
   8   7   4   78.49    8.55
  -8  -7  -4   68.53    7.66
   8   7   4   54.26    8.95
  -9   3   2    3.41    0.98
   9  -3  -2    5.27    2.51
  -9   3   1   13.61    4.20
   9  -3  -1   11.28    3.14
  -9   3   0    2.31    1.24
   9  -3   0   16.15    4.37
  -9   3  -1    1.89    1.41
   9  -3   1    6.01    2.91
   9  -2  -2    7.07    2.11
  -9   2   1    3.88    1.68
   9  -2  -1    2.00    0.95
   9  -2  -1    3.51    2.50
  -9   2   0    3.84    2.42
   9  -2   0    6.55    4.01
  -9   2  -1    8.08    3.20
   9  -2   1    8.14    4.20
  -9   2  -2    2.94    1.12
   9  -2   2    0.10    2.68
   9  -1  -2    8.74    2.51
   9  -1  -2    9.13    3.15
  -9   1   1    5.62    1.99
   9  -1  -1    6.04    2.12
   9  -1  -1   12.02    3.42
   9  -1   0    8.56    4.23
  -9   1  -1   27.74    5.59
  -9   1  -2    2.58    1.80
   9  -1   2    2.80    2.77
  -9   1  -3   15.44    2.94
   9  -1   3   12.04    3.63
   9   0  -2    8.96    2.82
  -9   0   1   32.17    2.91
   9   0  -1   27.01    4.98
   9   0   0    3.42    1.52
  -9   0   0    3.96    1.74
   9   0   0   15.36    4.54
   9   0   1   16.47    4.07
   9   0   1   10.03    2.79
   9   0   2    2.73    2.01
   9   0   2    5.77    3.11
   9   0   3    5.91    3.27
   9   0   4    2.90    3.17
   9   0   4    4.11    2.83
  -9  -1   2    3.16    2.29
   9   1  -2    3.11    1.36
  -9  -1   1   11.66    2.80
   9   1  -1   19.78    5.40
  -9  -1   0    3.18    1.72
   9   1   0    0.65    1.36
   9   1   1    3.31    1.61
   9   1   1    1.14    2.36
   9   1   2    2.23    1.90
   9   1   2   -0.10    2.72
   9   1   3    4.30    2.97
   9   1   3    6.72    2.98
   9   1   4   13.20    3.71
   9   1   4   11.38    3.44
  -9  -2   1    6.60    3.09
   9   2  -1   11.27    3.01
  -9  -2   0    5.09    2.57
   9   2   1    9.65    2.72
   9   2   1    9.65    3.09
   9   2   2    2.05    1.75
   9   2   2   12.88    3.79
   9   2   3    4.29    2.04
   9   2   3   -0.20    2.39
   9   2   4   20.42    3.66
   9   2   4   13.45    3.25
   9   3   0    3.91    2.86
  -9  -3  -1    5.81    2.56
   9   3   1    4.43    1.89
   9   3   2   10.23    2.86
   9   3   2   10.68    4.21
   9   3   3   -1.50    1.88
   9   3   4    9.24    2.57
   9   3   4    9.64    2.78

_computing_structure_solution     'SHELXT 2014/4 (Sheldrick, 2014)'
;
_shelx_hkl_checksum              23435
_shelx_shelxl_version_number     2014/7
_olex2_submission_special_instructions 'No special instructions were received'
loop_
_space_group_symop_operation_xyz
'x, y, z'
'-x, -y, -z'
loop_
_atom_site_label
_atom_site_type_symbol
_atom_site_fract_x
_atom_site_fract_y
_atom_site_fract_z
_atom_site_U_iso_or_equiv
_atom_site_adp_type
_atom_site_occupancy
_atom_site_site_symmetry_order
_atom_site_calc_flag
_atom_site_refinement_flags_posn
S1 S 0.19895(8) 0.38023(6) 1.21088(5) 0.03426(16) Uani 1 1 d .
N1 N 0.2534(2) 0.64489(19) 1.03835(17) 0.0320(4) Uani 1 1 d .
C1 C 0.2862(3) 0.7192(2) 0.8995(2) 0.0303(4) Uani 1 1 d .
C2 C 0.3152(3) 0.8635(2) 0.8322(2) 0.0385(5) Uani 1 1 d .
H2 H 0.3154 0.9222 0.8774 0.046 Uiso 1 1 calc R
C3 C 0.3439(3) 0.9180(2) 0.6958(2) 0.0420(5) Uani 1 1 d .
H3 H 0.3639 1.0145 0.6488 0.050 Uiso 1 1 calc R
C4 C 0.3432(3) 0.8302(2) 0.6280(2) 0.0374(5) Uani 1 1 d .
H4 H 0.3615 0.8692 0.5363 0.045 Uiso 1 1 calc R
C5 C 0.3157(3) 0.6858(2) 0.6948(2) 0.0330(5) Uani 1 1 d .
H5 H 0.3160 0.6279 0.6489 0.040 Uiso 1 1 calc R
C6 C 0.2876(3) 0.6289(2) 0.8322(2) 0.0272(4) Uani 1 1 d .
C7 C 0.2555(3) 0.4869(2) 0.93498(19) 0.0270(4) Uani 1 1 d .
C8 C 0.2373(3) 0.5127(2) 1.05590(19) 0.0288(4) Uani 1 1 d .
C9 C 0.2441(3) 0.3579(2) 0.93115(19) 0.0284(4) Uani 1 1 d .
C10 C 0.2116(3) 0.2294(2) 1.0508(2) 0.0311(4) Uani 1 1 d .
C11 C 0.1896(3) 0.2292(2) 1.1783(2) 0.0310(4) Uani 1 1 d .
C12 C 0.1577(3) 0.1027(2) 1.2898(2) 0.0399(5) Uani 1 1 d .
H12 H 0.1430 0.1038 1.3734 0.048 Uiso 1 1 calc R
C13 C 0.1482(4) -0.0226(3) 1.2762(2) 0.0472(6) Uani 1 1 d .
H13 H 0.1269 -0.1062 1.3508 0.057 Uiso 1 1 calc R
C14 C 0.1699(4) -0.0263(2) 1.1522(2) 0.0475(6) Uani 1 1 d .
H14 H 0.1643 -0.1118 1.1437 0.057 Uiso 1 1 calc R
C15 C 0.2001(3) 0.0983(2) 1.0416(2) 0.0398(5) Uani 1 1 d .
H15 H 0.2132 0.0953 0.9587 0.048 Uiso 1 1 calc R
C16 C 0.2682(3) 0.3459(2) 0.80093(19) 0.0288(4) Uani 1 1 d .
C17 C 0.4450(3) 0.3259(2) 0.7537(2) 0.0355(5) Uani 1 1 d .
H17 H 0.5469 0.3173 0.8039 0.043 Uiso 1 1 calc R
C18 C 0.4694(3) 0.3187(3) 0.6313(2) 0.0413(5) Uani 1 1 d .
H18 H 0.5879 0.3050 0.5999 0.050 Uiso 1 1 calc R
C19 C 0.3196(3) 0.3318(2) 0.5557(2) 0.0390(5) Uani 1 1 d .
H19 H 0.3371 0.3277 0.4734 0.047 Uiso 1 1 calc R
C20 C 0.1440(3) 0.3511(2) 0.6026(2) 0.0380(5) Uani 1 1 d .
H20 H 0.0428 0.3601 0.5516 0.046 Uiso 1 1 calc R
C21 C 0.1169(3) 0.3573(2) 0.7258(2) 0.0345(5) Uani 1 1 d .
H21 H -0.0022 0.3691 0.7576 0.041 Uiso 1 1 calc R
loop_
_atom_site_aniso_label
_atom_site_aniso_U_11
_atom_site_aniso_U_22
_atom_site_aniso_U_33
_atom_site_aniso_U_23
_atom_site_aniso_U_13
_atom_site_aniso_U_12
S1 0.0372(3) 0.0426(3) 0.0263(3) -0.0173(2) -0.0028(2) 0.0028(2)
N1 0.0313(9) 0.0381(10) 0.0348(9) -0.0230(8) -0.0031(7) 0.0020(7)
C1 0.0263(10) 0.0342(10) 0.0360(11) -0.0200(9) -0.0022(8) 0.0017(8)
C2 0.0394(12) 0.0350(11) 0.0493(13) -0.0257(10) -0.0014(10) 0.0013(9)
C3 0.0436(13) 0.0281(11) 0.0512(14) -0.0132(10) -0.0005(11) -0.0007(9)
C4 0.0393(12) 0.0359(12) 0.0347(11) -0.0120(9) -0.0008(9) 0.0012(9)
C5 0.0348(11) 0.0353(11) 0.0318(11) -0.0165(9) -0.0023(9) 0.0028(9)
C6 0.0237(9) 0.0296(10) 0.0316(10) -0.0159(8) -0.0022(8) 0.0023(7)
C7 0.0242(9) 0.0340(10) 0.0261(9) -0.0156(8) -0.0035(8) 0.0038(8)
C8 0.0233(9) 0.0394(11) 0.0290(10) -0.0190(9) -0.0039(8) 0.0037(8)
C9 0.0272(10) 0.0328(10) 0.0283(10) -0.0154(8) -0.0047(8) 0.0050(8)
C10 0.0315(10) 0.0311(10) 0.0306(10) -0.0119(8) -0.0049(8) 0.0037(8)
C11 0.0266(10) 0.0362(11) 0.0302(10) -0.0129(9) -0.0054(8) 0.0040(8)
C12 0.0409(12) 0.0437(13) 0.0301(11) -0.0094(10) -0.0049(9) 0.0018(10)
C13 0.0528(15) 0.0372(13) 0.0396(13) -0.0024(10) -0.0064(11) -0.0005(11)
C14 0.0589(16) 0.0319(12) 0.0494(14) -0.0133(11) -0.0085(12) 0.0032(11)
C15 0.0522(14) 0.0315(11) 0.0368(12) -0.0145(9) -0.0063(10) 0.0044(10)
C16 0.0382(11) 0.0247(9) 0.0266(10) -0.0131(8) -0.0044(8) 0.0036(8)
C17 0.0384(12) 0.0412(12) 0.0325(11) -0.0205(10) -0.0047(9) 0.0037(9)
C18 0.0422(13) 0.0504(14) 0.0367(12) -0.0237(11) 0.0003(10) 0.0035(10)
C19 0.0573(14) 0.0368(12) 0.0259(10) -0.0157(9) -0.0044(10) 0.0019(10)
C20 0.0517(14) 0.0321(11) 0.0338(11) -0.0151(9) -0.0156(10) 0.0066(10)
C21 0.0393(12) 0.0319(11) 0.0357(11) -0.0164(9) -0.0075(9) 0.0059(9)
loop_
_atom_type_symbol
_atom_type_description
_atom_type_scat_dispersion_real
_atom_type_scat_dispersion_imag
_atom_type_scat_source
C C 0.0033 0.0016 'International Tables Vol C Tables 4.2.6.8 and 6.1.1.4'
H H 0.0000 0.0000 'International Tables Vol C Tables 4.2.6.8 and 6.1.1.4'
N N 0.0061 0.0033 'International Tables Vol C Tables 4.2.6.8 and 6.1.1.4'
S S 0.1246 0.1234 'International Tables Vol C Tables 4.2.6.8 and 6.1.1.4'
loop_
_geom_angle_atom_site_label_1
_geom_angle_atom_site_label_2
_geom_angle_atom_site_label_3
_geom_angle
C8 S1 C11 102.87(10)
C8 N1 C1 104.38(16)
C2 C1 N1 126.17(19)
C2 C1 C6 121.4(2)
C6 C1 N1 112.39(18)
C1 C2 H2 120.9
C3 C2 C1 118.2(2)
C3 C2 H2 120.9
C2 C3 H3 119.5
C2 C3 C4 120.9(2)
C4 C3 H3 119.5
C3 C4 H4 119.4
C5 C4 C3 121.1(2)
C5 C4 H4 119.4
C4 C5 H5 120.6
C4 C5 C6 118.77(19)
C6 C5 H5 120.6
C1 C6 C7 105.50(17)
C5 C6 C1 119.54(19)
C5 C6 C7 134.96(18)
C6 C7 C8 102.46(16)
C9 C7 C6 132.78(18)
C9 C7 C8 124.76(18)
N1 C8 S1 121.63(15)
N1 C8 C7 115.28(18)
C7 C8 S1 123.09(16)
C7 C9 C10 121.95(18)
C7 C9 C16 119.41(18)
C10 C9 C16 118.63(17)
C11 C10 C9 123.02(19)
C15 C10 C9 119.81(19)
C15 C10 C11 117.17(19)
C10 C11 S1 124.30(16)
C12 C11 S1 115.13(16)
C12 C11 C10 120.6(2)
C11 C12 H12 119.9
C13 C12 C11 120.3(2)
C13 C12 H12 119.9
C12 C13 H13 119.7
C12 C13 C14 120.6(2)
C14 C13 H13 119.7
C13 C14 H14 120.3
C15 C14 C13 119.4(2)
C15 C14 H14 120.3
C10 C15 H15 119.0
C14 C15 C10 121.9(2)
C14 C15 H15 119.0
C17 C16 C9 119.46(18)
C21 C16 C9 120.85(18)
C21 C16 C17 119.68(19)
C16 C17 H17 120.1
C18 C17 C16 119.8(2)
C18 C17 H17 120.1
C17 C18 H18 119.7
C19 C18 C17 120.6(2)
C19 C18 H18 119.7
C18 C19 H19 120.1
C20 C19 C18 119.7(2)
C20 C19 H19 120.1
C19 C20 H20 119.8
C19 C20 C21 120.4(2)
C21 C20 H20 119.8
C16 C21 C20 119.8(2)
C16 C21 H21 120.1
C20 C21 H21 120.1
loop_
_geom_bond_atom_site_label_1
_geom_bond_atom_site_label_2
_geom_bond_distance
S1 C8 1.718(2)
S1 C11 1.744(2)
N1 C1 1.419(3)
N1 C8 1.308(3)
C1 C2 1.386(3)
C1 C6 1.411(3)
C2 H2 0.9300
C2 C3 1.385(3)
C3 H3 0.9300
C3 C4 1.394(3)
C4 H4 0.9300
C4 C5 1.385(3)
C5 H5 0.9300
C5 C6 1.394(3)
C6 C7 1.462(3)
C7 C8 1.465(3)
C7 C9 1.358(3)
C9 C10 1.458(3)
C9 C16 1.496(3)
C10 C11 1.409(3)
C10 C15 1.406(3)
C11 C12 1.400(3)
C12 H12 0.9300
C12 C13 1.369(3)
C13 H13 0.9300
C13 C14 1.387(4)
C14 H14 0.9300
C14 C15 1.382(3)
C15 H15 0.9300
C16 C17 1.388(3)
C16 C21 1.387(3)
C17 H17 0.9300
C17 C18 1.387(3)
C18 H18 0.9300
C18 C19 1.378(3)
C19 H19 0.9300
C19 C20 1.376(3)
C20 H20 0.9300
C20 C21 1.393(3)
C21 H21 0.9300
loop_
_geom_torsion_atom_site_label_1
_geom_torsion_atom_site_label_2
_geom_torsion_atom_site_label_3
_geom_torsion_atom_site_label_4
_geom_torsion
S1 C11 C12 C13 -179.81(18)
N1 C1 C2 C3 -179.6(2)
N1 C1 C6 C5 179.19(17)
N1 C1 C6 C7 -0.6(2)
C1 N1 C8 S1 179.17(14)
C1 N1 C8 C7 -0.5(2)
C1 C2 C3 C4 0.1(3)
C1 C6 C7 C8 0.3(2)
C1 C6 C7 C9 -179.3(2)
C2 C1 C6 C5 -1.1(3)
C2 C1 C6 C7 179.14(19)
C2 C3 C4 C5 -0.6(4)
C3 C4 C5 C6 0.3(3)
C4 C5 C6 C1 0.5(3)
C4 C5 C6 C7 -179.7(2)
C5 C6 C7 C8 -179.5(2)
C5 C6 C7 C9 1.0(4)
C6 C1 C2 C3 0.7(3)
C6 C7 C8 S1 -179.51(14)
C6 C7 C8 N1 0.1(2)
C6 C7 C9 C10 179.53(19)
C6 C7 C9 C16 0.5(3)
C7 C9 C10 C11 0.0(3)
C7 C9 C10 C15 179.7(2)
C7 C9 C16 C17 90.1(2)
C7 C9 C16 C21 -88.5(3)
C8 S1 C11 C10 0.3(2)
C8 S1 C11 C12 -179.61(16)
C8 N1 C1 C2 -179.1(2)
C8 N1 C1 C6 0.7(2)
C8 C7 C9 C10 0.0(3)
C8 C7 C9 C16 -179.00(17)
C9 C7 C8 S1 0.1(3)
C9 C7 C8 N1 179.74(18)
C9 C10 C11 S1 -0.3(3)
C9 C10 C11 C12 179.67(19)
C9 C10 C15 C14 179.8(2)
C9 C16 C17 C18 -178.1(2)
C9 C16 C21 C20 177.56(19)
C10 C9 C16 C17 -88.9(2)
C10 C9 C16 C21 92.4(2)
C10 C11 C12 C13 0.2(3)
C11 S1 C8 N1 -179.88(16)
C11 S1 C8 C7 -0.25(18)
C11 C10 C15 C14 -0.4(3)
C11 C12 C13 C14 0.0(4)
C12 C13 C14 C15 -0.5(4)
C13 C14 C15 C10 0.7(4)
C15 C10 C11 S1 -179.98(16)
C15 C10 C11 C12 0.0(3)
C16 C9 C10 C11 179.10(19)
C16 C9 C10 C15 -1.2(3)
C16 C17 C18 C19 0.2(3)
C17 C16 C21 C20 -1.1(3)
C17 C18 C19 C20 -0.5(4)
C18 C19 C20 C21 -0.1(3)
C19 C20 C21 C16 0.9(3)
C21 C16 C17 C18 0.6(3)
