#------------------------------------------------------------------------------
#$Date: 2019-11-24 01:31:29 +0200 (Sun, 24 Nov 2019) $
#$Revision: 236017 $
#$URL: file:///home/coder/svn-repositories/cod/cif/1/55/37/1553778.cif $
#------------------------------------------------------------------------------
#
# This file is available in the Crystallography Open Database (COD),
# http://www.crystallography.net/
#
# All data on this site have been placed in the public domain by the
# contributors.
#
data_1553778
loop_
_publ_author_name
'Meng, Ke'
'Xia, Jingzhao'
'Wang, Yanzhao'
'Zhang, Xinghua'
'Yang, Guoqiang'
'Zhang, Wanbin'
_publ_section_title
;
 Ir/BiphPHOX-catalyzed asymmetric hydrogenation of 3-substituted
 2,5-dihydropyrroles and 2,5-dihydrothiophene 1,1-dioxides
;
_journal_issue                   8
_journal_name_full               'Organic Chemistry Frontiers'
_journal_page_first              1601
_journal_paper_doi               10.1039/C7QO00248C
_journal_volume                  4
_journal_year                    2017
_chemical_absolute_configuration ad
_chemical_formula_moiety         'C17 H19 N O2 S'
_chemical_formula_sum            'C17 H19 N O2 S'
_chemical_formula_weight         301.39
_space_group_crystal_system      monoclinic
_space_group_IT_number           4
_space_group_name_Hall           'P 2yb'
_space_group_name_H-M_alt        'P 1 21 1'
_atom_sites_solution_hydrogens   geom
_audit_creation_method           SHELXL-2014/7
_audit_update_record
;
2017-03-15 deposited with the CCDC.
2017-05-11 downloaded from the CCDC.
;
_cell_angle_alpha                90
_cell_angle_beta                 98.45
_cell_angle_gamma                90
_cell_formula_units_Z            2
_cell_length_a                   11.3637(4)
_cell_length_b                   6.0455(3)
_cell_length_c                   11.3636(4)
_cell_measurement_reflns_used    4049
_cell_measurement_temperature    293(2)
_cell_measurement_theta_max      68.39
_cell_measurement_theta_min      3.93
_cell_volume                     772.20(5)
_computing_structure_refinement  'SHELXL-2014/7 (Sheldrick, 2014)'
_diffrn_ambient_temperature      293(2)
_diffrn_measured_fraction_theta_full 0.998
_diffrn_measured_fraction_theta_max 0.997
_diffrn_measurement_device_type  'Bruker D8 VENTURE CMOS photon 100'
_diffrn_measurement_method       '\f and \w scans'
_diffrn_radiation_type           CuK\a
_diffrn_radiation_wavelength     1.54178
_diffrn_reflns_av_R_equivalents  0.0501
_diffrn_reflns_av_unetI/netI     0.0480
_diffrn_reflns_Laue_measured_fraction_full 0.998
_diffrn_reflns_Laue_measured_fraction_max 0.997
_diffrn_reflns_limit_h_max       13
_diffrn_reflns_limit_h_min       -12
_diffrn_reflns_limit_k_max       7
_diffrn_reflns_limit_k_min       -6
_diffrn_reflns_limit_l_max       13
_diffrn_reflns_limit_l_min       -13
_diffrn_reflns_number            7602
_diffrn_reflns_point_group_measured_fraction_full 0.999
_diffrn_reflns_point_group_measured_fraction_max 0.998
_diffrn_reflns_theta_full        67.679
_diffrn_reflns_theta_max         68.542
_diffrn_reflns_theta_min         3.933
_exptl_absorpt_coefficient_mu    1.889
_exptl_crystal_colour            colorless
_exptl_crystal_density_diffrn    1.296
_exptl_crystal_description       block
_exptl_crystal_F_000             320
_exptl_crystal_size_max          0.220
_exptl_crystal_size_mid          0.180
_exptl_crystal_size_min          0.150
_refine_diff_density_max         0.153
_refine_diff_density_min         -0.238
_refine_diff_density_rms         0.044
_refine_ls_abs_structure_details
;
 Refined as an inversion twin.
;
_refine_ls_abs_structure_Flack   0.05(3)
_refine_ls_extinction_method     none
_refine_ls_goodness_of_fit_ref   1.047
_refine_ls_hydrogen_treatment    constr
_refine_ls_matrix_type           full
_refine_ls_number_parameters     192
_refine_ls_number_reflns         2362
_refine_ls_number_restraints     1
_refine_ls_restrained_S_all      1.047
_refine_ls_R_factor_all          0.0426
_refine_ls_R_factor_gt           0.0352
_refine_ls_shift/su_max          0.001
_refine_ls_shift/su_mean         0.000
_refine_ls_structure_factor_coef Fsqd
_refine_ls_weighting_details
'w=1/[\s^2^(Fo^2^)+(0.0353P)^2^+0.1143P] where P=(Fo^2^+2Fc^2^)/3'
_refine_ls_weighting_scheme      calc
_refine_ls_wR_factor_gt          0.0792
_refine_ls_wR_factor_ref         0.0830
_reflns_Friedel_coverage         0.816
_reflns_Friedel_fraction_full    1.000
_reflns_Friedel_fraction_max     0.998
_reflns_number_gt                2130
_reflns_number_total             2362
_reflns_threshold_expression     'I > 2\s(I)'
_cod_data_source_file            c7qo00248c2.cif
_cod_data_source_block           t
_cod_original_sg_symbol_H-M      'P 21'
_cod_database_code               1553778
_shelx_shelxl_version_number     2014/7
_shelx_space_group_comment
;
The symmetry employed for this shelxl refinement is uniquely defined
by the following loop, which should always be used as a source of
symmetry information in preference to the above space-group names.
They are only intended as comments.
;
_shelx_estimated_absorpt_t_min   0.681
_shelx_estimated_absorpt_t_max   0.765
_shelx_res_file
;

    t.res created by SHELXL-2014/7


TITL t_0ma_a   P 21         R =  New: P21
CELL  1.54178   11.3637    6.0455   11.3636    90.000    98.450    90.000
ZERR  2           0.0004    0.0003    0.0004     0.000     0.000     0.000
LATT  -1
SYMM             - X ,    0.50000 + Y ,            - Z
SFAC  C  H  N  O  S
UNIT    34   38   2   4   2
LIST 6 ! automatically inserted. Change 6 to 4 for CHECKCIF!!
L.S. 5
FMAP 2
PLAN -20
ACTA
size 0.22 0.18 0.15
BOND $H
CONF
TWIN
WGHT    0.035300    0.114300
BASF   0.05289
FVAR       1.07854
S1    5   -0.233502    0.453482    0.013782    11.00000    0.03067    0.03417 =
         0.02614   -0.00034    0.00281    0.00304
O1    4   -0.249847    0.585566   -0.091693    11.00000    0.03893    0.05300 =
         0.02552    0.00634    0.00452    0.00574
O2    4   -0.233927    0.217166    0.005714    11.00000    0.04106    0.03570 =
         0.04571   -0.00794    0.00229    0.00443
N1    3   -0.105850    0.522844    0.087240    11.00000    0.02991    0.03008 =
         0.03263    0.00636    0.00488    0.00148
C1    1   -0.343198    0.531659    0.100247    11.00000    0.02545    0.03478 =
         0.02809    0.00022    0.00059   -0.00447
C2    1   -0.394087    0.739136    0.086902    11.00000    0.02930    0.03502 =
         0.02844    0.00393    0.00075   -0.00087
AFIX  43
H2    2   -0.373164    0.836477    0.030079    11.00000   -1.20000
AFIX   0
C3    1   -0.477584    0.801436    0.159888    11.00000    0.02663    0.03972 =
         0.03796   -0.00291   -0.00021    0.00282
AFIX  43
H3    2   -0.512675    0.940553    0.150816    11.00000   -1.20000
AFIX   0
C4    1   -0.508467    0.658324    0.245358    11.00000    0.02886    0.04997 =
         0.03981   -0.00413    0.00807   -0.00603
C5    1   -0.457410    0.449821    0.256147    11.00000    0.04008    0.04330 =
         0.04229    0.00402    0.01266   -0.00872
AFIX  43
H5    2   -0.479042    0.351605    0.312211    11.00000   -1.20000
AFIX   0
C6    1   -0.374375    0.385112    0.184509    11.00000    0.03522    0.03025 =
         0.03918    0.00204    0.00239   -0.00369
AFIX  43
H6    2   -0.340097    0.245246    0.192931    11.00000   -1.20000
AFIX   0
C7    1   -0.596208    0.732150    0.325883    11.00000    0.04971    0.07594 =
         0.06634   -0.00151    0.03169    0.00039
AFIX 137
H7A   2   -0.664047    0.798905    0.278861    11.00000   -1.50000
H7B   2   -0.558747    0.837861    0.382388    11.00000   -1.50000
H7C   2   -0.621386    0.606430    0.367385    11.00000   -1.50000
AFIX   0
C8    1   -0.071578    0.757779    0.099232    11.00000    0.03442    0.03749 =
         0.05181    0.01448    0.00050   -0.00672
AFIX  23
H8A   2   -0.139227    0.849281    0.110243    11.00000   -1.20000
H8B   2   -0.039332    0.808875    0.029606    11.00000   -1.20000
AFIX   0
C9    1    0.023392    0.763149    0.209928    11.00000    0.03985    0.03606 =
         0.03818    0.00653    0.00576   -0.00659
AFIX  23
H9A   2    0.090460    0.853640    0.195958    11.00000   -1.20000
H9B   2   -0.009244    0.822533    0.277563    11.00000   -1.20000
AFIX   0
C10   1    0.061492    0.523197    0.232192    11.00000    0.02931    0.03678 =
         0.02793   -0.00007    0.00680    0.00220
AFIX  13
H10   2    0.115800    0.484427    0.175937    11.00000   -1.20000
AFIX   0
C11   1   -0.055362    0.400615    0.195158    11.00000    0.03294    0.03134 =
         0.03267    0.00428   -0.00066    0.00030
AFIX  23
H11A  2   -0.041803    0.246447    0.177669    11.00000   -1.20000
H11B  2   -0.106596    0.409583    0.256152    11.00000   -1.20000
AFIX   0
C12   1    0.120783    0.461158    0.356080    11.00000    0.02569    0.03261 =
         0.02946   -0.00325    0.00412   -0.00051
C13   1    0.109477    0.583617    0.456554    11.00000    0.04442    0.04194 =
         0.03798   -0.00762    0.00573    0.01276
AFIX  43
H13   2    0.063789    0.711869    0.449744    11.00000   -1.20000
AFIX   0
C14   1    0.165880    0.516502    0.567671    11.00000    0.05480    0.05802 =
         0.02855   -0.01429    0.00527    0.00782
AFIX  43
H14   2    0.159094    0.602882    0.634060    11.00000   -1.20000
AFIX   0
C15   1    0.231268    0.325476    0.581172    11.00000    0.03891    0.05717 =
         0.03038   -0.00009   -0.00341    0.00628
AFIX  43
H15   2    0.268127    0.281088    0.655949    11.00000   -1.20000
AFIX   0
C16   1    0.241395    0.200120    0.481630    11.00000    0.05311    0.04596 =
         0.03995   -0.00245   -0.00294    0.01616
AFIX  43
H16   2    0.284404    0.068729    0.489328    11.00000   -1.20000
AFIX   0
C17   1    0.187996    0.268884    0.370767    11.00000    0.04910    0.03773 =
         0.03430   -0.00804    0.00251    0.00809
AFIX  43
H17   2    0.197269    0.184407    0.304351    11.00000   -1.20000
AFIX   0
HKLF 4

REM  t_0ma_a   P 21         R =  New: P21
REM R1 =  0.0352 for    2130 Fo > 4sig(Fo)  and  0.0426 for all    2362 data
REM    192 parameters refined using      1 restraints

END

WGHT      0.0388      0.0777

REM Highest difference peak  0.153,  deepest hole -0.238,  1-sigma level  0.044
Q1    1  -0.6982  0.6821  0.2557  11.00000  0.05    0.15
Q2    1  -0.5780  0.6542  0.4180  11.00000  0.05    0.15
Q3    1  -0.2434  0.2810  0.2474  11.00000  0.05    0.14
Q4    1  -0.1094  0.1566  0.1054  11.00000  0.05    0.14
Q5    1  -0.2520  0.8795 -0.1469  11.00000  0.05    0.14
Q6    1  -0.1037  0.1501  0.0041  11.00000  0.05    0.14
Q7    1   0.1596  0.1445  0.3039  11.00000  0.05    0.14
Q8    1   0.2600  0.1916  0.2978  11.00000  0.05    0.14
Q9    1  -0.2480  0.1791 -0.1614  11.00000  0.05    0.14
Q10   1  -0.1314  0.9533  0.2305  11.00000  0.05    0.13
Q11   1  -0.2751  0.7521 -0.0636  11.00000  0.05    0.13
Q12   1  -0.2781  0.4676 -0.1489  11.00000  0.05    0.13
Q13   1  -0.2626  0.2952  0.3421  11.00000  0.05    0.13
Q14   1  -0.0049  0.7316 -0.0342  11.00000  0.05    0.13
Q15   1  -0.3770  0.4709  0.1251  11.00000  0.05    0.13
Q16   1  -0.6259  0.9051  0.3086  11.00000  0.05    0.13
Q17   1  -0.3474  0.4304  0.3421  11.00000  0.05    0.13
Q18   1   0.0718  0.8778  0.3843  11.00000  0.05    0.13
Q19   1  -0.2999  0.1993 -0.0540  11.00000  0.05    0.12
Q20   1   0.1718  0.1900  0.3355  11.00000  0.05    0.12
;
_shelx_res_checksum              48448
_shelx_hkl_file
;
   1   0   1    3.10    0.70
  -1   0  -1    3.50    0.70
  -2   0  -2 9160.88  369.76
   3   0   3   18.70    3.40
  -3   0  -3   15.10    2.60
  -3   0  -3   10.50    2.90
   4   0   4 2895.71  120.19
  -4   0  -4 3063.49  119.39
  -4   0  -4 2870.41  120.59
   5   0   5  186.78   11.30
  -5   0  -5  158.08   16.50
   6   0   6   11.60   12.40
   6   0   6    5.30    4.80
  -6   0  -6    9.00    8.20
  -6   0  -6   11.70    6.00
   7   0   7    9.70    7.50
   7   0   7   21.30   11.50
  -7   0  -7   16.00    8.20
   8   0   8   -0.90    4.80
   8   0   8    7.30   11.90
  -8   0  -8   -3.10    5.90
  -9   0  -8  330.87   17.90
   9   0   8  296.27   17.20
  -8   0  -7   15.20    6.20
   8   0   7    1.80   11.70
   8   0   7   23.70    5.20
  -7   0  -6  318.77   18.20
  -7   0  -6  298.97   18.30
   7   0   6  322.37   24.80
   7   0   6  305.77   16.70
  -6   0  -5    6.60    8.50
  -6   0  -5   -4.40    5.10
   6   0   5    4.80    4.40
   6   0   5    0.60   13.50
  -5   0  -4   95.39   10.10
   5   0   4  101.09    8.50
  -4   0  -3  566.84   23.50
   4   0   3  571.14   24.70
   4   0   3  539.85   29.00
  -3   0  -2 1739.03   73.29
   3   0   2 1845.92   73.39
  -2   0  -1 1001.00   40.80
   2   0   1  991.80   40.80
  -1   0   0  758.42   29.80
  -1   0   0  775.02   29.80
   1   0   0  782.32   29.90
   1   0   0  622.74   30.10
  -1   0  -2 3793.02  148.39
  -1   0  -2 3549.15  148.09
  -2   0  -3 1724.23   69.09
  -2   0  -3 1650.33   68.39
  -3   0  -4   75.89    8.30
  -3   0  -4   82.39    4.90
   4   0   5   45.00    7.30
  -4   0  -5   45.60    5.50
   5   0   6  444.66   29.90
   5   0   6  496.55   23.10
  -5   0  -6  508.55   23.90
  -5   0  -6  483.75   24.50
   6   0   7   39.60   12.00
   6   0   7   35.40    6.20
  -6   0  -7   46.90    7.60
  -6   0  -7   33.30    6.70
   7   0   8  181.78   11.90
   7   0   8  163.58   21.70
  -7   0  -8  174.58   13.50
   8   0   9   26.20    8.90
  -8   0  -9    5.00    5.40
  -9   0  -7  205.58   15.00
   9   0   7  194.98   12.40
  -8   0  -6   25.30    8.80
  -8   0  -6   18.30    6.10
   8   0   6   21.80    5.30
   8   0   6    5.00   11.80
  -7   0  -5  302.57   19.60
  -7   0  -5  310.67   17.70
   7   0   5  295.37   16.30
   7   0   5  280.47   25.40
  -6   0  -4  208.18   18.60
   6   0   4  243.78   13.00
  -5   0  -3  323.57   14.60
  -5   0  -3  295.17   16.70
   5   0   3  317.87   15.70
   5   0   3  312.67   15.60
  -4   0  -2  711.93   27.50
  -4   0  -2  605.94   27.90
   4   0   2  619.04   28.60
  -3   0  -1 1385.46   57.19
   3   0   1 1431.36   57.19
   3   0   1 1372.66   57.49
  -2   0   0  352.76   15.20
  -2   0   0  359.16   15.40
  -2   0   0  360.06   15.00
   2   0   0  367.16   15.40
   2   0   0  374.76   15.20
  -1   0   1  316.97   12.50
  -1   0   1  288.67   12.60
   1   0  -1  310.47   12.50
   1   0  -1  298.17   12.60
   0   0   2  561.24   23.20
   0   0   2  570.64   23.00
   0   0  -2  553.14   23.00
  -1   0  -3  187.58    8.40
  -1   0  -3  204.08    9.10
  -2   0  -4   32.20    3.00
  -2   0  -4   33.10    5.20
   3   0   5  225.48   12.50
  -3   0  -5  210.28   10.40
   4   0   6  197.58   12.00
  -4   0  -6  189.58   15.40
  -4   0  -6  199.18   13.10
   5   0   7  339.87   17.00
   5   0   7  307.37   24.30
  -5   0  -7  313.37   18.00
  -5   0  -7  316.77   18.30
   6   0   8   -5.00   11.60
   6   0   8    2.80    5.30
  -6   0  -8   11.10    5.80
   7   0   9   41.30    6.30
   7   0   9   39.10   10.70
  -7   0  -9   32.40    6.40
 -10   0  -7   43.70    7.60
  10   0   7   51.79    7.30
  -9   0  -6  132.09   13.00
   9   0   6  112.89    9.60
   9   0   6  115.39   17.30
  -8   0  -5    2.50    6.50
  -8   0  -5   -1.00    9.10
   8   0   5   -1.00   11.80
   8   0   5    3.10    5.20
  -7   0  -4  266.67   16.10
  -7   0  -4  234.98   19.70
   7   0   4  245.88   24.00
   7   0   4  259.37   14.20
  -6   0  -3    4.80    5.20
   6   0   3    4.00    4.30
   6   0   3    5.10    6.10
  -5   0  -2    7.50    3.50
   5   0   2   10.60    3.20
  -4   0  -1  714.73   30.90
   4   0   1  710.83   31.30
   4   0   1  757.52   30.70
  -3   0   0 1183.88   46.70
   3   0   0 1097.39   47.70
   3   0   0 1151.38   46.90
  -2   0   1  142.99    6.80
  -2   0   1  148.79    6.60
  -2   0   1  152.78    6.60
   2   0  -1  146.19    6.50
   2   0  -1  146.29    6.90
   2   0  -1  154.88    6.60
  -1   0   2  261.77   11.40
  -1   0   2  264.17   11.20
   1   0  -2  273.87   11.20
   1   0  -2  267.17   11.50
   0   0   3   11.40    1.90
   0   0   3    8.60    1.70
   0   0  -3   10.30    1.60
  -1   0  -4    1.50    1.30
  -1   0  -4    2.60    2.30
   2   0   5   33.00    5.80
  -2   0  -5   21.30    4.80
  -2   0  -5   22.40    2.90
  -2   0  -5   35.10    5.70
   3   0   6  266.47   14.10
  -3   0  -6  256.17   14.80
   4   0   7  185.98   12.30
   4   0   7  191.18   20.10
  -4   0  -7  187.88   13.00
  -4   0  -7  200.18   14.20
   5   0   8  341.67   18.30
   5   0   8  315.67   24.10
  -5   0  -8  343.77   19.20
   6   0   9  119.49   17.20
   6   0   9  114.99   11.10
  -6   0  -9  125.99   12.40
   7   0  10  180.88   12.80
  -7   0 -10  202.68   13.20
  -7   0 -10  194.68   13.10
 -10   0  -6   -2.80   12.70
  10   0   6   -4.30    4.30
  -9   0  -5   -2.20    6.40
   9   0   5   44.50   11.90
   9   0   5    0.50    5.00
  -8   0  -4    0.50    6.40
  -8   0  -4   -4.50   11.80
   8   0   4   -7.60   16.70
   8   0   4    1.10    4.70
  -7   0  -3   -2.70    5.80
   7   0   3   29.70   19.20
   7   0   3    3.10    4.30
  -6   0  -2  811.12   36.50
   6   0   2  837.22   36.50
  -5   0  -1    0.70    2.90
   5   0   1    5.70    2.20
  -4   0   0  770.72   33.60
  -4   0   0  814.12   33.20
   4   0   0  809.52   34.10
   4   0   0  809.32   33.40
  -3   0   1  117.99    6.40
  -3   0   1  128.79    6.20
  -3   0   1  125.19    6.00
   3   0  -1  131.19    6.00
   2   0  -2 9999.00  403.26
  -1   0   3  828.32   33.70
  -1   0   3  814.32   33.90
   1   0  -3  814.92   33.60
   0   0   4  201.08    9.40
   0   0   4  208.68    9.80
   0   0  -4  193.48    9.00
   0   0  -4  204.98    9.60
   1   0   5 1154.98   47.20
  -1   0  -5 1115.09   46.00
  -1   0  -5 1086.79   46.80
   2   0   6  566.24   25.60
   2   0   6  574.34   27.10
  -2   0  -6  556.14   25.80
  -2   0  -6  560.94   24.50
   3   0   7 1025.50   41.30
   3   0   7  863.51   44.90
  -3   0  -7  929.91   41.80
  -3   0  -7  970.10   41.50
   4   0   8   79.39    9.70
   4   0   8   64.29   12.60
  -4   0  -8   71.89   10.60
   5   0   9  189.68   19.20
   5   0   9  198.88   13.70
  -5   0  -9  214.28   15.00
   6   0  10   71.09   10.10
   6   0  10   82.99   11.40
  -6   0 -10   80.39   10.50
  11   0   6   89.89    8.10
 -10   0  -5    1.20    8.00
  10   0   5    2.90    4.50
  -9   0  -4   13.10    7.80
   9   0   4   16.00    5.60
   9   0   4   34.20   12.20
  -8   0  -3    7.90    6.90
   8   0   3    0.40   12.30
   8   0   3   23.00    5.30
  -7   0  -2  205.98   14.60
  -6   0  -1  597.14   26.70
  -5   0   0   36.90    6.70
  -5   0   0   32.50    5.10
   5   0   0   35.60    6.20
   5   0   0   27.90    4.60
  -4   0   1  897.31   37.50
  -4   0   1  896.21   37.80
  -4   0   1  883.81   37.10
   4   0  -1  913.61   37.30
  -3   0   2 7035.20  283.77
  -3   0   2 6894.51  284.07
  -3   0   2 7226.28  283.77
   3   0  -2 6946.00  283.77
   3   0  -2 7167.28  284.27
   3   0  -2 6911.71  283.77
  -2   0   3 3833.12  153.08
  -2   0   3 3682.13  152.78
   2   0  -3 3784.02  152.78
   2   0  -3 3835.42  152.78
   2   0  -3 3750.92  153.18
  -1   0   4   23.00    3.30
  -1   0   4   18.20    3.20
   1   0  -4   21.40    2.60
   0   0   5  355.96   16.00
   0   0   5  324.17   15.60
   0   0  -5  342.07   15.80
   0   0  -5  349.77   15.10
   1   0   6   29.20    5.80
   1   0   6   14.80    5.30
  -1   0  -6   18.80    3.70
  -1   0  -6   17.00    4.70
   2   0   7  294.87   16.20
   2   0   7  302.67   22.70
  -2   0  -7  314.17   18.30
  -2   0  -7  279.67   17.80
   3   0   8  719.03   37.30
   3   0   8  774.72   33.80
  -3   0  -8  752.12   34.10
   4   0   9   -2.50    6.30
   4   0   9   22.10   10.30
  -4   0  -9    1.70    6.30
   5   0  10  229.18   14.50
   5   0  10  229.68   18.70
  -5   0 -10  215.78   14.60
   6   0  11   -5.50    7.20
  -6   0 -11    1.00    5.40
  -6   0 -11   19.20    7.10
  11   0   5  110.29    8.90
 -10   0  -4   12.00    8.10
  10   0   4   -4.60    4.90
  -9   0  -3  156.58   16.00
   9   0   3  159.98   20.20
   9   0   3  155.88   11.40
  -8   0  -2   92.49   13.20
   8   0   2   70.39    8.70
   8   0   2   94.79   13.80
  -7   0  -1  383.56   21.90
  -7   0  -1  411.96   20.80
   6   0   0 1530.05   63.89
  -5   0   1   32.50    4.60
  -5   0   1   30.00    4.90
   5   0  -1   35.40    5.50
   5   0  -1   34.70    3.80
  -4   0   2  126.59    7.20
  -4   0   2  125.59    7.10
  -4   0   2  129.49    7.00
   4   0  -2  128.59    8.00
   4   0  -2  132.29    6.60
   4   0  -2  125.89    6.60
  -3   0   3 1941.41   78.59
   3   0  -3 1929.01   78.19
   3   0  -3 1974.80   78.19
   3   0  -3 1830.92   78.69
  -2   0   4  482.55   21.00
  -2   0   4  499.85   21.10
   2   0  -4  500.75   20.70
   2   0  -4  460.55   21.40
   2   0  -4  492.05   20.60
  -1   0   5    6.20    2.60
  -1   0   5    2.20    3.20
   1   0  -5    2.90    2.20
   0   0   6    9.80    6.40
   0   0   6   -1.10    7.10
   0   0   6   10.00    7.30
   0   0  -6    8.60    5.70
   0   0  -6    8.10    3.30
   0   0  -6   -2.40    5.40
   1   0   7   24.10    6.50
   1   0   7   27.40    8.40
  -1   0  -7   24.90    5.10
  -1   0  -7   19.10    8.20
   2   0   8   20.40    6.30
   2   0   8   16.80   10.60
  -2   0  -8   16.30    5.50
  -2   0  -8   18.30    9.10
   3   0   9  332.77   21.80
   3   0   9  281.27   17.70
  -3   0  -9  314.87   18.50
   4   0  10   -2.10    6.60
   4   0  10    3.80    9.90
  -4   0 -10    1.30    5.70
   5   0  11   -3.70    9.70
   5   0  11   17.50    7.70
  -5   0 -11   10.70    5.90
  -5   0 -11   18.80    8.10
  11   0   4   80.99    8.40
 -10   0  -3    1.50    9.50
  10   0   3    1.90    5.10
  10   0   3  -16.30   11.00
  -9   0  -2  274.87   20.10
   9   0   2  255.87   22.70
   9   0   2  270.47   15.00
  -8   0  -1   20.50    6.30
  -8   0  -1   15.70    8.00
   8   0   1   15.60   12.90
  -7   0   0 1253.07   52.49
   7   0   0 1170.08   50.99
   7   0   0 1145.69   50.79
   6   0  -1  642.04   28.10
  -5   0   2 1037.50   45.80
  -5   0   2 1027.90   44.50
  -5   0   2 1019.10   44.20
   5   0  -2 1067.39   45.60
   5   0  -2 1130.29   44.20
  -4   0   3    1.30    2.80
  -4   0   3    3.80    2.30
   4   0  -3    1.70    1.60
   4   0  -3    3.00    1.90
   4   0  -3    6.70    3.40
  -3   0   4  241.28   12.10
  -3   0   4  258.17   12.20
   3   0  -4  260.57   11.50
   3   0  -4  264.37   11.70
   3   0  -4  244.38   12.90
  -2   0   5  262.97   12.50
  -2   0   5  234.48   12.70
   2   0  -5  255.27   11.70
   2   0  -5  249.08   11.60
  -1   0   6  151.18   10.10
   1   0  -6  144.99   13.40
   1   0  -6  132.39   10.60
   1   0  -6  149.59    8.50
   0   0   7   19.40    6.20
   0   0   7   14.20    6.60
   0   0  -7    4.30    5.00
   0   0  -7   15.10    5.20
   1   0   8  276.87   15.80
   1   0   8  224.88   20.40
  -1   0  -8  275.97   16.80
  -1   0  -8  259.07   15.80
   2   0   9  296.47   17.10
   2   0   9  286.07   21.30
  -2   0  -9  305.87   17.80
  -2   0  -9  272.17   17.80
   3   0  10  149.69   16.90
   3   0  10  146.49   13.00
  -3   0 -10  136.79   12.80
  -3   0 -10  114.49   17.60
   4   0  11   -2.80    9.20
   4   0  11   -1.90    7.70
  -4   0 -11    4.30    9.60
  -4   0 -11   -2.30    6.10
  12   0   4   13.20    4.80
  11   0   3  125.39   19.60
  11   0   3  108.69    9.60
  10   0   2   55.99   11.90
  10   0   2   72.29    9.30
   9   0   1  127.39   19.20
  -8   0   0  760.62   33.20
  -8   0   0  758.32   33.40
   8   0   0  706.63   33.90
   7   0  -1  883.51   38.30
   7   0  -1  849.61   37.70
   6   0  -2 1455.65   61.99
   6   0  -2 1529.25   62.19
  -5   0   3  920.61   39.50
   5   0  -3  941.81   38.70
   5   0  -3  900.11   40.90
  -4   0   4  957.20   39.80
   4   0  -4  969.20   39.30
   4   0  -4  860.81   40.30
   4   0  -4  948.91   39.00
  -3   0   5   28.10    4.10
   3   0  -5   28.80    4.00
   3   0  -5   39.80    4.50
   3   0  -5   25.80    6.00
  -2   0   6  164.98   11.60
   2   0  -6  164.58    9.30
   2   0  -6  162.68    9.30
  -1   0   7  259.77   16.00
  -1   0   7  252.27   15.90
   1   0  -7  245.68   15.60
   1   0  -7  233.88   13.60
   0   0   8  139.19   17.20
   0   0   8  121.59   17.90
   0   0  -8  146.89   12.00
   0   0  -8  101.19   12.40
   1   0   9   40.00    7.70
   1   0   9   32.70   10.30
  -1   0  -9   30.30    6.70
  -1   0  -9   49.60    8.40
   2   0  10   57.89   10.30
   2   0  10   39.60   11.80
  -2   0 -10   50.59    8.30
  -2   0 -10   43.50    7.70
   3   0  11   35.30    8.50
   3   0  11   33.50    9.20
  -3   0 -11   29.90    6.80
   4   0  12   53.59    8.80
  -4   0 -12   52.69    7.20
  12   0   3    2.50    7.50
  11   0   2    5.50    5.30
  11   0   2   12.30   10.60
  10   0   1  210.08   13.40
  10   0   1  237.08   19.90
  -9   0   0  103.19   13.70
   9   0   0  120.59   18.00
  -8   0   1  707.83   31.50
  -8   0   1  675.83   31.00
   8   0  -1  681.03   31.40
   7   0  -2    4.10    4.20
   7   0  -2    0.90    5.10
  -6   0   3 1329.17   53.99
   6   0  -3 1256.77   52.59
   6   0  -3 1177.38   52.29
  -5   0   4    6.40    4.10
   5   0  -4    2.30    3.60
   5   0  -4   12.30    3.10
   5   0  -4   14.30    3.50
  -4   0   5 2886.21  117.59
   4   0  -5 2860.91  117.09
   4   0  -5 2900.01  116.79
   4   0  -5 2859.01  119.69
   4   0  -5 2803.62  116.79
  -3   0   6  219.18   13.10
   3   0  -6  221.08   12.50
   3   0  -6  227.48   11.90
   3   0  -6  222.88   11.60
  -2   0   7  384.86   22.70
  -2   0   7  445.56   22.20
   2   0  -7  450.15   20.20
   2   0  -7  426.96   20.60
   2   0  -7  423.46   22.50
   2   0  -7  434.46   20.70
  -1   0   8  538.65   29.00
  -1   0   8  552.64   26.50
   1   0  -8  526.35   25.90
   1   0  -8  520.55   25.00
   1   0  -8  548.65   25.20
   0   0   9  581.04   30.00
   0   0   9  564.24   27.80
   0   0  -9  574.94   26.40
   0   0  -9  562.44   27.30
   1   0  10  370.06   23.00
   1   0  10  375.66   21.50
  -1   0 -10  379.56   20.80
  -1   0 -10  365.06   19.30
   2   0  11   82.69   15.30
   2   0  11   70.89    9.50
  -2   0 -11   63.79    8.20
  -2   0 -11   84.19   12.20
   3   0  12   48.90    8.80
   3   0  12   81.39   21.00
  -3   0 -12   51.39   13.60
  12   0   2   31.60    6.10
  11   0   1  123.19   17.80
  11   0   1   92.19    9.50
  10   0   0   74.79   12.10
  -9   0   1   22.70    5.80
  -9   0   1    9.00    5.70
   9   0  -1   11.30    7.00
  -8   0   2  810.92   34.60
  -8   0   2  801.92   35.10
   8   0  -2  727.63   35.50
   7   0  -3    0.80    4.70
   7   0  -3   -1.60    3.50
  -6   0   4   79.89   11.30
   6   0  -4   79.99    7.40
   6   0  -4   78.69    8.00
  -5   0   5  687.43   30.90
   5   0  -5  662.93   29.90
   5   0  -5  672.53   29.40
   5   0  -5  678.73   29.50
  -4   0   6  167.48   18.00
  -4   0   6  216.78   13.40
   4   0  -6  213.58   12.60
   4   0  -6  200.58   11.50
   4   0  -6  192.78   11.20
  -3   0   7   26.00    8.60
  -3   0   7   21.80    7.70
   3   0  -7   40.20    8.40
   3   0  -7   35.50    6.20
   3   0  -7   19.50    5.60
   3   0  -7   34.60    5.00
   3   0  -7   36.60    6.10
  -2   0   8  460.45   24.70
  -2   0   8  453.25   26.20
   2   0  -8  506.05   22.50
  -1   0   9  234.08   18.30
  -1   0   9  208.38   17.10
   1   0  -9  234.68   16.10
   1   0  -9  238.18   13.70
   1   0  -9  240.48   16.20
   0   0  10  218.28   17.70
   0   0  10  222.28   17.80
   0   0 -10  224.78   16.50
   0   0 -10  242.48   14.00
   1   0  11   32.50    8.90
   1   0  11   42.20    9.60
  -1   0 -11   51.59    7.90
  -1   0 -11   71.29   10.30
   2   0  12   49.20    8.10
  -2   0 -12   31.10    7.70
  13   0   2   59.99   10.00
  12   0   1   -3.40    5.50
  12   0   1  -19.90   14.80
  11   0   0  159.18   11.60
  11   0   0  169.88   17.70
 -10   0   1    5.90    4.90
  10   0  -1    9.30    9.40
  -9   0   2  721.43   32.80
  -9   0   2  770.52   33.30
   9   0  -2  708.03   33.20
  -8   0   3  113.69   11.50
  -8   0   3   82.69   10.70
   8   0  -3  105.49    8.90
  -7   0   4   52.19    7.90
   7   0  -4   49.40    7.70
   7   0  -4   32.60    6.40
  -6   0   5   11.80    7.40
   6   0  -5    1.40    5.20
   6   0  -5    0.60    3.60
  -5   0   6   27.30    7.80
   5   0  -6   20.10    4.30
   5   0  -6   25.70    5.60
  -4   0   7  573.34   30.00
  -4   0   7  609.44   30.30
   4   0  -7  583.54   27.30
   4   0  -7  628.84   26.90
  -3   0   8   46.30    9.60
  -3   0   8   34.20    8.50
   3   0  -8   30.10    5.30
   3   0  -8   25.30    9.00
   3   0  -8   26.40    5.40
  -2   0   9    5.80    9.10
  -2   0   9   11.30    8.10
   2   0  -9   13.40    5.90
   2   0  -9    6.70    5.20
   2   0  -9   16.30    7.30
  -1   0  10  101.29   10.60
  -1   0  10   76.19   11.10
   1   0 -10   80.69    9.30
   1   0 -10   82.69   13.50
   0   0  11  460.15   24.80
   0   0  11  474.55   25.50
   0   0 -11  455.55   21.80
   0   0 -11  448.56   24.20
   1   0  12   28.00    7.50
  -1   0 -12   41.00    6.20
  -1   0 -12   37.00    8.00
   2   0  13    0.30    7.90
  -2   0 -13   -9.30    8.50
  13   0   1   32.80    6.90
  12   0   0   13.20    6.00
  12   0   0   32.30    9.50
  11   0  -1   37.30   10.60
  11   0  -1   48.50    7.00
 -10   0   2   17.00    5.50
  10   0  -2   16.90    7.30
  -9   0   3  331.77   19.40
  -9   0   3  325.57   17.80
   9   0  -3  330.27   17.60
  -8   0   4  198.98   15.60
  -8   0   4  244.08   14.60
   8   0  -4  231.68   12.90
  -7   0   5   43.50    7.30
   7   0  -5   27.90    4.80
   7   0  -5   19.40    7.50
  -6   0   6  188.98   15.10
   6   0  -6  186.68   13.90
   6   0  -6  204.08   11.30
  -5   0   7   26.30    7.90
   5   0  -7   23.70    4.50
   5   0  -7   14.60    5.20
  -4   0   8 1029.30   45.80
   4   0  -8 1019.00   43.60
   4   0  -8 1013.00   43.50
  -3   0   9  431.06   23.60
   3   0  -9  422.36   25.20
   3   0  -9  436.16   20.80
  -2   0  10  632.54   30.90
   2   0 -10  646.04   28.40
   2   0 -10  622.64   29.40
   2   0 -10  629.54   31.40
  -1   0  11   11.90    7.70
   1   0 -11    5.80    8.00
   1   0 -11    2.60    4.80
   0   0  12  218.18   15.20
   0   0 -12  220.28   18.30
   0   0 -12  217.78   12.50
   1   0  13   76.49   11.70
  -1   0 -13   96.39   16.00
  13   0   0   44.50    8.40
  12   0  -1   61.79    9.70
  12   0  -1   65.29    7.50
 -11   0   2  253.97   14.10
  11   0  -2  247.28   19.00
  11   0  -2  237.38   20.80
 -10   0   3    4.90    5.00
  10   0  -3   -6.60    6.10
  -9   0   4  117.79   10.60
  -9   0   4   98.49   13.00
   9   0  -4  102.29    9.90
  -8   0   5    6.80    6.10
  -8   0   5   11.30    8.50
   8   0  -5    8.10    4.00
   8   0  -5   12.40    8.70
  -7   0   6  182.78   14.00
   7   0  -6  177.08   13.30
   7   0  -6  188.28   11.50
  -6   0   7  176.08   14.40
   6   0  -7  184.98   11.30
   6   0  -7  195.38   12.40
  -5   0   8  460.05   24.60
   5   0  -8  485.05   22.30
   5   0  -8  487.65   22.40
  -4   0   9  172.98   14.90
   4   0  -9  165.18   11.40
   4   0  -9  174.98   11.40
  -3   0  10 1293.57   55.49
   3   0 -10 1236.68   53.79
   3   0 -10 1260.77   56.69
   3   0 -10 1286.97   53.59
  -2   0  11   94.49   12.80
   2   0 -11   81.19   10.90
   2   0 -11  102.79    8.50
  -1   0  12  431.16   22.00
   1   0 -12  414.16   19.70
   1   0 -12  416.66   25.50
   0   0  13   23.90    7.00
   0   0 -13   13.90    5.60
   0   0 -13   -0.60   10.60
  12   0  -2   69.69   10.10
  12   0  -2   81.39   12.10
 -11   0   3  104.39    9.10
  11   0  -3   79.59    8.80
 -10   0   4  270.27   15.80
  10   0  -4  290.57   16.60
  -9   0   5   38.10    6.30
  -9   0   5   51.29    8.80
   9   0  -5   45.40    6.00
  -8   0   6  200.28   13.50
   8   0  -6  181.98   17.80
   8   0  -6  193.88   11.90
   7   0  -7   94.39    9.00
   7   0  -7   82.79   12.50
  -6   0   8  104.99   11.70
   6   0  -8   86.09    8.50
   6   0  -8   84.89    9.60
  -5   0   9   90.69   12.00
   5   0  -9   91.29    9.10
   5   0  -9   95.69    9.00
  -4   0  10  302.47   18.50
   4   0 -10  300.07   15.60
   4   0 -10  307.37   16.60
  -3   0  11   -5.30    6.80
   3   0 -11   -5.10    4.10
   3   0 -11  -10.80    7.30
  -2   0  12   48.10    7.60
   2   0 -12   53.39    7.20
  -1   0  13  100.89   10.80
   1   0 -13  109.49    8.60
  12   0  -3   80.89   10.20
 -11   0   4  156.68   10.90
  11   0  -4  144.79   13.10
 -10   0   5  256.07   14.80
  10   0  -5  264.67   18.00
  -9   0   6    6.70    5.30
   9   0  -6   17.20    5.40
   9   0  -6   10.50    8.10
  -8   0   7   22.30    6.00
   8   0  -7   27.30    5.20
   8   0  -7   19.50    6.10
  -7   0   8    7.50    6.10
   7   0  -8   -0.70    4.40
   7   0  -8    6.40    5.10
  -6   0   9  162.28   12.90
   6   0  -9  150.98   10.90
   6   0  -9  144.89   10.60
  -5   0  10   30.50    6.90
   5   0 -10   34.80    7.70
   5   0 -10   36.50    5.20
  -4   0  11   29.50    7.00
   4   0 -11   33.20    6.80
   4   0 -11   36.20    5.10
  -3   0  12    3.00    5.90
   3   0 -12    7.90    3.90
  -2   0  13    6.00    5.90
   2   0 -13   14.00    4.10
  13   0  -3  -11.70    8.60
 -12   0   4    8.70    4.00
  12   0  -4   15.60    7.60
  12   0  -4   -4.50    7.60
 -11   0   5   84.39    8.70
  11   0  -5   91.29   10.80
 -10   0   6   33.80    6.00
  10   0  -6   32.20    5.90
  -9   0   7    1.40    5.00
   9   0  -7    5.90    6.20
  -8   0   8   68.99    9.80
   8   0  -8   88.59    9.00
   8   0  -8   62.69    9.80
  -7   0   9   33.20    6.60
   7   0  -9   32.30    5.20
  -6   0  10  254.17   15.60
   6   0 -10  250.97   13.70
   6   0 -10  245.18   14.10
  -5   0  11   18.50    6.30
   5   0 -11   11.50    4.60
   5   0 -11   22.70    6.00
  -4   0  12   51.59    7.10
   4   0 -12   47.10    6.50
   4   0 -12   50.49    9.80
  -3   0  13    5.40    5.40
   3   0 -13   14.10    3.90
  13   0  -4   51.19    9.20
 -12   0   5    8.10    3.90
  12   0  -5   -5.00    6.80
  12   0  -5   11.50    6.60
 -11   0   6   39.60    7.90
  11   0  -6   49.60    6.60
 -10   0   7    6.60    4.80
  10   0  -7    9.80    4.90
  -9   0   8   -3.20    4.90
   9   0  -8    2.20    4.70
   9   0  -8   -1.20    5.50
  -8   0   9   52.49    6.60
   8   0  -9   53.09    8.20
   8   0  -9   48.90    6.10
  -7   0  10    7.50    5.70
   7   0 -10    7.30    4.60
   7   0 -10   16.60    4.80
  -6   0  11  192.28   13.10
   6   0 -11  194.68   12.20
   6   0 -11  181.18   13.80
  -5   0  12   33.40    5.90
   5   0 -12   42.20    6.30
   5   0 -12   33.10    8.00
  -4   0  13   24.40    5.50
   4   0 -13   29.40    3.70
  13   0  -5   50.89    8.20
 -12   0   6    9.60    3.60
 -11   0   7   -1.80    3.90
  11   0  -7    7.80    5.50
 -10   0   8  132.39   10.10
  10   0  -8  160.78   10.90
  10   0  -8  147.59   13.60
  -9   0   9   -7.40    4.60
   9   0  -9    5.60    4.70
   9   0  -9    1.80    4.70
  -8   0  10  154.18   11.00
   8   0 -10  158.58   10.70
   8   0 -10  154.78   10.80
  -7   0  11   14.30    5.10
   7   0 -11    4.20    3.60
   7   0 -11    3.60    5.10
  -6   0  12  343.17   17.20
   6   0 -12  344.77   15.80
   6   0 -12  319.77   17.90
  -5   0  13   10.80    4.90
   5   0 -13    7.50    2.90
  13   0  -6   23.20    8.10
 -12   0   7   96.89    6.80
  12   0  -7   86.99   10.00
 -11   0   8   17.40    4.00
  11   0  -8   17.00    5.40
 -10   0   9   84.29    7.60
  10   0  -9   87.09   11.20
  10   0  -9   84.09    8.90
  -9   0  10   -6.30    3.90
   9   0 -10   -2.40    4.10
   9   0 -10   -0.50    4.50
  -8   0  11  171.68   10.60
   8   0 -11  180.68   10.40
   8   0 -11  180.38   11.30
  -7   0  12    6.40    4.30
   7   0 -12   24.40    3.80
   7   0 -12   14.30    5.90
  -6   0  13   81.69    7.60
   6   0 -13   89.39    6.40
 -12   0   8   68.89    5.90
  12   0  -8   76.39    8.80
 -11   0   9   18.50    3.90
  11   0  -9   22.70    5.40
 -10   0  10  188.58   10.60
  10   0 -10  200.78   11.90
  10   0 -10  208.48   12.90
  -9   0  11   53.89    5.90
   9   0 -11   47.30    7.30
   9   0 -11   49.60    7.80
  -8   0  12  121.79    8.20
   8   0 -12  141.09    8.00
   8   0 -12  129.69   10.60
  -8  -1  12   15.50    5.30
   9   1 -11   34.30    4.40
   9   1 -11   40.40    5.60
  -9  -1  11   39.20    5.60
  10   1 -10    7.00    4.50
  10   1 -10    5.60    4.70
 -10  -1  10    0.90    4.70
  11   1  -9   34.60    5.10
 -11  -1   9   49.60    7.60
  12   1  -8   14.70    5.10
 -12  -1   8    5.90    4.10
   7   1 -12  101.89    8.30
   7   1 -12  113.39    7.10
   7   1 -12   82.49   13.30
  -7  -1  12   95.39   10.10
   8   1 -11    7.20    3.60
   8   1 -11    8.90    5.60
   8   1 -11   -3.00    6.10
  -8  -1  11    9.30    5.40
   9   1 -10   52.19    8.40
   9   1 -10   55.99    7.50
  -9  -1  10   69.39    9.00
  10   1  -9   14.60    5.10
  10   1  -9   16.30    5.10
 -10  -1   9   29.70    5.50
  11   1  -8   34.80    5.40
 -11  -1   8   40.50    5.40
  12   1  -7   23.00    5.30
 -12  -1   7   17.30    4.30
   5   1 -13    8.80    3.30
   6   1 -12   26.60    4.10
  -6  -1  12   24.70    6.80
   7   1 -11   87.99   10.40
   7   1 -11   94.29    7.80
  -7  -1  11   87.19   10.70
   8   1 -10   18.30    7.10
   8   1 -10   15.90    4.50
   8   1 -10   16.00    5.40
  -8  -1  10   16.90    6.40
   9   1  -9  118.89    9.80
   9   1  -9  135.29   10.10
  -9  -1   9  129.19   11.10
  10   1  -8   29.50    5.50
  10   1  -8   41.40    6.00
 -10  -1   8   35.30    6.10
  11   1  -7   50.49    8.40
 -11  -1   7   53.89    6.40
  12   1  -6  156.78   14.40
 -12  -1   6  131.49    9.60
  13   1  -5   16.40    8.10
  13   1  -5   21.30    8.50
   4   1 -13   21.80    3.90
   5   1 -12   18.20    3.90
  -5  -1  12   25.40    8.20
   6   1 -11   23.40    6.70
   6   1 -11   20.60    4.40
  -6  -1  11   23.30    7.40
   7   1 -10  217.58   13.20
   7   1 -10  213.88   12.70
  -7  -1  10  180.18   21.70
   8   1  -9    3.40    4.50
   8   1  -9    4.80    5.00
   8   1  -9   -2.00   11.30
  -8  -1   9   -0.40    6.80
   9   1  -8   35.30    6.00
   9   1  -8   32.60    6.00
  -9  -1   8   34.40    6.70
  10   1  -7   18.60    5.50
  10   1  -7   21.80    7.20
 -10  -1   7   23.70    6.20
  11   1  -6  138.39   10.90
 -11  -1   6  149.59   11.20
  12   1  -5   47.80    6.70
  12   1  -5   52.59    7.90
 -12  -1   5   53.99    7.30
  13   1  -4    6.10    4.80
   3   1 -13   65.69    7.20
   4   1 -12   -1.40    3.90
  -4  -1  12   -5.20    8.10
   5   1 -11  197.88   15.00
   5   1 -11  209.18   11.80
  -5  -1  11  184.98   16.00
   6   1 -10   14.40    4.60
   6   1 -10   23.30    6.20
  -6  -1  10   32.80    8.70
   7   1  -9   30.30    5.40
   7   1  -9   37.80    6.00
  -7  -1   9   31.60    7.90
   8   1  -8   46.90    5.90
   8   1  -8   43.00    7.10
  -8  -1   8   42.00    8.20
   9   1  -7   28.70    6.00
   9   1  -7   24.10    6.10
  -9  -1   7   22.20    6.60
  10   1  -6   46.50    8.10
  10   1  -6   40.10    6.10
 -10  -1   6   52.19    7.20
  11   1  -5   12.90    5.10
 -11  -1   5   23.30    6.20
  12   1  -4   29.30    5.80
  12   1  -4   27.00    6.70
  13   1  -3    1.80    4.90
   2   1 -13   -9.40    4.80
   3   1 -12   20.80    4.40
  -3  -1  12   39.20    9.30
   4   1 -11   65.89    8.20
  -4  -1  11   80.89   11.50
   5   1 -10   54.49    8.20
   5   1 -10   45.70    7.00
  -5  -1  10   42.80    9.50
   6   1  -9    7.70    5.60
   6   1  -9   17.30    5.40
  -6  -1   9   12.80    8.40
   7   1  -8    9.80    5.10
   7   1  -8   16.00    5.70
  -7  -1   8   17.40    8.40
   8   1  -7   10.90    5.40
   8   1  -7    4.70    4.90
  -8  -1   7   13.60    7.60
   9   1  -6    6.10    5.50
   9   1  -6   11.40    6.10
  -9  -1   6    9.00    7.00
  10   1  -5   21.20    8.90
  10   1  -5   21.50    5.80
 -10  -1   5   11.20    6.20
  11   1  -4   -1.20    5.30
 -11  -1   4    8.80    5.60
  12   1  -3   87.19    9.70
  12   1  -3  102.29   12.50
  13   1  -2   16.30    5.70
   1   1 -13    1.70    9.40
   2   1 -12    3.40    4.30
   2   1 -12   12.90    8.30
   3   1 -11  114.59   15.40
   3   1 -11  141.69   10.20
  -3  -1  11  137.59   17.00
   4   1 -10  277.67   16.90
   4   1 -10  289.77   15.10
  -4  -1  10  233.88   20.40
   5   1  -9  258.27   15.80
   5   1  -9  285.97   15.40
  -5  -1   9  315.57   21.10
   6   1  -8   88.19    9.20
   6   1  -8   86.59    9.30
  -6  -1   8   69.19   10.70
   7   1  -7  434.36   21.30
  -7  -1   7  428.96   30.60
   8   1  -6   14.20    5.10
   8   1  -6   18.60    5.50
  -8  -1   6   15.10    7.80
   9   1  -5  116.69   10.80
   9   1  -5  108.09   13.40
  -9  -1   5  160.58   13.40
  10   1  -4   99.59   10.70
 -10  -1   4   97.59   11.80
  11   1  -3   19.70    6.40
 -11  -1   3   33.70    6.30
  12   1  -2   41.80    6.70
  12   1  -2   30.90    9.20
  13   1  -1    3.60    5.40
   0   1 -13   66.19    8.30
   1   1 -12   27.70    5.40
   2   1 -11  123.39   10.20
   2   1 -11  118.59   14.40
   3   1 -10    9.80    7.50
   3   1 -10    8.70   13.30
   3   1 -10    5.50    4.90
  -3  -1  10   19.00   11.30
   4   1  -9  148.19   11.90
   4   1  -9  146.49   10.90
  -4  -1   9  147.29   19.30
   5   1  -8  401.36   20.50
   5   1  -8  398.96   19.60
  -5  -1   8  380.46   25.20
   6   1  -7   75.09    8.50
   6   1  -7   75.09    9.20
  -6  -1   7   71.79   10.90
   7   1  -6  530.95   25.30
   7   1  -6  527.65   25.70
  -7  -1   6  589.04   28.60
   8   1  -5    2.10    4.30
   8   1  -5   13.50    6.60
  -8  -1   5   12.90    7.50
   9   1  -4  431.66   24.90
   9   1  -4  480.15   22.70
  -9  -1   4  470.75   23.80
  10   1  -3  193.68   13.40
 -10  -1   3  198.68   14.60
  11   1  -2   43.20    7.80
  11   1  -2   54.89    7.50
  12   1  -1   73.59    9.80
  13   1   0   17.30    5.70
  -1   1 -13   26.80    7.10
   0   1 -12  113.59   11.60
   0   1 -12  141.29   14.50
   1   1 -11  167.18   14.80
   1   1 -11  149.09   11.60
   2   1 -10    5.70    7.10
   2   1 -10    4.10    5.10
   3   1  -9  584.44   27.00
   3   1  -9  590.94   29.00
   3   1  -9  576.44   27.60
  -3  -1   9  611.84   39.10
   4   1  -8  224.98   13.30
   4   1  -8  206.98   16.40
   4   1  -8  225.48   13.40
  -4  -1   8  171.48   22.10
   5   1  -7  233.78   14.10
   5   1  -7  243.38   13.60
  -5  -1   7  230.88   21.60
   6   1  -6  333.97   16.20
   6   1  -6  307.77   16.80
  -6  -1   6  301.57   22.70
   7   1  -5  185.58   13.80
   7   1  -5  181.18   11.60
  -7  -1   5  208.28   17.60
   8   1  -4   28.60    5.10
   8   1  -4   37.00    8.00
  -8  -1   4   42.00    8.70
   9   1  -3  343.97   18.00
  -9  -1   3  327.47   28.20
  10   1  -2   62.79   10.40
 -10  -1   2   35.70    7.30
  11   1  -1   16.80    8.20
  11   1  -1   23.90    7.00
  12   1   0    4.10    6.10
  13   1   1   31.70    6.30
  -1   1 -12   74.59   12.60
   0   1 -11  116.39   11.60
   0   1 -11  104.39   12.90
   1   1 -10  273.67   17.40
   1   1 -10  268.17   15.60
   2   1  -9  238.18   16.10
   3   1  -8  231.78   14.10
   3   1  -8  237.98   16.40
   3   1  -8  239.28   14.60
   4   1  -7   30.40    8.90
   4   1  -7   15.80    7.10
   4   1  -7   17.90    5.60
   5   1  -6  269.57   16.00
   5   1  -6  287.97   14.90
   6   1  -5   69.89   10.60
   6   1  -5   55.59    9.20
   7   1  -4   20.90    4.70
   7   1  -4   11.30    6.90
  -7  -1   4    8.40    9.90
   8   1  -3   13.30   10.00
   8   1  -3   28.70    5.00
  -8  -1   3   27.20    8.10
   9   1  -2   27.20    5.50
  -9  -1   2   36.10    8.10
  10   1  -1   88.19   13.30
  10   1  -1   95.19   11.60
  10   1  -1   83.99   12.50
  11   1   0   39.60    7.40
  11   1   0   50.99    8.60
  12   1   1    2.70    6.10
  12   1   1    2.00   10.10
  -2   1 -12   44.10    7.10
  -1   1 -11  110.49   15.50
  -1   1 -11   90.69   12.10
   0   1 -10   32.70    6.90
   0   1 -10   48.80    7.20
   1   1  -9  145.39   13.00
   1   1  -9  149.49   12.10
   2   1  -8  252.47   15.10
   2   1  -8  259.27   15.90
   2   1  -8  243.28   16.50
   3   1  -7   61.39    7.70
   3   1  -7   65.39    9.60
   3   1  -7   61.39    7.10
   4   1  -6  135.99   13.10
   4   1  -6  119.09    9.50
  -4  -1   6   93.99   12.90
   5   1  -5  292.17   15.50
  -5  -1   5  341.77   18.40
   6   1  -4  172.98   11.30
   6   1  -4  168.08   10.50
  -6  -1   4  175.68   14.70
   7   1  -3   99.99    8.40
   7   1  -3   90.19   11.50
   8   1  -2  246.78   14.00
  -8  -1   2  236.08   18.10
   9   1  -1  207.48   13.90
   9   1  -1  217.68   16.10
  -9  -1   1  247.58   16.20
  -9  -1   1  227.38   17.60
  10   1   0  114.99   12.30
  10   1   0  107.89   13.10
  10   1   0   97.19   15.00
 -10  -1   0  132.99   17.10
  11   1   1   59.59    8.00
  11   1   1   79.19   11.80
  12   1   2   81.09   10.20
  12   1   2   81.39   11.80
  -3   1 -12    3.80    7.20
  -2   1 -11   90.59   11.50
  -2   1 -11   74.99   10.80
  -1   1 -10  299.87   17.50
  -1   1 -10  293.37   18.10
  -1   1 -10  269.97   23.10
   0   1  -9  258.27   16.00
   0   1  -9  230.48   15.50
   1   1  -8   22.00    6.40
   1   1  -8   25.60    6.10
   2   1  -7  211.08   14.80
   2   1  -7  229.58   14.40
  -2  -1   7  227.88   17.60
   3   1  -6  405.46   19.70
   3   1  -6  389.46   21.50
  -3  -1   6  434.96   21.30
   4   1  -5  336.37   15.40
   4   1  -5  349.96   16.90
  -4  -1   5  359.26   18.20
   5   1  -4  183.68    9.70
   5   1  -4  177.18   10.80
  -5  -1   4  198.08   12.30
   6   1  -3   88.49    7.70
   6   1  -3   76.49    7.70
  -6  -1   3   87.39   10.50
   7   1  -2  570.74   27.20
   7   1  -2  576.54   26.00
   8   1  -1  380.36   19.50
   8   1  -1  428.36   25.70
  -8  -1   1  393.26   22.50
   9   1   0  143.39   12.70
   9   1   0  133.39   13.20
  -9  -1   0  160.88   14.60
  10   1   1  362.86   20.30
  10   1   1  352.16   19.60
 -10  -1  -1  355.76   21.80
  11   1   2   16.30    6.20
  11   1   2   22.90    7.20
 -11  -1  -2   19.30    9.30
  12   1   3  115.89   10.50
  12   1   3   96.09   11.20
  -4   1 -12   18.30    6.20
  -3   1 -11  -14.00    7.50
  -3   1 -11   12.70    6.00
  -2   1 -10  183.48   13.60
  -2   1 -10  138.19   17.60
  -1   1  -9   29.20   11.40
  -1   1  -9   28.80    6.50
   0   1  -8   36.20    5.90
   0   1  -8   41.90    7.70
   0   1  -8    7.50   13.90
   1   1  -7  295.07   17.20
  -1  -1   7  339.67   20.40
   2   1  -6   55.99    7.00
   2   1  -6   74.99    9.50
  -2  -1   6   64.79    8.80
  -3  -1   5  174.28   11.10
   4   1  -4  952.40   40.00
   4   1  -4  978.80   41.20
  -4  -1   4  979.40   41.90
   5   1  -3  554.34   24.10
   5   1  -3  510.15   24.70
  -5  -1   3  592.84   25.80
  -5  -1   3  576.54   25.00
   6   1  -2  623.44   26.60
   6   1  -2  596.14   26.70
  -6  -1   2  584.04   28.10
   7   1  -1  985.10   42.40
   7   1  -1  992.70   43.60
   8   1   0  234.58   15.40
   8   1   0  264.87   19.50
   8   1   0  242.88   14.70
  -8  -1   0  242.68   17.30
   9   1   1   93.49   10.30
   9   1   1   88.39   12.90
   9   1   1  109.69   14.50
  -9  -1  -1   82.29   13.20
  10   1   2  204.58   13.80
  10   1   2  218.88   15.30
 -10  -1  -2  199.68   16.40
  11   1   3   25.10    6.00
  11   1   3   14.60    6.70
 -11  -1  -3   29.10    8.70
  12   1   4   93.49   10.30
  12   1   4   75.39    9.80
  -4   1 -11   35.00    6.10
  -4   1 -11   30.00    7.80
  -3   1 -10    1.00    8.10
  -3   1 -10   13.70    5.90
   3  -1  10    8.80    9.70
  -2   1  -9  135.59   12.20
  -2   1  -9  119.19   16.10
   2  -1   9  141.69   15.10
  -1   1  -8  256.07   15.90
  -1   1  -8  211.18   22.00
  -1   1  -8  262.07   14.80
  -1   1  -8  220.98   18.30
   1  -1   8  232.28   17.90
   0   1  -7  106.39   10.50
   0  -1   7  112.39   15.10
   1   1  -6  711.03   31.20
   1   1  -6  684.13   32.40
  -1  -1   6  771.42   32.80
  -1  -1   6  738.83   32.40
   2   1  -5  110.29    7.10
  -2  -1   5  122.29    8.70
  -2  -1   5  108.99    8.60
   3   1  -4 1401.36   63.19
  -3  -1   4 1580.54   62.69
  -3  -1   4 1518.45   61.99
   4   1  -3 1520.55   64.59
   4   1  -3 1623.84   62.69
  -4  -1   3 1454.85   63.39
   5   1  -2  632.34   26.00
  -5  -1   2  566.24   26.50
  -5  -1   2  622.64   27.30
   6   1  -1  121.49    9.70
   6   1  -1  113.69    8.60
  -6  -1   1  140.69   10.60
   7   1   0  195.98   14.00
   7   1   0  190.08   11.90
   8   1   1  175.78   14.50
   8   1   1  166.68   13.60
   8   1   1  183.28   12.30
  -8  -1  -1  156.48   14.00
   9   1   2   53.99    7.00
   9   1   2   47.60    8.20
  -9  -1  -2   36.40    7.10
  10   1   3   14.20    5.70
  10   1   3   23.70    7.60
 -10  -1  -3   17.00    6.90
  11   1   4   -7.50    6.20
  11   1   4   11.20    5.50
  -5   1 -11    0.10    7.20
  -5   1 -11    8.40    6.80
  -4   1 -10   95.19   11.00
  -4   1 -10   86.19   13.10
   4  -1  10   55.19    9.60
  -3   1  -9   13.10    5.80
  -3   1  -9   -0.60    8.50
   3  -1   9   20.20    8.40
  -2   1  -8  257.37   15.60
  -2   1  -8  248.88   15.30
   2  -1   8  236.38   16.80
  -1   1  -7  175.28   15.70
   1  -1   7  200.98   15.10
   0   1  -6  500.35   21.30
   0   1  -6  453.55   22.80
   0  -1   6  489.95   23.00
   1   1  -5  371.56   17.90
  -1  -1   5  434.36   19.40
  -1  -1   5  431.06   18.60
   2   1  -4   84.49    7.80
  -2  -1   4   80.09    6.20
  -2  -1   4   85.29    5.80
   3   1  -3  880.81   38.00
  -3  -1   3  933.01   38.80
  -3  -1   3  980.10   39.40
   4   1  -2  112.99    5.90
  -4  -1   2  110.69    7.30
  -4  -1   2  117.19    7.40
  -4  -1   2  108.49    6.40
   5   1  -1  393.46   18.80
  -5  -1   1  426.26   19.60
  -5  -1   1  460.75   20.10
   6   1   0  194.08   12.10
   6   1   0  202.98   11.50
   7   1   1  100.69   10.90
   7   1   1  102.89   10.10
   7   1   1  102.29   14.90
   8   1   2  138.39   17.80
   8   1   2  160.68   11.50
   8   1   2  154.18   14.80
  -8  -1  -2  175.38   13.30
   9   1   3  145.19   14.00
   9   1   3  138.99   11.60
  -9  -1  -3  118.79   13.20
  10   1   4   57.79    8.70
  10   1   4   54.79    8.70
 -10  -1  -4   38.60    7.20
  11   1   5   13.60    5.30
  11   1   5    7.20    6.40
 -11  -1  -5    7.10    8.20
  -6   1 -11   62.39    9.90
  -6   1 -11   74.99   10.30
  -5   1 -10   19.20    7.00
  -5   1 -10   11.50    6.10
   5  -1  10    9.40    8.30
  -4   1  -9  187.68   13.60
  -3   1  -8  386.86   20.30
  -3   1  -8  370.66   20.40
   3  -1   8  385.26   20.30
  -2   1  -7  249.28   15.00
  -2   1  -7  250.47   16.60
   2  -1   7  238.48   15.70
  -1   1  -6  339.97   18.60
   1  -1   6  354.06   20.20
   1  -1   6  397.16   19.70
   0   1  -5  197.18    9.30
   0   1  -5  191.08    9.60
   0  -1   5  198.48   11.20
   0  -1   5  185.98   10.00
   1   1  -4 1878.01   79.39
  -1  -1   4 2008.50   80.39
  -1  -1   4 1968.50   79.39
   2   1  -3  489.65   22.50
  -2  -1   3  523.85   21.60
  -2  -1   3  519.85   22.30
   3   1  -2  515.25   21.30
   3   1  -2  486.45   22.50
  -3  -1   2  509.85   21.30
  -3  -1   2  507.25   21.80
  -3  -1   2  543.65   22.40
   4   1  -1  859.11   37.00
   4   1  -1  880.91   35.80
  -4  -1   1  867.81   36.50
  -4  -1   1  855.11   36.00
  -4  -1   1  836.92   35.80
   5   1   0  590.14   29.00
  -5  -1   0  617.94   27.40
  -5  -1   0  673.73   27.90
  -5  -1   0  602.74   27.50
   6   1   1  216.58   12.50
   6   1   1  216.98   13.30
   6   1   1  204.78   13.30
   7   1   2   46.90    7.90
   7   1   2   52.09    7.90
   7   1   2   60.89    9.60
  -7  -1  -2   54.59    7.40
   8   1   3  324.47   20.40
   8   1   3  334.57   17.60
  -8  -1  -3  332.67   18.50
   9   1   4   22.90    7.50
  10   1   5   31.70    5.60
  10   1   5   37.20    7.40
  11   1   6    1.80    5.20
  11   1   6   10.20    6.00
  -6   1 -10   54.69   10.20
  -6   1 -10   70.49   10.30
   6  -1  10   90.89   12.60
  -5   1  -9   13.00    5.70
   5  -1   9   15.50    7.40
  -4   1  -8  723.53   32.50
  -4   1  -8  662.53   31.50
   4  -1   8  669.23   31.70
  -3   1  -7  181.58   13.50
  -3   1  -7  189.58   14.60
   3  -1   7  215.98   13.50
  -2   1  -6  120.39   10.90
   2  -1   6  135.29   13.40
   2  -1   6  114.19   11.90
  -1   1  -5 1369.26   56.79
  -1   1  -5 1296.37   57.89
   1  -1   5 1453.65   58.09
   0   1  -4   86.19    4.60
   0   1  -4   89.09    4.60
   0  -1   4   81.19    6.20
   0  -1   4   81.69    5.00
  -1  -1   3  675.03   27.60
  -1  -1   3  661.73   28.30
   2   1  -2   23.30    3.40
  -2  -1   2   26.40    3.20
  -2  -1   2   28.20    2.70
   3   1  -1 3325.57  135.79
   3   1  -1 3330.87  134.99
  -3  -1   1 3373.66  135.19
  -3  -1   1 3291.17  135.59
  -3  -1   1 3354.76  134.99
   4   1   0   47.30    3.80
   4   1   0   38.50    5.70
  -4  -1   0   35.80    4.50
  -4  -1   0   33.80    4.80
   5   1   1  488.65   21.90
   6   1   2   34.80    6.90
   6   1   2   39.70    5.60
   6   1   2   38.70    6.30
  -6  -1  -2   42.70    6.20
   7   1   3  240.88   14.00
   7   1   3  213.98   16.80
  -7  -1  -3  252.37   15.00
   8   1   4  231.78   16.80
   8   1   4  230.28   14.30
  -8  -1  -4  239.28   15.30
   9   1   5   10.50    7.20
   9   1   5    6.00    5.10
  -9  -1  -5   23.00    6.20
  10   1   6   31.70    5.40
  10   1   6   34.40    7.00
 -10  -1  -6   51.99    7.00
  -7   1 -10    2.20    5.30
  -7   1 -10    3.00    5.60
   7  -1  10   11.50    8.10
  -6   1  -9  127.59   12.00
   6  -1   9  121.29   12.30
  -5   1  -8   29.00    7.00
  -5   1  -8   33.90    6.70
   5  -1   8   31.20    6.80
  -4   1  -7  159.18   12.70
  -4   1  -7  143.39   12.60
   4  -1   7  153.38   11.90
  -3   1  -6   97.49   10.20
  -3   1  -6   93.29   12.50
   3  -1   6   89.69   10.40
  -2   1  -5  269.07   14.90
  -2   1  -5  269.37   15.50
   2  -1   5  282.17   15.30
  -1   1  -4  781.22   33.30
   1  -1   4  818.12   34.40
   0  -1   3  353.26   15.80
   0  -1   3  353.86   14.80
   1   1  -2 1015.50   40.60
  -1  -1   2  977.20   39.90
  -1  -1   2  942.61   40.40
   2   1  -1 3897.21  157.68
   2   1  -1 3927.11  156.98
  -2  -1   1 3869.01  156.98
  -2  -1   1 3866.51  157.58
   3   1   0 1045.80   41.80
   3   1   0 1096.59   41.30
  -3  -1   0  923.01   41.40
  -3  -1   0  931.41   41.10
   4   1   1  244.18   13.30
   4   1   1  267.97   12.20
  -4  -1  -1  261.47   12.70
   5   1   2  210.58   12.60
   5   1   2  196.28   11.00
   6   1   3  169.98   10.70
   6   1   3  165.28   14.90
  -6  -1  -3  127.99   11.70
  -6  -1  -3  133.79   13.30
   7   1   4   51.29    9.10
   7   1   4   57.79    8.70
  -7  -1  -4   43.40    6.40
   8   1   5   -8.40    7.40
   8   1   5    6.10    4.90
  -8  -1  -5   -5.40    5.50
   9   1   6   19.40    7.40
   9   1   6   19.50    5.40
  -9  -1  -6   11.20    6.20
  10   1   7   59.49    8.10
  10   1   7   47.60    5.90
 -10  -1  -7   53.49    7.30
  -7   1  -9    3.30    6.40
  -7   1  -9    1.50    5.80
   7  -1   9   13.20    6.90
  -6   1  -8   47.70    6.90
  -6   1  -8   41.30    7.20
   6  -1   8   47.30    7.00
  -5   1  -7   -5.00    6.60
  -5   1  -7    0.60    6.10
   5  -1   7    7.30    5.50
  -4   1  -6  245.68   15.10
  -4   1  -6  253.37   15.70
   4  -1   6  228.78   14.00
  -3   1  -5    9.30    5.20
   3  -1   5    4.00    5.00
  -2   1  -4  549.54   23.90
  -1   1  -3  211.48   10.20
   1  -1   3  255.87   10.20
   0  -1   2  433.36   18.60
   0  -1   2  432.56   17.80
   1   1  -1 6465.85  259.87
  -1  -1   1 6407.66  259.87
   2   1   0 1254.27   51.49
   2   1   0 1245.18   51.79
  -2  -1   0 1244.68   51.69
  -2  -1   0 1307.67   51.49
   3   1   1 2293.77   93.29
   3   1   1 2251.97   93.69
  -3  -1  -1 2327.87   93.39
   4   1   2  432.56   20.60
  -4  -1  -2  440.06   20.20
   5   1   3  654.73   29.70
  -5  -1  -3  695.13   29.70
  -5  -1  -3  675.53   30.20
   6   1   4   14.20    4.80
   6   1   4   -2.90    8.30
  -6  -1  -4   20.20    5.40
   7   1   5  137.39   10.70
   7   1   5  139.79   15.00
  -7  -1  -5  136.89   12.30
   8   1   6   -2.30    7.10
   8   1   6   17.70    5.40
  -8  -1  -6   10.60    5.90
   9   1   7   -1.80    6.20
   9   1   7    2.70    4.80
  -9  -1  -7    9.80    5.80
  -8   1  -9  116.59   11.90
  -8   1  -9  106.19   10.20
   8  -1   9  123.39   11.20
  -7   1  -8   15.30    6.20
  -7   1  -8   21.50    6.40
   7  -1   8    8.80    5.90
  -6   1  -7  241.88   15.30
  -6   1  -7  256.17   16.70
   6  -1   7  219.68   14.50
  -5   1  -6   57.79    7.90
  -5   1  -6   50.09    7.40
   5  -1   6   68.29    8.90
  -4   1  -5  210.08   12.90
   4  -1   5  176.88   11.50
  -3   1  -4  217.08   15.50
  -3   1  -4  197.58   12.10
   3  -1   4  162.08    9.90
  -2   1  -3  217.58    9.90
   2  -1   3  200.68    9.70
  -1   1  -2  260.57   10.60
   1  -1   2  235.18   10.50
   0  -1   1 3176.58  128.59
   1   1   0 1355.46   53.49
  -1  -1   0 1324.57   53.29
  -1  -1   0 1259.47   53.39
   2   1   1 2295.47   96.09
  -2  -1  -1 2386.06   95.99
  -2  -1  -1 2411.76   96.09
   3   1   2 2927.11  117.99
  -3  -1  -2 2852.91  117.79
   4   1   3 1293.07   57.69
   4   1   3 1305.47   56.39
  -4  -1  -3 1321.97   56.79
  -4  -1  -3 1479.75   55.99
   5   1   4  517.95   23.70
  -5  -1  -4  520.15   24.20
  -5  -1  -4  505.25   24.10
   6   1   5  549.05   27.90
   6   1   5  512.55   25.10
  -6  -1  -5  568.64   26.10
   7   1   6   71.99    9.80
   7   1   6   74.39    9.50
  -7  -1  -6   93.29   11.30
   8   1   7  140.49   17.90
   8   1   7  127.19   10.40
  -8  -1  -7  129.19   11.60
   9   1   8   25.60    6.60
   9   1   8   17.10    5.10
  -9  -1  -8   18.80    6.10
  -8   1  -8   85.49   12.30
   8  -1   8   92.29    9.90
  -7   1  -7   10.70    6.70
  -7   1  -7   12.80    6.80
   7  -1   7    9.80    5.50
  -6   1  -6  777.12   35.60
  -6   1  -6  801.22   36.20
   6  -1   6  780.52   35.10
  -5   1  -5  501.75   25.50
  -5   1  -5  541.15   25.10
   5  -1   5  502.45   23.70
  -4   1  -4 1022.20   44.50
   4  -1   4 1054.99   44.00
   4  -1   4 1015.10   43.60
  -3   1  -3  972.70   41.90
   3  -1   3 1022.40   41.70
  -2   1  -2 1270.67   52.69
   2  -1   2 1304.67   52.69
  -1   1  -1 4141.59  165.98
   1  -1   1 4084.89  165.98
   0  -1   0    0.80    0.70
   1   1   1 4152.78  168.98
  -1  -1  -1 4220.88  168.98
   2   1   2 1259.97   52.99
  -2  -1  -2 1321.07   53.19
   3   1   3  962.40   40.90
  -3  -1  -3 1026.50   40.20
  -3  -1  -3  904.41   40.80
   4   1   4 1071.39   47.10
  -4  -1  -4 1095.99   47.40
  -4  -1  -4 1173.08   46.80
   5   1   5  525.55   27.00
   5   1   5  523.25   23.50
  -5  -1  -5  444.86   27.80
  -5  -1  -5  515.15   24.00
   6   1   6  796.32   36.20
   6   1   6  836.92   38.20
  -6  -1  -6  820.32   37.00
   7   1   7   18.50    5.40
   7   1   7   26.30    8.00
  -7  -1  -7   11.10    6.00
   8   1   8   82.09   11.30
   8   1   8   79.99    9.10
  -8  -1  -8   95.19   10.70
  -9   1  -8   24.10    5.60
   9  -1   8   19.20    5.90
  -8   1  -7  139.69   11.60
  -8   1  -7  105.09   13.30
   8  -1   7  127.49   10.50
  -7   1  -6   59.99    8.40
  -7   1  -6   69.09   11.20
  -6   1  -5  516.95   25.70
  -6   1  -5  522.15   25.80
   6  -1   5  535.05   24.30
  -5   1  -4  494.95   23.90
   5  -1   4  503.75   22.30
   5  -1   4  453.45   23.70
   4  -1   3 1504.85   62.59
  -3   1  -2 2945.91  120.89
   3  -1   2 2998.40  120.79
  -2   1  -1 2404.56   97.39
   2  -1   1 2397.66   97.39
  -1   1   0 1333.57   53.39
   1  -1   0 1297.97   53.39
   1  -1   0 1323.07   53.49
   0  -1  -1 3232.68  130.59
   1   1   2  267.87   11.10
  -1  -1  -2  248.48   11.20
   2   1   3  203.08   10.20
  -2  -1  -3  192.58   10.10
  -2  -1  -3  199.38    9.20
   3   1   4  184.38   12.60
   3   1   4  200.38   11.30
  -3  -1  -4  157.18   11.90
  -3  -1  -4  171.38    9.40
   4   1   5  211.28   11.80
  -4  -1  -5  204.98   13.00
  -4  -1  -5  184.48   12.40
   5   1   6   62.89    8.40
   5   1   6   70.79    9.50
  -5  -1  -6   61.59   10.30
   6   1   7  225.88   14.20
   6   1   7  240.98   17.00
  -6  -1  -7  227.08   15.60
   7   1   8   16.10   10.10
   7   1   8   24.90    5.90
  -7  -1  -8   20.50    5.90
   8   1   9  109.29   10.50
   8   1   9  101.69    9.20
  -8  -1  -9  119.29   11.40
  -9   1  -7    2.70   10.20
   9  -1   7   -1.90    4.90
  -8   1  -6    9.00    6.80
  -8   1  -6    4.40    7.50
   8  -1   6   -1.10    5.60
  -7   1  -5  106.29   12.70
  -7   1  -5  128.39   14.10
   7  -1   5  135.09   10.00
  -6   1  -4   18.90    7.80
  -6   1  -4   11.30    8.40
   6  -1   4   19.00    4.80
  -5   1  -3  645.54   30.70
   5  -1   3  669.33   29.50
  -4   1  -2  429.06   21.40
   4  -1   2  514.35   20.90
  -3   1  -1 2356.46   99.19
   3  -1   1 2516.25   99.09
  -2   1   0 1311.37   52.09
  -2   1   0 1317.27   52.49
   2  -1   0 1285.87   52.49
   2  -1   0 1225.48   52.09
   0   1   2  466.25   19.50
   0  -1  -2  467.35   19.50
   1   1   3  217.28   10.80
  -1  -1  -3  255.97   11.40
  -1  -1  -3  262.57   10.90
   2   1   4  545.55   24.50
  -2  -1  -4  527.95   24.90
  -2  -1  -4  586.54   23.70
   3   1   5    8.80    4.20
   3   1   5   -1.30    9.10
  -3  -1  -5    4.40    4.50
  -3  -1  -5   -0.90    4.60
   4   1   6  257.67   13.80
   4   1   6  247.48   18.30
  -4  -1  -6  233.58   14.90
   5   1   7   -1.00    7.70
   5   1   7   -1.40    4.70
  -5  -1  -7   -0.40    5.40
   6   1   8   44.70    6.80
   6   1   8   56.79    8.60
  -6  -1  -8   63.79   10.50
   7   1   9   14.50    6.60
   7   1   9    9.90    5.00
  -7  -1  -9    9.60    6.00
 -10   1  -7   64.89    8.60
  10  -1   7   65.29    8.30
  -9   1  -6   22.50    6.90
  -9   1  -6    6.70    8.60
   9  -1   6    9.90    4.80
  -8   1  -5   -4.50    7.50
  -8   1  -5   -3.20    8.10
   8  -1   5    5.80    5.00
  -7   1  -4   52.79    8.90
  -7   1  -4   41.70    8.00
   7  -1   4   38.00    5.40
  -6   1  -3  162.68   14.90
   5  -1   2  168.28    9.80
  -4   1  -1  251.07   13.00
   4  -1   1  262.47   13.70
   4  -1   1  275.07   12.30
  -3   1   0 1056.69   41.00
  -3   1   0 1048.80   40.50
   3  -1   0  934.81   41.10
   3  -1   0  981.30   40.90
   3  -1   0  928.31   40.30
  -2   1   1 3939.21  158.98
   2  -1  -1 3869.21  158.88
   2  -1  -1 3947.71  158.98
   2  -1  -1 3982.80  159.18
  -1   1   2 1122.69   44.40
   1  -1  -2 1044.20   44.30
   0   1   3  380.06   16.80
   0  -1  -3  403.16   16.70
  -1  -1  -4  790.92   35.00
  -1  -1  -4  858.21   34.40
   2   1   5  283.17   15.00
   2   1   5  276.37   16.50
  -2  -1  -5  307.47   14.00
  -2  -1  -5  285.77   15.60
   3   1   6   99.19    9.00
  -3  -1  -6   91.19   10.00
  -3  -1  -6   62.49   11.10
   4   1   7  162.68   11.40
   4   1   7  150.08   14.90
   4   1   7  173.98   15.00
  -4  -1  -7  172.78   12.90
   5   1   8   36.20    6.70
   5   1   8   31.80    8.20
  -5  -1  -8   23.40    6.70
   6   1   9  125.39   12.60
   6   1   9  107.09   10.10
  -6  -1  -9  143.19   12.00
   7   1  10   10.50    5.90
   7   1  10    1.00    5.20
  -7  -1 -10    3.70    6.00
  10  -1   6   49.40    7.70
  -9   1  -5   11.10    7.50
  -9   1  -5    3.30    9.50
  -8   1  -4  228.28   16.10
  -8   1  -4  200.28   18.50
   8  -1   4  239.98   13.60
  -7   1  -3  201.58   15.90
  -7   1  -3  231.88   16.20
  -6   1  -2   29.40    9.20
   6  -1   2   49.70    8.20
  -5   1  -1  488.05   20.70
   5  -1   1  481.65   21.60
  -4   1   0   46.10    3.80
  -4   1   0   39.10    5.00
   4  -1   0   34.90    3.70
   4  -1   0   33.70    5.40
  -3   1   1 3359.96  139.19
  -3   1   1 3344.07  138.79
   3  -1  -1 3463.55  139.19
   3  -1  -1 3561.24  139.19
   3  -1  -1 3421.16  138.69
  -2   1   2   30.80    2.90
   2  -1  -2   26.10    2.70
   2  -1  -2   28.30    2.40
   2  -1  -2   27.50    2.40
  -1   1   3  652.83   29.40
   1  -1  -3  761.42   29.40
   0   1   4   69.99    5.90
   0   1   4   90.39    4.60
   0  -1  -4   89.39    5.10
   1   1   5 1372.46   55.79
   1   1   5 1323.47   56.39
   2   1   6  118.79   15.80
   2   1   6  145.29    9.80
  -2  -1  -6  125.49    9.80
  -2  -1  -6  121.89   10.90
   3   1   7  223.58   16.10
   3   1   7  189.98   12.60
   3   1   7  208.78   14.70
  -3  -1  -7  214.38   13.50
   4   1   8  765.12   35.10
   4   1   8  737.43   33.70
  -4  -1  -8  716.53   34.00
   5   1   9   12.60    7.30
   5   1   9   13.50    5.40
  -5  -1  -9    7.90    6.00
   6   1  10   74.59    9.60
   6   1  10   75.49    9.20
  -6  -1 -10   83.49   11.40
 -11   1  -6   13.80    5.50
  11  -1   6   10.90    4.40
 -10   1  -5   45.60    8.40
  10  -1   5   36.00    5.60
  -9   1  -4   21.40    8.60
   9  -1   4    0.80    7.20
  -8   1  -3  327.07   20.20
  -8   1  -3  335.97   22.60
  -7   1  -2   50.39   10.20
  -7   1  -2   52.09    7.80
   6  -1   1  245.08   13.80
  -5   1   0  660.93   28.70
   5  -1   0  697.43   29.40
   5  -1   0  683.43   32.00
  -4   1   1  847.32   37.90
  -4   1   1  894.41   37.40
   4  -1  -1  904.51   37.20
   4  -1  -1  918.71   38.20
   4  -1  -1  939.51   37.70
  -3   1   2  548.95   23.80
   3  -1  -2  543.75   23.50
   3  -1  -2  579.74   23.80
   3  -1  -2  572.74   23.90
  -2   1   3  544.55   22.90
  -2   1   3  548.45   23.40
   2  -1  -3  570.74   23.20
   2  -1  -3  539.85   22.90
  -1   1   4 1900.81   81.99
   1  -1  -4 2110.79   81.89
   0   1   5  192.48   11.70
   0   1   5  210.28    9.80
   1   1   6  378.06   18.30
   1   1   6  344.97   18.10
  -1  -1  -6  387.96   17.40
  -1  -1  -6  372.96   19.00
   2   1   7  252.57   14.30
   2   1   7  243.68   14.90
   2   1   7  257.17   17.80
  -2  -1  -7  239.88   14.90
   3   1   8  389.26   29.30
   3   1   8  401.36   20.20
  -3  -1  -8  390.26   20.60
   4   1   9  218.48   16.10
  -4  -1  -9  207.58   16.90
   5   1  10   17.50    6.50
   5   1  10   18.70    5.70
  -5  -1 -10   18.90    6.40
   6   1  11   57.99    9.20
   6   1  11   78.09    9.30
  -6  -1 -11   82.09   10.50
  11  -1   5    8.60    4.60
 -10   1  -4   62.79   10.00
  10  -1   4   40.10    5.90
  -9   1  -3  108.19   15.50
   9  -1   3  133.29   10.50
  -8   1  -2  187.58   13.60
  -8   1  -2  150.98   16.30
  -7   1  -1  147.89   12.40
  -6   1   0  186.58   12.30
   6  -1   0  188.98   10.90
  -5   1   1  383.96   19.10
   5  -1  -1  466.85   19.40
   5  -1  -1  440.26   21.00
  -4   1   2  119.29    7.00
   4  -1  -2  113.59    7.80
   4  -1  -2  125.39    6.60
   4  -1  -2  118.09    6.30
  -3   1   3  941.41   41.60
  -3   1   3  973.30   41.30
   3  -1  -3 1048.40   41.30
   3  -1  -3 1001.90   41.40
   3  -1  -3 1029.20   41.60
  -2   1   4   96.89    5.20
  -2   1   4   92.19    6.50
   2  -1  -4   92.59    5.60
  -1   1   5  381.76   17.30
  -1   1   5  383.96   19.40
   1  -1  -5  432.66   17.80
   0   1   6  503.15   22.10
   0   1   6  506.85   23.00
   0  -1  -6  482.25   24.00
   0  -1  -6  481.95   21.80
   1   1   7  196.48   16.40
   1   1   7  212.78   13.30
   1   1   7  216.08   13.40
  -1  -1  -7  232.78   14.20
  -1  -1  -7  226.78   13.90
   2   1   8  302.97   18.50
   2   1   8  291.87   15.60
  -2  -1  -8  234.98   15.80
   3   1   9    4.30    5.90
   3   1   9    1.60    7.30
  -3  -1  -9    9.20    6.50
   4   1  10   68.49    9.90
   4   1  10   86.19   11.40
  -4  -1 -10   73.09    8.80
   5   1  11    9.60    6.50
   5   1  11   15.40    5.80
  11  -1   4    7.10    4.80
 -10   1  -3    9.90   11.40
  10  -1   3   23.20    5.30
  -9   1  -2   46.70    7.30
  -9   1  -2   55.19   10.70
  -8   1  -1  158.88   12.10
  -8   1  -1  156.98   17.70
  -7   1   0  175.08   12.80
  -7   1   0  166.78   12.30
  -6   1   1   93.49   11.50
   6  -1  -1  128.29    8.30
  -5   1   2  625.64   27.70
   5  -1  -2  646.44   27.40
   5  -1  -2  639.14   26.90
   5  -1  -2  610.24   28.80
  -4   1   3 1779.62   72.29
   4  -1  -3 1713.73   71.79
   4  -1  -3 1741.03   72.39
   4  -1  -3 1774.02   72.19
  -3   1   4 1511.85   66.89
  -3   1   4 1648.73   66.49
   3  -1  -4 1618.64   66.69
   3  -1  -4 1703.13   66.89
  -2   1   5  122.89    7.00
   2  -1  -5  132.19    7.50
  -1   1   6  748.93   33.80
  -1   1   6  748.33   32.60
   1  -1  -6  810.02   33.00
   0   1   7   82.29    9.80
   0   1   7  120.59   10.20
   0  -1  -7  103.59   10.70
   0  -1  -7  112.09   11.90
   1   1   8  271.97   15.60
   1   1   8  259.37   14.70
   1   1   8  292.67   17.60
  -1  -1  -8  259.27   16.40
   2   1   9  149.49   13.70
   2   1   9  134.79   12.20
  -2  -1  -9  161.38   13.60
   3   1  10    2.90    6.00
   3   1  10   11.00    6.60
  -3  -1 -10    5.40    6.90
  -3  -1 -10   10.70    6.70
   4   1  11   46.10    7.00
  -4  -1 -11   53.39    7.90
 -12   1  -4  106.99   12.10
  12  -1   4   86.69    8.00
  11  -1   3   24.00    5.00
  10  -1   2  229.58   13.80
  -9   1  -1   86.39   10.10
  -8   1   0  234.58   14.00
  -8   1   0  225.68   13.70
  -7   1   1  879.81   39.70
   6  -1  -2  618.04   26.00
   6  -1  -2  528.25   25.70
   5  -1  -3  649.54   28.10
   5  -1  -3  709.33   30.10
   5  -1  -3  638.64   28.30
   5  -1  -3  613.04   30.00
  -4   1   4 1100.59   44.90
   4  -1  -4 1069.09   44.90
   4  -1  -4 1077.29   44.60
   4  -1  -4 1018.90   45.10
  -3   1   5  185.98   12.60
  -3   1   5  195.98   10.20
   3  -1  -5  198.58   10.60
   3  -1  -5  190.78   10.10
  -2   1   6   69.29    6.90
  -2   1   6   63.29    9.60
   2  -1  -6   64.09    6.60
  -1   1   7  381.86   18.60
  -1   1   7  339.07   18.20
   1  -1  -7  344.27   18.20
   1  -1  -7  348.07   20.80
   0   1   8   37.20    7.50
   0   1   8   40.00    6.50
   0   1   8   44.70    7.70
   0  -1  -8   71.79   11.70
   1   1   9   20.00    6.30
   1   1   9   31.70    7.10
  -1  -1  -9   38.10    7.70
   2   1  10  182.38   14.00
   2   1  10  199.68   14.40
  -2  -1 -10  167.78   13.00
  -2  -1 -10  168.28   15.50
   3   1  11    5.10    6.20
   3   1  11   -0.10    6.30
  -3  -1 -11   11.40    6.60
  -3  -1 -11   10.10    7.20
   4   1  12   20.40    6.20
  -4  -1 -12   20.10    7.20
  12  -1   3  129.99   12.00
  11  -1   2   27.10    5.30
  -9   1   0  158.28   11.50
  -8   1   1  356.76   18.30
  -8   1   1  367.16   18.40
  -7   1   2  566.04   26.60
  -7   1   2  619.44   28.20
   7  -1  -2  525.75   26.00
   6  -1  -3  114.09    8.80
   6  -1  -3   95.09    8.70
   6  -1  -3  109.09    8.70
   5  -1  -4  219.08   11.40
   5  -1  -4  191.08   15.60
   5  -1  -4  206.18   11.80
   5  -1  -4  222.88   11.40
  -4   1   5  417.76   18.80
  -4   1   5  379.16   19.50
   4  -1  -5  405.56   18.60
   4  -1  -5  390.86   18.20
   4  -1  -5  370.06   21.30
  -3   1   6  456.45   20.80
  -3   1   6  409.46   21.50
   3  -1  -6  460.25   20.90
   3  -1  -6  470.65   21.20
  -2   1   7  243.18   14.90
  -2   1   7  294.57   20.60
  -2   1   7  271.97   14.20
   2  -1  -7  224.18   14.50
  -1   1   8   43.00    6.70
  -1   1   8   33.80    7.40
   0   1   9  273.87   18.80
   0   1   9  268.47   16.50
   0  -1  -9  252.97   18.00
   0  -1  -9  279.37   15.60
   1   1  10  351.16   19.60
   1   1  10  343.17   19.40
  -1  -1 -10  331.67   20.50
  -1  -1 -10  321.77   17.60
   2   1  11   77.19   11.70
   2   1  11  110.09   13.00
  -2  -1 -11   89.09    9.50
  -2  -1 -11   90.09   13.90
   3   1  12   11.60    5.50
   3   1  12   15.90    6.90
  -3  -1 -12   11.60    7.90
  12  -1   2   79.29    8.20
  11  -1   1   64.09    8.30
 -10   1   0   98.99    9.90
  -9   1   1  213.58   15.80
  -9   1   1  219.98   15.50
  -8   1   2  226.38   13.40
  -8   1   2  232.08   13.60
   8  -1  -2  228.98   15.90
  -7   1   3  109.59   10.70
  -7   1   3   84.39   11.20
   7  -1  -3  113.29    9.20
   6  -1  -4  185.58   10.60
   6  -1  -4  180.68   12.30
   6  -1  -4  175.58   12.20
  -5   1   5  349.27   19.60
   5  -1  -5  409.66   18.10
   5  -1  -5  377.36   18.70
   5  -1  -5  387.26   18.80
  -4   1   6  125.39   10.80
   4  -1  -6  117.29   10.60
   4  -1  -6  128.89    9.80
  -3   1   7   72.69    8.50
  -3   1   7   83.49   10.20
   3  -1  -7  111.49   11.40
   3  -1  -7   83.39   11.90
  -2   1   8  278.87   16.90
  -2   1   8  259.07   15.90
   2  -1  -8  271.37   15.50
  -1   1   9  148.69   13.10
  -1   1   9  143.29   20.70
   1  -1  -9  167.18   15.70
   1  -1  -9  154.38   16.30
   0   1  10   43.00    7.40
   0  -1 -10   26.00    5.70
   0  -1 -10   30.70    8.60
   0  -1 -10   26.30    8.30
   1   1  11   76.99   12.40
   1   1  11   99.59   11.60
  -1  -1 -11  109.09    9.60
  -1  -1 -11  105.49   15.30
   2   1  12   55.99    8.20
  -2  -1 -12   44.10    6.00
  -2  -1 -12   32.70   11.50
  12  -1   1    0.50    4.50
 -10   1   1  114.89    9.90
  -9   1   2   28.00    7.20
  -9   1   2   38.00    6.90
   9  -1  -2   41.30    9.00
  -8   1   3   26.80    5.70
  -8   1   3   32.60    5.60
   8  -1  -3   28.90    5.20
  -7   1   4   24.50    5.70
  -7   1   4   21.30    6.40
   7  -1  -4   18.30    5.50
  -6   1   5   90.19   10.70
   6  -1  -5   72.09    7.50
  -5   1   6  339.97   18.40
   5  -1  -6  309.47   17.70
  -4   1   7   22.30    6.40
  -4   1   7   21.30    6.20
   4  -1  -7   26.40    6.20
   4  -1  -7   23.50    4.50
  -3   1   8  238.28   15.20
  -3   1   8  241.98   15.00
   3  -1  -8  262.67   14.50
  -2   1   9  222.18   15.70
   2  -1  -9  264.27   14.40
  -1   1  10  272.97   17.30
  -1   1  10  299.57   17.00
   1  -1 -10  266.07   15.00
   1  -1 -10  234.38   16.00
   1  -1 -10  294.87   21.10
   0   1  11  125.09   12.20
   0   1  11  120.99   13.40
   0  -1 -11  156.08   16.50
   0  -1 -11  136.89   10.10
   1   1  12   57.09    8.60
   1   1  12   47.90    8.70
  -1  -1 -12   48.50   11.50
  -1  -1 -12   58.19    8.00
  13  -1   1   22.20    5.30
  12  -1   0    8.00    4.80
 -10   1   2   46.80    6.40
 -10   1   2   54.59    7.60
  -9   1   3  325.67   17.10
  -9   1   3  335.27   16.90
   9  -1  -3  316.87   18.20
  -8   1   4   39.10    5.60
  -8   1   4   30.40    6.10
   8  -1  -4   31.50    5.30
  -7   1   5  193.58   13.00
  -7   1   5  178.98   14.20
   7  -1  -5  181.38   10.90
  -6   1   6  318.07   21.70
  -6   1   6  333.37   17.80
   6  -1  -6  312.97   19.10
   6  -1  -6  358.06   16.40
  -5   1   7  282.47   16.10
   5  -1  -7  258.47   13.80
   5  -1  -7  252.57   15.30
  -4   1   8  244.38   15.50
  -4   1   8  245.48   15.10
   4  -1  -8  223.28   12.90
   4  -1  -8  227.88   13.40
  -3   1   9  632.14   29.30
  -3   1   9  605.44   29.30
   3  -1  -9  621.94   27.70
   3  -1  -9  610.04   27.70
  -2   1  10   17.00    6.20
  -2   1  10    8.00    7.60
   2  -1 -10   12.60    4.80
   2  -1 -10   -3.60    5.70
  -1   1  11  193.58   13.20
  -1   1  11  161.18   15.20
   1  -1 -11  164.08   11.10
   1  -1 -11  176.38   14.60
   1  -1 -11  177.08   21.60
   0   1  12  100.79   10.20
   0   1  12  130.69   14.70
   0  -1 -12  125.69    8.90
   1   1  13   16.50    5.00
  -1  -1 -13   27.00    5.50
  13  -1   0   -6.90    5.10
  12  -1  -1   74.89    9.20
 -11   1   2   46.50    6.30
 -10   1   3  201.48   12.60
 -10   1   3  207.18   12.20
  10  -1  -3  188.68   17.20
  -9   1   4  458.75   22.60
  -9   1   4  472.75   22.60
   9  -1  -4  498.35   23.20
  -8   1   5    5.90    5.00
  -8   1   5    3.30    6.10
   8  -1  -5   12.00    4.50
  -7   1   6  462.05   28.20
  -7   1   6  585.64   26.40
   7  -1  -6  564.34   27.10
   7  -1  -6  594.54   25.20
  -6   1   7   90.19   10.10
  -6   1   7   71.79    9.90
   6  -1  -7   81.19    7.80
   6  -1  -7   72.79   10.50
  -5   1   8  438.06   22.40
   5  -1  -8  444.56   20.80
   5  -1  -8  440.46   21.20
  -4   1   9  156.38   12.80
  -4   1   9  153.88   14.30
   4  -1  -9  151.28   10.60
   4  -1  -9  142.29   10.10
  -3   1  10   10.30    8.30
  -3   1  10   11.70    6.20
   3  -1 -10   25.90    5.60
   3  -1 -10   29.60    5.10
  -2   1  11  135.69   11.90
  -2   1  11  130.49   15.10
   2  -1 -11  139.59   10.10
   2  -1 -11  129.79   12.10
  -1   1  12   42.00    6.20
  -1   1  12   26.70    9.70
   1  -1 -12   31.60    4.50
   0   1  13   52.39    8.00
   0  -1 -13   56.69    7.10
  13  -1  -1    6.30    5.30
 -11   1   3   27.20    4.60
 -11   1   3   21.10    5.80
 -10   1   4  109.39   10.20
 -10   1   4  111.29    9.50
  10  -1  -4  119.29   13.00
  -9   1   5  115.89   10.10
  -9   1   5  112.99   11.70
   9  -1  -5  143.89   10.80
  -8   1   6   15.60    7.20
  -8   1   6   21.00    5.20
   8  -1  -6   16.20    4.70
  -7   1   7  421.36   22.20
   7  -1  -7  444.66   24.40
   7  -1  -7  484.75   21.40
  -6   1   8   87.09   10.10
  -6   1   8   72.59    9.80
   6  -1  -8   98.19    9.80
   6  -1  -8  101.19    8.40
  -5   1   9  306.17   17.80
   5  -1  -9  323.57   16.50
   5  -1  -9  341.27   16.60
  -4   1  10  308.27   20.30
  -4   1  10  328.47   17.70
   4  -1 -10  295.67   16.30
   4  -1 -10  318.67   16.00
  -3   1  11  143.59   12.50
   3  -1 -11  158.38   11.70
   3  -1 -11  163.38   10.30
  -2   1  12   14.40   11.50
  -2   1  12   11.50    5.20
   2  -1 -12   14.50    3.60
  -1   1  13   21.10    5.20
   1  -1 -13   30.80    4.20
  13  -1  -2   18.70    6.30
 -11   1   4    2.90    5.20
 -11   1   4    0.90    4.10
  11  -1  -4    6.20    8.30
 -10   1   5   12.00    6.00
 -10   1   5   26.40    5.00
  10  -1  -5    3.70    6.10
  -9   1   6   13.20    6.90
  -9   1   6   14.10    4.70
   9  -1  -6    8.70    5.20
  -8   1   7    3.20    4.70
   8  -1  -7   14.40    7.40
   8  -1  -7   12.30    4.70
  -7   1   8   13.80    5.50
   7  -1  -8   27.00    5.00
   7  -1  -8   11.40    5.50
  -6   1   9   17.60    8.00
  -6   1   9   19.90    5.40
   6  -1  -9   14.30    4.80
   6  -1  -9   13.80    4.60
  -5   1  10   56.59    6.90
   5  -1 -10   42.10    5.30
   5  -1 -10   50.09    7.50
  -4   1  11   69.59    9.60
   4  -1 -11   70.39    8.50
   4  -1 -11   64.29    7.30
  -3   1  12   18.90    5.20
   3  -1 -12   35.10    4.60
   3  -1 -12   39.00    8.00
  -2   1  13   -4.50    4.10
   2  -1 -13    1.20    3.40
 -11   1   5   14.80    4.40
  11  -1  -5   25.80    7.40
 -10   1   6   46.70    7.60
 -10   1   6   39.50    5.50
  10  -1  -6   46.80    6.50
  -9   1   7   30.30    5.30
   9  -1  -7   28.20    5.50
  -8   1   8   48.40    6.30
   8  -1  -8   45.40    6.80
   8  -1  -8   59.09    7.20
  -7   1   9   38.70    6.20
   7  -1  -9   46.50    7.30
   7  -1  -9   37.10    6.00
  -6   1  10   18.80    5.10
  -6   1  10   25.40    8.70
   6  -1 -10   22.20    4.40
   6  -1 -10   17.90    4.80
  -5   1  11  235.48   13.90
   5  -1 -11  232.08   12.60
   5  -1 -11  222.38   13.00
  -4   1  12    3.80    4.50
   4  -1 -12   14.50    6.70
   4  -1 -12    8.60    3.40
  -3   1  13   59.29    6.80
   3  -1 -13   68.69    6.10
 -12   1   5   45.30    5.50
 -11   1   6  137.69    9.50
  11  -1  -6  147.69   12.60
 -10   1   7   27.10    4.80
  10  -1  -7   23.80    5.70
  -9   1   8   42.50    5.60
   9  -1  -8   47.90    7.70
  -8   1   9   -6.60    4.40
   8  -1  -9    3.10    4.30
   8  -1  -9    2.00    5.20
  -7   1  10  237.88   13.60
   7  -1 -10  216.18   12.70
   7  -1 -10  216.88   12.90
  -6   1  11   27.50    5.40
  -6   1  11   58.09    8.70
   6  -1 -11   35.30    5.40
   6  -1 -11   38.00    4.90
  -5   1  12   10.90    6.40
  -5   1  12   18.20    4.40
   5  -1 -12   10.80    6.00
   5  -1 -12   15.30    3.50
  -4   1  13   24.40    4.40
  -4   1  13   20.30    5.60
 -12   1   6  144.89    8.40
  12  -1  -6  147.49   14.60
 -11   1   7   56.39    6.10
  11  -1  -7   45.70    6.80
 -10   1   8   31.00    4.70
  10  -1  -8   41.70    5.70
  -9   1   9  135.79    9.40
   9  -1  -9  142.59   12.40
   9  -1  -9  148.79   10.30
  -8   1  10   17.80    4.40
   8  -1 -10   14.10    4.60
   8  -1 -10   30.90    5.00
  -7   1  11  102.49    8.60
   7  -1 -11   99.89    8.30
   7  -1 -11  112.49    9.00
  -6   1  12   26.50    4.50
   6  -1 -12   21.80    6.90
   6  -1 -12   18.30    3.90
  -5   1  13    9.60    3.80
   5  -1 -13   15.00    3.30
 -12   1   7   32.90    4.60
  12  -1  -7   23.40    7.40
 -11   1   8   40.30    5.30
 -10   1   9   16.00    3.80
  10  -1  -9   21.10    5.00
  -9   1  10   63.79    6.20
   9  -1 -10   71.89    8.10
   9  -1 -10   74.19    9.10
  -8   1  11    9.70    3.60
   8  -1 -11    4.90    4.40
   8  -1 -11   15.20    4.60
  -7   1  12  111.19    7.40
   7  -1 -12  113.69    7.80
   7  -1 -12   99.49    9.40
 -12   1   8   13.80    2.80
 -11   1   9   54.89    5.10
  11  -1  -9   40.90    5.80
 -10   1  10    1.10    2.90
  10  -1 -10    2.00    4.60
  -9   1  11   43.30    5.00
   9  -1 -11   40.40    5.10
   9  -1 -11   38.90    5.90
  -8   1  12    2.30    2.90
   8  -1 -12    4.30    5.00
   8  -1 -12    5.40    3.90
   7   2 -12   15.90    3.90
   7   2 -12   12.30    3.20
   8   2 -11  139.99   12.30
   8   2 -11  109.49    9.60
   8   2 -11  122.99    8.00
   9   2 -10    0.90    5.30
   9   2 -10    5.10    3.70
  10   2  -9   23.00    5.10
  10   2  -9   30.30    4.50
  11   2  -8   11.30    6.30
  11   2  -8    2.10    5.10
 -11  -2   8    0.10    6.70
  12   2  -7  110.79    7.10
  12   2  -7  104.39    9.10
   6   2 -12   20.80    3.80
   6   2 -12   23.90    3.70
   7   2 -11   22.20    7.90
   7   2 -11    7.80    4.40
   7   2 -11   12.00    3.50
   8   2 -10    1.40    3.70
   8   2 -10    1.00    5.50
   8   2 -10   11.60    5.80
   9   2  -9    0.80    4.40
   9   2  -9    3.40    4.80
  10   2  -8   15.80    4.90
  10   2  -8    5.30    4.30
 -10  -2   8  -10.20    8.50
  11   2  -7   26.10    5.50
  11   2  -7   38.00    5.80
 -11  -2   7   42.40    7.60
  12   2  -6   14.30    3.60
  12   2  -6   16.40    5.20
   4   2 -13   29.40    4.80
   5   2 -12    7.90    3.40
   5   2 -12   10.40    3.60
   6   2 -11   90.79    8.10
   6   2 -11   87.69    7.30
   7   2 -10    5.20    4.00
   7   2 -10   -4.70    4.80
   7   2 -10    4.40    6.50
   8   2  -9   43.50    7.30
   8   2  -9   47.10    6.40
   9   2  -8   55.39    8.70
   9   2  -8   54.19    8.70
  10   2  -7   24.40    5.20
  10   2  -7   14.50    4.90
 -10  -2   7   20.70    8.60
  11   2  -6   79.89   10.30
  11   2  -6   87.39    9.10
 -11  -2   6   60.69    8.10
  12   2  -5    9.60    3.80
  12   2  -5    5.70    6.40
  13   2  -4   53.09    5.80
   3   2 -13   40.50    5.50
   3   2 -13   37.90    5.10
   4   2 -12   17.40    4.20
   5   2 -11   73.49    7.70
   6   2 -10    6.40    4.60
   6   2 -10    6.80    7.40
   7   2  -9    1.80    5.80
   7   2  -9    0.40    5.80
   7   2  -9    8.70    4.80
   8   2  -8   35.50    8.20
   8   2  -8   22.20    6.00
   8   2  -8   23.40    5.40
   9   2  -7   -1.20    5.10
   9   2  -7    0.00    5.00
  -9  -2   7   -7.40    9.80
  10   2  -6    7.10    9.00
  10   2  -6    1.70    4.80
 -10  -2   6    8.50    8.90
  11   2  -5  107.49   12.40
  11   2  -5  111.49   10.50
 -11  -2   5  103.99   11.70
  12   2  -4    0.30    5.40
  12   2  -4   -2.60    3.90
  13   2  -3   32.60    4.40
   2   2 -13   -1.80    3.10
   3   2 -12    2.90    4.50
   4   2 -11   11.60    6.70
   5   2 -10    1.80    5.00
   5   2 -10  -16.80    8.80
   6   2  -9   42.40    6.00
   6   2  -9   37.10    6.90
   7   2  -8   31.80    5.30
   7   2  -8   38.80    9.00
   7   2  -8   39.10    6.80
   8   2  -7   96.89   11.20
   8   2  -7   81.99   10.30
   8   2  -7   84.49    9.70
   9   2  -6   15.80    5.50
   9   2  -6    5.50    5.70
  -9  -2   6   17.10   10.20
  10   2  -5  121.49   12.00
  10   2  -5  123.29   10.20
 -10  -2   5  128.69   15.50
  11   2  -4   38.90    6.20
  12   2  -3   17.80    6.20
  12   2  -3   21.40    4.70
  13   2  -2    7.40    3.90
   1   2 -13   43.10    5.80
   2   2 -12   10.10    5.40
   3   2 -11   27.40    6.10
   4   2 -10   98.39    9.80
   5   2  -9  165.18   12.00
   5   2  -9  154.88   14.70
   6   2  -8  110.49   11.30
   6   2  -8   90.49   10.00
   7   2  -7  119.99   10.80
   7   2  -7  101.39   12.80
   7   2  -7   90.09    9.50
   8   2  -6   96.49   10.30
   8   2  -6   87.59   10.20
   9   2  -5  299.07   16.60
   9   2  -5  293.37   16.70
  -9  -2   5  305.07   22.90
  10   2  -4  104.89   12.90
  10   2  -4   99.29   10.10
 -10  -2   4  103.69   11.20
  11   2  -3    8.60    5.60
  11   2  -3    1.00    4.70
  12   2  -2   50.49    8.30
  12   2  -2   48.10    6.90
  13   2  -1   14.10    4.10
   0   2 -13   15.70    3.80
   1   2 -12    6.60    6.70
   2   2 -11   18.50    6.60
   2   2 -11   17.20    8.40
   3   2 -10   14.10    5.70
   4   2  -9  168.28   11.80
   4   2  -9  156.18   16.10
   5   2  -8   28.00    7.00
   5   2  -8   16.00    6.00
   6   2  -7  284.07   15.60
   6   2  -7  272.27   16.10
   7   2  -6  112.09   10.30
   7   2  -6  120.39   10.20
   8   2  -5  253.07   14.70
   8   2  -5  237.48   14.80
   9   2  -4   29.90    5.60
   9   2  -4   29.20    6.40
  -9  -2   4   44.10   11.20
  10   2  -3   80.69    9.80
  10   2  -3   56.19    7.30
 -10  -2   3   65.79    9.80
  11   2  -2   67.69   10.50
  11   2  -2   73.49    9.10
 -11  -2   2   71.89   13.10
  12   2  -1   15.80    8.90
  12   2  -1   19.50    4.70
  13   2   0   40.30    5.10
   0   2 -12   11.50    6.00
   1   2 -11   80.39   11.60
   1   2 -11   64.79    8.10
   2   2 -10   12.30    9.00
   2   2 -10   22.10    6.30
   3   2  -9   79.69   12.20
   3   2  -9   75.59   10.30
   4   2  -8   35.80    7.90
   4   2  -8   26.50    5.70
   5   2  -7   27.50    6.20
   5   2  -7   27.90    6.50
   6   2  -6  210.48   13.80
   6   2  -6  236.48   13.90
   7   2  -5   44.30    6.20
   7   2  -5   32.60    5.70
   7   2  -5   32.60    8.90
   8   2  -4   27.50    5.40
   9   2  -3  187.78   15.10
   9   2  -3  194.68   12.70
   9   2  -3  203.18   18.80
  -9  -2   3  186.88   20.50
  10   2  -2  130.19   10.50
  10   2  -2  113.89   16.00
  10   2  -2  102.89   13.10
  11   2  -1   34.60    6.10
  11   2  -1   43.70    7.50
 -11  -2   1   41.10    9.40
  12   2   0   36.00    5.50
  -1   2 -12   98.79   11.40
   0   2 -11   46.30    7.10
   1   2 -10   84.69   11.80
   1   2 -10   55.49   11.70
   2   2  -9   20.60    6.40
   2   2  -9    4.50    6.30
   3   2  -8   91.49   12.40
   3   2  -8   89.69   11.70
   3   2  -8   91.09   11.00
   4   2  -7  106.19   11.70
   4   2  -7  116.59   10.70
   5   2  -6   31.60    5.90
   5   2  -6   44.70    6.50
   6   2  -5   78.79    9.50
   6   2  -5   65.39    9.30
   6   2  -5   73.09    9.00
   7   2  -4   18.00    5.80
   7   2  -4  -16.10   12.40
   8   2  -3  240.28   13.40
   8   2  -3  225.38   15.20
   8   2  -3  195.08   21.20
   9   2  -2   18.60    8.40
   9   2  -2   33.00    5.90
   9   2  -2   30.50    9.10
  -9  -2   2    6.50   10.40
  10   2  -1   98.99   10.20
  10   2  -1   79.19   11.70
 -10  -2   1   80.49   10.80
  11   2   0    6.40    8.00
  11   2   0   -7.10    4.80
 -11  -2   0   -0.50    7.80
  12   2   1  117.79    8.70
  -2   2 -12   11.00    5.80
  -1   2 -11   54.79    7.40
  -1   2 -11   70.99   12.40
   0   2 -10   -0.70    8.60
   0   2 -10   -0.60    6.10
   0   2 -10    5.90    8.50
   1   2  -9   23.30    6.90
   1   2  -9   33.50    7.60
   1   2  -9   28.80   10.40
   2   2  -8   11.20    6.20
   2   2  -8   16.10    6.80
   2   2  -8   19.10   11.30
   3   2  -7   89.49   13.20
   3   2  -7   91.69   16.30
   3   2  -7   86.59   11.10
   3   2  -7   88.59   11.40
   4   2  -6   46.40    6.80
   4   2  -6   49.00    6.80
   5   2  -5   18.80    6.90
   5   2  -5   31.10    5.30
   6   2  -4   64.79    7.70
   6   2  -4   57.09    8.10
   7   2  -3  196.98   14.40
   7   2  -3  203.08   22.00
   7   2  -3  225.98   12.70
   8   2  -2  349.67   23.20
   8   2  -2  376.36   20.30
   8   2  -2  361.66   18.20
   9   2  -1  177.38   17.50
   9   2  -1  175.88   15.50
   9   2  -1  171.38   12.50
   9   2  -1  168.48   12.40
  10   2   0  123.49   13.20
  10   2   0  134.89   11.40
 -10  -2   0  125.79   13.30
  11   2   1   13.90    5.80
 -11  -2  -1   19.00    7.40
  12   2   2   81.89    7.80
  -3   2 -12   18.70    5.70
  -2   2 -11   26.80    7.10
  -2   2 -11   40.90    7.00
  -1   2 -10   25.30    8.10
  -1   2 -10   17.40    6.10
   0   2  -9  125.89   15.50
   0   2  -9  120.29   12.40
   0   2  -9  105.79   15.40
   1   2  -8   93.49   12.60
   1   2  -8  111.99   11.70
   1   2  -8   89.29    9.70
   2   2  -7  131.39   12.40
   2   2  -7  124.99   20.20
   2   2  -7  132.09   13.60
   3   2  -6   54.59    7.50
   3   2  -6   50.49    7.40
   3   2  -6   48.00    6.30
   4   2  -5  100.79    9.60
  -4  -2   5  101.39   13.40
   5   2  -4  113.49    9.30
  -5  -2   4   92.49   12.60
   6   2  -3   84.79   12.10
   6   2  -3   94.29    8.90
   7   2  -2   47.90   10.90
   7   2  -2   68.89    7.70
   7   2  -2   54.89    7.80
   8   2  -1   17.90    8.40
   8   2  -1   30.50    8.30
   8   2  -1   36.00    5.80
   9   2   0  210.68   13.80
   9   2   0  205.08   14.10
   9   2   0  195.88   16.40
  10   2   1   39.10    6.60
  10   2   1   44.30    8.30
 -10  -2  -1   37.90    7.50
  11   2   2   40.30    6.00
 -11  -2  -2   41.40    8.20
  12   2   3   13.80    4.50
  -3   2 -11   39.60    6.50
  -3   2 -11   42.30    7.20
  -2   2 -10   76.69   13.30
  -2   2 -10   95.99   11.30
  -1   2  -9   85.69   14.10
  -1   2  -9   77.89   11.70
  -1   2  -9   84.59   12.00
   0   2  -8   17.10    9.60
   0   2  -8   29.60    9.20
   0   2  -8   23.40    6.40
   0   2  -8   25.40    9.70
   1   2  -7  218.08   14.20
   1   2  -7  191.08   22.20
   1   2  -7  195.38   17.10
  -2  -2   6   63.89    9.20
   3   2  -5   35.50    5.50
   3   2  -5   40.60    6.70
  -3  -2   5   20.60    6.50
   4   2  -4  120.69    9.90
  -4  -2   4  129.89   11.50
   5   2  -3  185.68   11.30
  -5  -2   3  170.58   13.70
   6   2  -2  196.88   11.80
  -6  -2   2  208.78   16.10
   7   2  -1  286.87   20.40
   7   2  -1  271.17   18.70
   7   2  -1  296.87   15.10
   8   2   0   27.30    7.40
   8   2   0   25.30    6.30
   8   2   0   23.40    5.80
   8   2   0   19.20   10.00
   9   2   1  185.98   13.60
   9   2   1  187.08   19.40
   9   2   1  198.18   14.60
  -9  -2  -1  202.48   14.70
  10   2   2  181.38   16.40
  10   2   2  223.78   13.70
 -10  -2  -2  207.08   14.60
  11   2   3  133.09    9.90
 -11  -2  -3  126.79   13.70
  -4   2 -11    3.00    6.00
  -4   2 -11    0.80    5.60
  -3   2 -10    2.50    5.90
  -3   2 -10    4.80    6.80
  -2   2  -9  184.48   13.30
  -2   2  -9  166.78   15.70
  -2   2  -9  178.88   14.30
  -1   2  -8   19.10    6.20
  -1   2  -8   25.60    8.00
  -1   2  -8   32.60    9.10
   0   2  -7   86.09   13.20
   0   2  -7   99.89   12.50
   0   2  -7  112.59   11.20
   0   2  -7  116.79   15.90
   1   2  -6    7.30    5.20
  -1  -2   6    7.20    7.60
   2   2  -5  637.24   29.90
  -2  -2   5  677.73   30.50
  -3  -2   4  790.12   35.20
   4   2  -3  226.58   13.30
  -4  -2   3  246.98   13.80
   5   2  -2  147.69    9.90
  -5  -2   2  133.49   11.80
   6   2  -1  195.48   11.70
  -6  -2   1  217.18   16.60
   7   2   0   26.80    9.20
   7   2   0   28.00    5.50
   7   2   0   21.20    8.00
   8   2   1   69.99    9.60
   8   2   1   69.89   12.20
   8   2   1   46.30    6.60
   8   2   1   55.59    7.40
   9   2   2  154.38   12.90
   9   2   2  177.38   15.90
   9   2   2  152.28   14.60
  -9  -2  -2  163.08   13.50
  10   2   3   16.40    5.80
  10   2   3    9.10    7.00
 -10  -2  -3   22.40    6.50
  11   2   4    6.20    8.40
  11   2   4    9.60    4.90
  -5   2 -11   23.90    5.70
  -5   2 -11   12.70    5.80
  -4   2 -10    0.10    5.70
  -4   2 -10    8.70    6.40
  -3   2  -9  274.67   15.70
  -3   2  -9  250.77   17.70
  -2   2  -8   52.09    8.10
  -2   2  -8   46.60    7.10
  -2   2  -8   54.59    8.90
  -1   2  -7   44.10    8.70
  -1   2  -7   27.50    6.20
  -1   2  -7   31.50   10.10
   0   2  -6  427.86   21.60
   0  -2   6  445.66   24.00
   1   2  -5  157.78   11.70
  -1  -2   5  150.98   11.10
  -1  -2   5  139.19   11.50
   2   2  -4   95.19   11.10
  -2  -2   4  124.59    9.40
  -2  -2   4  131.49    9.00
  -3  -2   3  206.28   11.50
  -3  -2   3  168.88   11.40
   4   2  -2  308.57   16.70
  -4  -2   2  368.36   17.10
   5   2  -1  317.07   15.10
  -5  -2   1  269.27   16.50
  -5  -2   1  318.87   16.40
   6   2   0   37.70    5.20
   7   2   1    8.90    6.20
   7   2   1   14.20    8.20
   7   2   1   23.00    7.00
   7   2   1   12.70    5.00
   8   2   2    1.80    6.20
   8   2   2    5.80    7.10
   8   2   2   10.50    5.80
   8   2   2   16.20    6.80
  -8  -2  -2   11.30    6.10
   9   2   3  177.88   13.30
   9   2   3  198.18   15.30
  10   2   4   13.20    6.40
  10   2   4   10.90    5.40
 -10  -2  -4   10.60    6.20
  11   2   5   31.50    5.30
 -11  -2  -5   43.50    6.90
  -5   2 -10   16.50    6.10
  -5   2 -10    8.70    6.10
  -4   2  -9   38.90    7.20
  -4   2  -9   54.29    8.40
  -4   2  -9   37.40    6.50
  -3   2  -8   27.10    8.40
  -3   2  -8   15.60    6.70
  -3   2  -8   20.60    6.70
  -2   2  -7  103.79   11.60
  -2   2  -7   86.69   15.40
  -2   2  -7  105.69   12.60
  -1   2  -6   37.30    6.30
   0   2  -5  939.71   42.20
   0  -2   5 1012.60   43.00
   1   2  -4  105.19   13.60
  -1  -2   4   84.29    8.40
  -1  -2   4   86.29    6.70
   2   2  -3  606.84   29.60
  -2  -2   3  699.23   28.00
   3   2  -2   20.30    5.70
  -3  -2   2   30.30    5.80
  -3  -2   2   23.90    4.30
   4   2  -1  877.51   36.40
  -4  -2   1  771.82   34.60
  -4  -2   1  815.12   35.70
   5   2   0  565.54   27.20
  -5  -2   0  667.83   28.90
   6   2   1   92.49    9.60
   6   2   1   66.89    8.30
   6   2   1   76.69    8.40
   6   2   1   72.79   10.20
   7   2   2   39.70    7.20
   7   2   2   52.19    7.00
   7   2   2   39.40    6.10
   7   2   2   46.50    7.50
  -7  -2  -2   46.00    6.50
   8   2   3   64.29   10.10
   8   2   3   61.49    7.90
  -8  -2  -3   72.69   10.70
   9   2   4   31.80    6.40
   9   2   4   18.10    6.10
  -9  -2  -4   26.30    6.30
  10   2   5    2.60    4.80
  10   2   5  -11.50    6.30
 -10  -2  -5    3.70    5.60
  -6   2 -10    3.30    6.40
  -6   2 -10    7.60    5.40
  -5   2  -9   91.69   12.00
  -5   2  -9   84.49   11.60
  -5   2  -9   71.69    9.40
  -4   2  -8   32.90    7.90
  -4   2  -8   26.20    6.70
  -4   2  -8   23.60    7.00
   4  -2   8   28.40   10.10
  -3   2  -7   65.59   10.10
  -3   2  -7   72.89   11.00
  -3   2  -7   56.19    7.80
  -2   2  -6   30.10   10.50
  -2   2  -6   35.60    8.40
  -1   2  -5  235.28   14.90
   1  -2   5  249.68   15.60
   0  -2   4   92.69    6.00
   0  -2   4   93.99    8.60
  -1  -2   3    5.10    3.10
  -1  -2   3    7.10    2.60
   2   2  -2  274.07   14.20
  -2  -2   2  274.77   12.90
  -2  -2   2  282.07   13.50
   3   2  -1  104.59    8.70
  -3  -2   1  122.09    7.70
  -3  -2   1  105.49    6.20
   4   2   0  256.17   15.70
   4   2   0  266.87   15.10
  -4  -2   0  283.67   13.90
  -4  -2   0  291.67   17.20
   5   2   1  242.88   13.10
   6   2   2   19.20    5.30
   6   2   2   28.10    6.80
   6   2   2   24.30    8.10
   6   2   2   26.90    6.80
   7   2   3   69.69   10.90
   7   2   3  111.99   13.10
   7   2   3   77.69   11.70
   7   2   3   83.19   11.20
  -7  -2  -3   94.79   10.60
   8   2   4  359.76   19.90
   8   2   4  370.06   19.70
  -8  -2  -4  376.46   20.00
   9   2   5   33.80    6.40
   9   2   5   32.80    6.50
  -9  -2  -5   41.10    6.30
  10   2   6   22.10    6.00
  10   2   6    4.30    4.60
 -10  -2  -6   14.10    5.70
  -7   2 -10   60.09    8.40
  -6   2  -9   66.39   10.10
  -6   2  -9   55.49    7.40
  -6   2  -9   47.80    8.10
   6  -2   9   58.19   11.40
  -5   2  -8   46.80    7.40
  -5   2  -8   44.50    7.90
  -5   2  -8   60.79    9.20
   5  -2   8   24.10    8.70
  -4   2  -7  242.58   15.00
  -4   2  -7  225.68   16.10
   4  -2   7  239.08   16.90
  -3   2  -6   12.10    6.20
  -3   2  -6   -2.10    7.00
   3  -2   6   19.40    8.20
  -2   2  -5   24.20    5.70
   2  -2   5   40.10    7.70
  -1   2  -4   17.90    5.90
   1  -2   4   21.40    5.10
   0  -2   3   70.29    4.50
   0  -2   3   61.49    6.40
  -1  -2   2  348.67   16.00
   2   2  -1  733.73   29.70
  -2  -2   1  658.73   28.30
  -2  -2   1  663.73   29.20
   3   2   0  120.69    8.40
  -3  -2   0  114.29    6.90
  -3  -2   0  116.99    7.60
   4   2   1   50.19    7.50
  -4  -2  -1   29.40    4.80
  -4  -2  -1   23.20    5.90
   5   2   2   70.79    8.50
   5   2   2   89.89   11.00
   6   2   3   24.90    6.30
   6   2   3   28.10    6.50
   6   2   3   35.70    7.20
   6   2   3   25.40    7.00
  -6  -2  -3   43.20    6.70
   7   2   4  136.89   11.70
   7   2   4  124.59   11.30
  -7  -2  -4  106.29   11.60
   8   2   5   44.00    7.00
   8   2   5   41.20    6.50
  -8  -2  -5   45.80    6.60
   9   2   6    0.70    5.10
   9   2   6    4.60    6.00
  -9  -2  -6    7.70    5.30
  10   2   7   -7.60    6.80
  10   2   7   10.00    6.20
 -10  -2  -7    5.00    6.10
  -7   2  -9   68.59    9.30
  -7   2  -9   60.39    8.20
   7  -2   9  105.79   15.80
  -6   2  -8    8.70    7.10
  -6   2  -8    5.10    6.60
  -6   2  -8   20.30    6.40
   6  -2   8    4.10    7.70
  -5   2  -7  576.94   26.90
  -5   2  -7  583.84   28.50
   5  -2   7  539.05   27.40
  -4   2  -6   25.30    6.60
  -4   2  -6   25.80    6.90
   4  -2   6   33.30    7.40
  -3   2  -5   18.30    8.50
  -3   2  -5   22.10    6.20
   3  -2   5    4.60    6.80
  -2   2  -4  102.39    9.20
  -2   2  -4   99.99   12.40
   2  -2   4  125.69    7.60
   2  -2   4  143.69   10.60
   1  -2   3  328.47   16.20
   0  -2   2  404.76   18.30
   1   2  -1  253.27   12.30
  -1  -2   1  260.77   12.00
  -1  -2   1  252.57   11.00
   2   2   0  352.46   14.80
  -2  -2   0  297.37   14.30
  -2  -2   0  302.97   14.20
   3   2   1   25.10    4.30
  -3  -2  -1   13.80    3.10
  -3  -2  -1   13.90    3.20
   4   2   2  455.05   24.20
   4   2   2  468.25   21.60
   5   2   3  289.77   16.20
   5   2   3  287.67   16.10
   5   2   3  284.27   20.30
   5   2   3  289.37   18.20
  -5  -2  -3  312.67   17.70
  -5  -2  -3  323.87   16.40
   6   2   4  244.98   15.00
   6   2   4  262.67   16.10
  -6  -2  -4  273.97   15.60
   7   2   5  162.18   13.30
   7   2   5  170.78   12.80
  -7  -2  -5  193.98   13.40
   8   2   6   63.99    9.80
   8   2   6   42.40    6.60
  -8  -2  -6   57.79    9.90
   9   2   7   23.80    6.90
   9   2   7   21.30    4.90
   9   2   7   16.60    6.30
  -9  -2  -7   28.10    5.50
  -8   2  -9   12.40    5.00
  -7   2  -8   93.59   13.50
  -7   2  -8   92.19   11.40
  -7   2  -8   89.39    8.60
   7  -2   8   62.29    9.10
  -6   2  -7  125.09   11.60
  -5   2  -6  213.38   14.20
  -5   2  -6  234.88   16.40
   5  -2   6  198.68   14.50
  -4   2  -5   55.89    7.70
   4  -2   5   65.99   10.10
  -3   2  -4   91.89   12.60
   3  -2   4   74.39    8.40
  -2   2  -3  316.37   15.20
   2  -2   3  343.87   14.80
   1  -2   2   36.30    2.90
   1  -2   2   37.40    4.90
   0  -2   1  336.97   14.00
   0  -2   1  327.07   14.80
   1   2   0  397.36   17.60
  -1  -2   0  409.06   17.40
   2   2   1 1521.85   60.29
  -2  -2  -1 1366.96   59.09
  -2  -2  -1 1416.46   58.89
   3   2   2   67.19    8.30
  -3  -2  -2   69.79    7.70
   4   2   3  348.07   17.90
   4   2   3  350.96   23.20
   4   2   3  375.06   18.10
  -4  -2  -3  341.17   17.60
   5   2   4  183.98   16.30
   5   2   4  197.78   14.00
   5   2   4  198.68   12.50
  -5  -2  -4  189.48   13.00
   6   2   5  682.73   30.60
  -6  -2  -5  653.03   31.00
   7   2   6   28.70    6.60
   7   2   6   30.60    8.50
  -7  -2  -6   30.80    9.80
   8   2   7   28.40    6.10
   8   2   7   29.20    5.70
  -8  -2  -7   18.50    5.80
   9   2   8   35.40    5.90
   9   2   8   48.60    6.70
  -8   2  -8   22.70    5.70
  -8   2  -8   24.40    5.00
  -8   2  -8   11.60    8.80
   8  -2   8   33.40    7.70
  -7   2  -7  110.19   14.10
  -7   2  -7  103.79   10.90
   7  -2   7  121.89   11.70
  -6   2  -6   38.20    8.20
  -6   2  -6   36.00    6.90
   6  -2   6   27.50    6.80
  -5   2  -5  225.18   17.20
  -5   2  -5  221.38   14.40
   5  -2   5  217.88   13.80
  -4   2  -4   47.90    7.80
  -3   2  -3  872.81   38.20
   3  -2   3  895.81   37.30
  -2   2  -2   15.50    3.00
   1  -2   1  452.95   19.00
   1  -2   1  443.06   19.70
   1  -2   1  453.35   18.80
   0  -2   0  153.28    7.30
   0  -2   0  151.98    7.50
   1   2   1  434.56   18.90
  -1  -2  -1  457.65   19.10
  -1  -2  -1  437.86   18.70
  -2  -2  -2   29.30    5.40
  -2  -2  -2   31.90    4.40
   3   2   3  932.11   40.00
   3   2   3  900.51   39.70
   3   2   3  898.31   39.90
  -3  -2  -3  954.00   39.20
   4   2   4   51.59    6.20
  -4  -2  -4   40.10    7.00
  -4  -2  -4   33.60    5.90
   5   2   5  222.28   15.40
   5   2   5  230.38   13.80
  -5  -2  -5  230.58   14.50
   6   2   6   29.70    6.50
   6   2   6   34.90    6.30
  -6  -2  -6   27.60    6.70
   7   2   7  114.79   10.90
   7   2   7  106.29   10.70
  -7  -2  -7  117.59   11.80
   8   2   8   29.50    5.30
   8   2   8   20.30    5.40
  -8  -2  -8   28.30    5.90
  -9   2  -8   41.50    5.80
   9  -2   8   59.29    8.40
  -8   2  -7   20.90    5.90
  -8   2  -7    7.70    9.50
  -8   2  -7   19.30    7.00
   8  -2   7   24.00    6.70
  -7   2  -6   31.10    6.80
  -6   2  -5  678.13   31.70
  -6   2  -5  632.14   29.50
   6  -2   5  593.04   28.80
  -5   2  -4  164.88   16.90
  -5   2  -4  176.98   13.40
   5  -2   4  176.18   17.80
  -4   2  -3  326.07   21.30
   4  -2   3  325.37   16.40
  -3   2  -2   76.09    7.90
   3  -2   2   84.49    5.90
   2  -2   1 1453.05   59.49
   1  -2   0  429.06   17.80
   1  -2   0  430.36   18.00
   1  -2   0  404.76   18.20
   0  -2  -1  328.57   14.40
   0  -2  -1  353.26   14.80
  -1  -2  -2   36.00    4.00
   2   2   3  322.67   16.10
  -2  -2  -3  382.36   16.30
   3   2   4   91.89    9.10
  -3  -2  -4   83.09   10.20
  -3  -2  -4   79.89    8.70
   4   2   5   47.80    7.60
   4   2   5   54.99    8.50
  -4  -2  -5   66.29    9.60
   5   2   6  234.58   14.10
   5   2   6  227.58   15.60
   5   2   6  219.68   15.30
  -5  -2  -6  205.28   14.60
   6   2   7  121.49   11.30
   6   2   7  100.49   15.30
   7   2   8   88.99    9.30
   7   2   8   83.79    9.40
   7   2   8  104.99   10.40
  -7  -2  -8   88.59   10.80
   8   2   9    9.80    5.20
   8   2   9   11.60    4.20
  -8  -2  -9   16.30    6.00
  -9   2  -7   17.50    4.90
  -9   2  -7   19.70    5.70
   9  -2   7   39.00    8.30
  -8   2  -6   59.59   10.00
  -8   2  -6   26.40   11.00
   8  -2   6   57.89    9.50
  -7   2  -5  149.79   18.40
  -7   2  -5  155.88   13.10
   7  -2   5  195.58   12.20
  -6   2  -4  273.67   20.70
  -6   2  -4  245.98   15.40
  -5   2  -3  238.98   21.10
  -5   2  -3  255.57   16.20
   5  -2   3  288.87   16.30
   4  -2   2  463.75   21.00
  -3   2  -1   22.10    4.00
   3  -2   1   14.50    2.60
   2  -2   0  310.97   13.60
   2  -2   0  323.07   14.10
   1  -2  -1  267.27   11.90
   1  -2  -1  281.37   12.50
   1  -2  -1  282.37   12.20
   0  -2  -2  430.96   18.70
   2   2   4  127.89   10.80
  -2  -2  -4  131.19   12.30
  -2  -2  -4  148.89    8.90
   3   2   5   16.50    7.50
   3   2   5   21.60    5.20
  -3  -2  -5   15.10    7.20
  -3  -2  -5   24.80    5.70
   4   2   6   30.70    7.10
   4   2   6   33.30    6.80
   4   2   6   35.00    6.10
  -4  -2  -6   44.30    6.50
   5   2   7  565.64   28.70
   5   2   7  630.34   28.70
   5   2   7  630.14   29.00
  -5  -2  -7  601.74   29.20
   6   2   8   19.40    6.10
   6   2   8   14.40    5.30
  -6  -2  -8   17.50    6.30
   7   2   9   67.99    7.90
   7   2   9   80.69    8.60
  -7  -2  -9   74.99   10.50
 -10   2  -7   -0.10    6.00
  10  -2   7    7.90    6.00
  -9   2  -6   -0.90    5.50
  -9   2  -6   11.80    6.90
   9  -2   6    5.70    5.40
  -8   2  -5   44.40    7.10
   8  -2   5   38.00    6.20
  -7   2  -4  126.89   11.30
  -7   2  -4  106.09   16.20
   7  -2   4   99.69   10.30
  -6   2  -3   18.30    6.50
  -6   2  -3   35.50    9.20
   5  -2   2  104.09    9.80
   4  -2   1   38.20    5.40
   3  -2   0  111.39    5.80
   3  -2   0  118.29    6.70
   2  -2  -1  673.23   28.60
   2  -2  -1  683.73   28.30
   1  -2  -2  358.36   15.70
   0  -2  -3   79.59    5.70
   1   2   4   23.30    5.10
  -1  -2  -4   25.50    4.20
  -2  -2  -5   49.30    6.80
  -2  -2  -5   44.10    6.50
   3   2   6    8.60    6.50
   3   2   6   15.90    6.10
   3   2   6   22.90    5.40
  -3  -2  -6   16.80    5.40
   4   2   7  249.78   15.50
   4   2   7  223.58   16.70
   4   2   7  241.38   14.70
  -4  -2  -7  260.67   15.90
   5   2   8   40.50    6.50
   5   2   8   47.90   11.10
  -5  -2  -8   33.10    7.60
   6   2   9   51.59    8.20
   6   2   9   66.39    8.20
  -6  -2  -9   54.29    7.40
   7   2  10   72.79    8.40
   7   2  10   63.19    7.60
  -7  -2 -10   66.49   11.30
 -10   2  -6    8.10    5.40
 -10   2  -6    8.20    5.80
  10  -2   6    8.10    5.30
  -9   2  -5   34.30    7.00
   9  -2   5   38.30    6.30
  -8   2  -4  364.16   19.60
   8  -2   4  363.66   18.70
  -7   2  -3   81.99   13.40
  -7   2  -3   96.59   11.10
  -6   2  -2   38.80    9.20
   5  -2   1  290.27   15.00
   4  -2   0  312.67   13.90
   4  -2   0  318.27   17.30
   4  -2   0  326.37   15.10
  -3   2   1  108.79    7.00
   3  -2  -1  120.29    7.50
   3  -2  -1  119.99    6.20
   3  -2  -1  117.39    6.90
  -2   2   2  292.17   14.10
   2  -2  -2  316.67   14.20
   2  -2  -2  312.47   13.70
   1  -2  -3    4.30    2.50
   0  -2  -4   97.29    7.10
   1   2   5  251.77   14.00
  -1  -2  -5  233.68   16.20
  -1  -2  -5  275.37   13.80
   2   2   6   24.40    6.90
   2   2   6   34.30    5.70
   2   2   6   24.70    6.10
  -2  -2  -6   45.00    6.80
   3   2   7   77.29   10.70
   3   2   7   76.69    9.40
   3   2   7   72.09   12.00
   3   2   7   70.19    9.00
   4   2   8   29.80    6.60
   4   2   8   25.90    5.60
   4   2   8   27.00    6.30
  -4  -2  -8   21.00    6.90
   5   2   9   86.99    9.90
   5   2   9   86.79    9.40
  -5  -2  -9   74.99   11.80
   6   2  10    7.70    4.30
  -6  -2 -10   13.60    7.00
 -10   2  -5    3.70    6.90
 -10   2  -5   -6.50    5.80
  10  -2   5    6.20    5.00
  -9   2  -4   17.30    6.80
   9  -2   4   31.30    5.60
  -8   2  -3   40.60    7.00
  -8   2  -3   39.60    7.80
  -7   2  -2   51.09    7.30
  -7   2  -2   36.80    7.40
   6  -2   1   64.29   10.30
   5  -2   0  658.13   29.10
  -4   2   1  840.32   34.80
   4  -2  -1  809.92   35.70
   4  -2  -1  804.82   34.40
   4  -2  -1  844.02   35.20
  -3   2   2   33.20    5.80
   3  -2  -2   32.30    4.40
   3  -2  -2   28.90    4.00
  -2   2   3  679.63   31.20
   2  -2  -3  718.03   32.20
   2  -2  -3  783.02   30.80
  -1   2   4  130.49   14.40
   1  -2  -4   87.69    6.70
   0   2   5 1056.19   47.10
   0  -2  -5 1160.88   46.90
   1   2   6   46.20    7.40
   1   2   6   38.00    5.80
  -1  -2  -6   28.50    7.30
  -1  -2  -6   43.10    7.20
   2   2   7   97.69   11.40
   2   2   7   99.99    9.80
   2   2   7   96.59    9.90
   2   2   7  110.29   13.40
  -2  -2  -7  105.59   11.80
   3   2   8   31.00    5.50
   3   2   8   29.20    6.20
   3   2   8   17.60    6.80
  -3  -2  -8   35.30    7.20
   4   2   9   31.00    6.30
   4   2   9   35.20    6.80
  -4  -2  -9   34.80    7.00
   5   2  10    9.30    5.30
   5   2  10    9.90    4.70
  -5  -2 -10   13.90    7.50
 -11   2  -5   23.40    8.70
  11  -2   5   34.00    5.10
 -10   2  -4   17.80    6.60
  10  -2   4   10.20    4.80
  -9   2  -3  162.48   13.20
  -8   2  -2   11.90    6.70
  -8   2  -2   -1.10    6.10
  -7   2  -1   15.70    6.80
  -7   2  -1   12.40    6.30
   6  -2   0   22.70    5.00
  -5   2   1  383.36   18.20
   5  -2  -1  337.97   16.20
   5  -2  -1  333.57   17.00
  -4   2   2  313.47   18.00
   4  -2  -2  380.86   17.70
   4  -2  -2  387.06   16.70
   4  -2  -2  398.96   17.30
  -3   2   3  202.38   13.50
   3  -2  -3  214.18   11.00
   3  -2  -3  208.98   10.50
   2  -2  -4  146.69    8.20
  -1   2   5  146.39   10.90
   1  -2  -5  152.18    9.20
   0   2   6  489.15   23.40
   0  -2  -6  486.05   25.90
   0  -2  -6  506.45   23.40
   1   2   7   32.60    6.70
   1   2   7   43.50    6.00
  -1  -2  -7   31.60    7.20
   2   2   8   79.29    9.70
   2   2   8   79.99   11.10
   2   2   8   81.29    8.70
  -2  -2  -8   78.39   12.50
   3   2   9  309.67   17.40
  -3  -2  -9  294.17   25.00
   4   2  10    7.80    5.30
   4   2  10    6.60    5.00
  -4  -2 -10    2.70    6.30
  -4  -2 -10    1.60    7.20
   5   2  11   16.40    4.30
   5   2  11   17.90    5.30
  -5  -2 -11   23.70    7.40
 -11   2  -4   18.10    7.20
 -11   2  -4    9.40    7.80
  11  -2   4   14.60    4.90
  10  -2   3   17.80    5.00
  -9   2  -2  139.89   11.90
  -9   2  -2  138.49   12.30
  -8   2  -1   52.39    7.90
  -8   2  -1   59.89    9.70
  -7   2   0   19.10    5.30
  -7   2   0   18.50    6.10
  -7   2   0   20.90    6.80
   6  -2  -1  201.78   13.10
   5  -2  -2  136.89    9.20
   5  -2  -2  130.59    8.60
   5  -2  -2  123.39   14.00
   4  -2  -3  255.17   13.00
   4  -2  -3  259.67   13.40
   4  -2  -3  277.47   14.10
  -3   2   4  808.52   36.40
   3  -2  -4  856.71   35.80
   3  -2  -4  856.91   36.40
  -2   2   5  641.94   29.60
   2  -2  -5  691.23   29.10
  -1   2   6    8.10    4.80
   1  -2  -6    5.80    5.10
   0   2   7  110.59   11.90
   0   2   7  142.99   10.10
   0   2   7  154.58   11.20
   0  -2  -7  134.69   15.40
   1   2   8   31.50    5.50
   1   2   8   22.20    6.00
   1   2   8   33.80    7.60
  -1  -2  -8   41.00    7.60
   2   2   9  205.18   14.00
   2   2   9  225.08   14.00
   2   2   9  194.58   12.20
  -2  -2  -9  173.58   16.40
   3   2  10   10.60    6.00
   3   2  10   17.90    5.60
  -3  -2 -10    9.00    7.90
   4   2  11    2.90    4.50
   4   2  11   -0.70    5.20
  -4  -2 -11    4.80    6.80
  -4  -2 -11    8.00    8.20
 -11   2  -3  114.59   13.20
 -11   2  -3  124.59   16.60
  11  -2   3  131.29    9.40
 -10   2  -2  204.88   15.10
  -9   2  -1  170.48   13.90
  -9   2  -1  201.48   12.50
  -8   2   0   17.20    5.40
  -8   2   0   27.90    7.20
  -7   2   1  272.37   16.50
  -7   2   1  290.97   15.50
  -7   2   1  284.77   15.30
   6  -2  -2  204.88   14.80
   6  -2  -2  253.97   13.90
   6  -2  -2  248.18   14.80
   5  -2  -3  196.08   11.90
   5  -2  -3  207.28   11.30
  -4   2   4  138.39   10.10
   4  -2  -4  152.08   10.10
   4  -2  -4  150.88    9.50
  -3   2   5   35.30    5.20
   3  -2  -5   36.80    5.30
   3  -2  -5   43.40    7.30
  -2   2   6  120.89    9.90
   2  -2  -6  101.39   10.50
  -1   2   7  243.28   13.40
  -1   2   7  249.78   14.80
  -1   2   7  256.27   15.60
   0   2   8   29.70    6.40
   0   2   8   48.10    7.40
   0   2   8   35.70    6.50
   0  -2  -8   34.60    9.30
   1   2   9   94.49    8.50
   1   2   9   90.09   10.60
   1   2   9   79.19   11.20
  -1  -2  -9   76.59   10.30
   2   2  10  106.69   10.90
   2   2  10  125.59   11.40
  -2  -2 -10  113.19   16.10
   3   2  11   59.89    7.90
   3   2  11   47.90    6.70
  -3  -2 -11   61.19    9.90
  -3  -2 -11   61.89    8.80
  12  -2   3   13.70    4.50
 -11   2  -2   39.60    8.00
  11  -2   2   45.90    5.80
 -10   2  -1   38.70    6.20
 -10   2  -1   30.80    7.80
  -9   2   0  194.38   12.30
  -9   2   0  169.78   14.10
  -8   2   1   37.60    7.40
  -8   2   1   39.70    5.90
  -8   2   1   42.40    5.50
  -7   2   2   55.59    7.80
  -7   2   2   72.89    8.70
  -7   2   2   64.79    8.90
  -6   2   3   85.89   10.90
   6  -2  -3  100.39    9.10
   6  -2  -3  100.79   11.20
   5  -2  -4   97.99    9.70
  -4   2   5  112.09    9.70
   4  -2  -5  137.59   10.40
   4  -2  -5  122.49   10.60
  -3   2   6   81.79   10.80
  -3   2   6   53.59    8.50
  -2   2   7  155.28   10.30
  -2   2   7  145.39   12.20
  -2   2   7  145.79   11.10
  -1   2   8  132.49   11.50
  -1   2   8  135.09   11.90
  -1   2   8  138.99    9.70
   0   2   9  125.09    9.20
   0   2   9  118.29   12.10
   0   2   9  142.49   12.00
   0  -2  -9  107.49   13.10
   1   2  10   27.20    6.70
   1   2  10   34.70    7.00
  -1  -2 -10   32.40    9.30
   2   2  11   42.50    6.70
   2   2  11   61.19    8.40
  -2  -2 -11   54.59    7.90
  -2  -2 -11   37.00   10.40
   3   2  12   18.60    5.50
   3   2  12   17.40    4.10
  -3  -2 -12   35.90    5.60
  12  -2   2   76.49    7.40
 -11   2  -1   11.50    9.30
 -10   2   0   95.99   14.00
 -10   2   0  125.09    9.80
  -9   2   1  182.98   11.90
  -9   2   1  184.58   14.20
  -8   2   2  388.76   18.60
  -8   2   2  381.86   18.30
  -8   2   2  335.17   19.60
  -7   2   3  218.08   12.70
  -7   2   3  228.68   12.80
  -7   2   3  210.48   14.60
   7  -2  -3  180.98   18.80
  -6   2   4   64.39    7.70
  -6   2   4   60.19    7.00
  -6   2   4   68.49    7.80
   6  -2  -4   63.49    8.30
  -5   2   5   30.30    6.10
  -5   2   5   15.40    7.00
  -5   2   5   42.00    7.50
  -4   2   6   59.89    7.10
  -4   2   6   50.99    6.60
  -3   2   7  121.89    9.40
  -3   2   7  104.89   10.20
  -3   2   7  110.09   10.50
  -2   2   8   25.90    5.90
  -2   2   8   21.40    4.50
  -2   2   8   19.90    5.80
  -1   2   9   34.70    4.70
  -1   2   9   32.40    6.40
  -1   2   9   24.50    6.40
   0   2  10    5.90    6.30
   0   2  10   11.40    5.90
   0  -2 -10   13.50    5.90
   1   2  11   61.49    7.70
  -1  -2 -11   67.79    8.20
   2   2  12   13.30    4.10
   2   2  12    1.20    6.00
  -2  -2 -12    6.50    4.40
  12  -2   1   94.29    8.40
 -11   2   0   -0.60    4.80
 -10   2   1  101.09    9.20
 -10   2   1  113.59   13.90
  -9   2   2   29.70    5.40
  -9   2   2   23.70    7.40
  -9   2   2   27.30    5.00
  -8   2   3  226.38   15.50
  -8   2   3  238.58   13.10
  -8   2   3  247.18   13.60
   8  -2  -3  215.58   16.00
  -7   2   4   22.50    5.20
  -7   2   4   23.30    5.30
  -7   2   4   31.80    6.50
   7  -2  -4   25.60    5.10
  -6   2   5   71.19   11.20
  -6   2   5   62.09   10.10
  -6   2   5   90.79   10.10
   6  -2  -5   88.09    8.50
  -5   2   6   37.40    7.30
  -5   2   6   44.10    7.20
  -5   2   6   41.40    6.10
   5  -2  -6   41.50    8.00
  -4   2   7  123.69   10.70
  -4   2   7  130.89    9.90
  -4   2   7  124.29   11.10
   4  -2  -7  125.49   12.40
  -3   2   8   90.89   10.50
  -3   2   8   97.09   10.60
  -3   2   8  105.79    8.60
  -2   2   9   18.40    5.70
  -2   2   9   20.10    6.30
  -1   2  10   88.19   11.90
  -1   2  10   87.29   10.60
   1  -2 -10   70.39    9.20
   0   2  11   38.60    7.30
   0   2  11   39.70    6.20
   0  -2 -11   45.50    5.90
   0  -2 -11   39.90    8.30
   1   2  12  114.79    8.20
  -1  -2 -12  100.19    8.20
  12  -2   0   31.20    5.30
 -11   2   1   32.60    5.30
 -10   2   2  121.19    9.90
 -10   2   2  119.49   14.80
  -9   2   3  180.98   11.40
  -9   2   3  194.08   11.80
  -9   2   3  176.88   14.70
  -8   2   4   37.00    5.80
  -8   2   4   28.20    7.30
  -8   2   4   29.40    5.30
   8  -2  -4   25.70    6.10
  -7   2   5   49.70    6.20
  -7   2   5   47.20    6.80
  -7   2   5   53.59    8.30
   7  -2  -5   50.99    7.60
  -6   2   6  267.17   15.10
  -6   2   6  243.78   15.80
  -6   2   6  277.77   16.30
   6  -2  -6  273.57   14.30
  -5   2   7   30.70    8.60
  -5   2   7   34.20    5.90
  -5   2   7   42.80    6.40
   5  -2  -7   42.30    6.50
  -4   2   8   45.10    6.70
  -4   2   8   59.39    7.40
   4  -2  -8   54.69    7.00
  -3   2   9   93.49   11.00
  -3   2   9  103.39   10.50
   3  -2  -9   73.39    9.70
  -2   2  10   23.80    9.60
  -2   2  10   19.90    5.70
   2  -2 -10   11.10    5.20
  -1   2  11  104.69    9.90
  -1   2  11   98.89   11.60
   1  -2 -11   93.19    8.80
   1  -2 -11   89.89   11.00
   0   2  12   21.60    7.00
   0   2  12   12.30    4.30
   0  -2 -12    4.10    3.90
  13  -2   0   42.90    6.90
 -11   2   2   56.69    7.90
 -10   2   3   79.49    8.50
 -10   2   3   72.99    7.70
  -9   2   4   40.20    5.60
  -9   2   4   35.70    8.00
  -9   2   4   31.20    4.90
   9  -2  -4   47.20    7.70
  -8   2   5  235.68   16.50
  -8   2   5  255.17   14.60
  -8   2   5  281.57   14.60
   8  -2  -5  281.27   15.00
  -7   2   6  137.19   17.40
  -7   2   6  120.89   13.60
  -7   2   6  146.39   10.60
   7  -2  -6  135.49   10.00
  -6   2   7  306.77   16.60
  -6   2   7  312.17   19.10
  -6   2   7  308.17   17.70
   6  -2  -7  327.27   16.10
  -5   2   8   23.30    5.50
   5  -2  -8   25.00    5.10
   5  -2  -8   11.40    5.50
  -4   2   9  214.58   13.80
  -4   2   9  227.28   14.80
   4  -2  -9  198.08   12.80
   4  -2  -9  205.28   12.50
  -3   2  10    5.00    6.60
  -3   2  10   10.80    5.50
   3  -2 -10   22.20    5.20
   3  -2 -10   13.10    5.30
  -2   2  11   21.10    7.50
  -2   2  11   24.50    5.50
   2  -2 -11   21.10    4.50
   2  -2 -11   14.20    5.90
  -1   2  12   17.30    4.50
  -1   2  12   14.10    7.40
   1  -2 -12   19.10    3.90
   1  -2 -12   32.50    9.40
   0   2  13   19.70    4.00
  13  -2  -1   18.70    5.10
 -11   2   3    0.70    4.30
 -10   2   4  104.59    9.30
 -10   2   4   92.29    8.30
  -9   2   5  302.67   16.10
  -9   2   5  305.17   16.00
  -9   2   5  301.07   19.40
   9  -2  -5  332.77   17.70
  -8   2   6  103.09   10.50
  -8   2   6   93.89    9.50
  -8   2   6   83.79   12.30
   8  -2  -6  119.79    9.70
  -7   2   7  107.39   12.60
  -7   2   7  114.89   11.20
  -7   2   7  116.79   10.40
   7  -2  -7  124.39    9.30
   7  -2  -7  125.79   16.30
  -6   2   8  106.79   11.90
  -6   2   8  130.39   10.00
   6  -2  -8  124.59    9.30
   6  -2  -8  107.79   10.90
  -5   2   9  175.38   11.80
   5  -2  -9  147.29   11.10
   5  -2  -9  156.08   10.60
  -4   2  10  103.99    9.80
  -4   2  10   97.59   12.10
   4  -2 -10   97.69    9.00
   4  -2 -10   94.99    8.80
  -3   2  11   33.10    5.90
  -3   2  11   29.00    7.70
   3  -2 -11   36.30    5.30
   3  -2 -11   26.20    5.50
  -2   2  12   23.20    8.00
  -2   2  12   18.80    4.40
   2  -2 -12   13.70    3.90
   2  -2 -12   11.20   12.30
  -1   2  13   81.39    6.60
   1  -2 -13   92.99    6.40
  13  -2  -2    9.20    5.40
 -12   2   3   20.10    4.30
 -11   2   4   36.30    9.50
 -10   2   5  130.09    9.10
 -10   2   5  117.89   10.10
  10  -2  -5  138.89   13.30
  -9   2   6   25.40    8.80
  -9   2   6   17.00    5.50
  -9   2   6   17.00    4.50
   9  -2  -6   18.60    5.60
  -8   2   7  108.79   12.90
  -8   2   7  113.89   12.10
  -8   2   7   96.49    9.30
   8  -2  -7  126.59   12.30
  -7   2   8   43.30    7.20
  -7   2   8   44.60    5.90
   7  -2  -8   40.20    7.00
   7  -2  -8   42.50    6.10
  -6   2   9   55.49    8.30
  -6   2   9   65.39   10.40
   6  -2  -9   36.50    5.20
   6  -2  -9   38.80    6.10
  -5   2  10   -1.00    5.10
  -5   2  10    2.40    4.70
   5  -2 -10   10.20    4.30
   5  -2 -10   14.90    4.40
  -4   2  11   -1.00    4.80
   4  -2 -11    5.30    4.60
  -3   2  12    3.40    3.90
   3  -2 -12    5.10    3.40
   3  -2 -12    4.60    6.50
  -2   2  13    5.50    3.30
  -2   2  13   -0.10    3.30
   2  -2 -13    2.80    2.90
  13  -2  -3   31.30    6.10
 -12   2   4   -2.80    4.10
 -11   2   5  121.79    9.70
 -11   2   5  124.79    8.20
 -10   2   6   -2.30    3.80
 -10   2   6    7.50    7.30
  10  -2  -6   -4.60    6.30
  -9   2   7    4.00    3.90
  -9   2   7   12.10    6.20
   9  -2  -7    7.80    5.20
  -8   2   8   34.70    7.90
  -8   2   8   23.10    4.80
   8  -2  -8   25.30    4.90
  -7   2   9    9.60    4.60
  -7   2   9   19.10    6.50
   7  -2  -9    8.80    5.50
   7  -2  -9    2.00    4.00
  -6   2  10    5.50    7.50
  -6   2  10   13.20    4.60
   6  -2 -10    9.80    4.10
   6  -2 -10   13.20    4.60
  -5   2  11   79.09    7.60
  -5   2  11   81.79    9.40
   5  -2 -11   75.39    8.00
   5  -2 -11   70.69    7.50
  -4   2  12   17.10    4.50
  -4   2  12   16.90    4.10
   4  -2 -12   17.50    3.50
   4  -2 -12   11.10    6.50
  -3   2  13   39.30    5.00
  -3   2  13   42.70    6.50
   3  -2 -13   44.00    5.10
 -11   2   6   70.79    9.20
 -11   2   6   82.69    6.50
  11  -2  -6   86.59   10.60
 -10   2   7   26.30    4.10
 -10   2   7   23.30    6.10
  10  -2  -7   37.20    6.40
  -9   2   8   49.50    7.10
   9  -2  -8   51.99    8.30
  -8   2   9   73.99    8.10
  -8   2   9   61.99    7.20
   8  -2  -9   59.79    7.80
   8  -2  -9   42.80    7.70
  -7   2  10    4.90    3.90
  -7   2  10   -1.30    5.90
   7  -2 -10   11.60    4.80
   7  -2 -10    2.70    4.10
  -6   2  11   99.49    7.70
  -6   2  11   95.39   10.00
   6  -2 -11   85.69    7.80
   6  -2 -11   86.29    8.10
  -5   2  12   13.00    4.90
  -5   2  12   20.10    3.70
   5  -2 -12   15.70    3.60
   5  -2 -12   16.30    5.20
  -4   2  13   46.20    5.10
 -11   2   7   43.30    5.20
  11  -2  -7   38.80    8.00
 -10   2   8    8.60    3.20
  10  -2  -8   11.00    5.60
  -9   2   9    2.40    3.20
   9  -2  -9    4.00    4.60
  -8   2  10    4.00    3.30
   8  -2 -10    2.90    6.20
   8  -2 -10    6.80    4.50
  -7   2  11   22.10    6.50
  -7   2  11   17.70    3.60
   7  -2 -11   18.10    4.50
   7  -2 -11   21.00    4.80
  -6   2  12   32.20    5.70
  -6   2  12   22.10    3.80
   6  -2 -12   34.00    5.20
   6  -2 -12   41.00    6.20
 -11   2   8    4.00    2.70
  11  -2  -8    2.20    6.70
 -10   2   9   23.40    3.30
  10  -2  -9   23.90    5.90
  -9   2  10   -0.10    2.90
   9  -2 -10    4.60    4.50
  -8   2  11  140.69    7.80
   8  -2 -11  133.19    9.30
   8  -2 -11  118.09   11.30
  -7   2  12   18.10    3.10
   7  -2 -12   11.10    4.40
   7  -2 -12   28.60    4.80
   7   3 -11    9.30    3.40
   7   3 -11   17.80    3.70
   8   3 -10   10.70   12.20
   8   3 -10    7.70    4.60
   8   3 -10   11.50    3.50
   9   3  -9   53.39    6.60
   9   3  -9   49.80    7.30
  10   3  -8    2.40    5.30
  10   3  -8   -3.80    3.90
  11   3  -7   24.90    3.50
  11   3  -7   25.20    5.00
  11   3  -7   29.70    4.90
   5   3 -12   27.40    4.40
   5   3 -12   18.10    3.10
   6   3 -11   -2.40    3.20
   6   3 -11   -1.60    3.80
   7   3 -10  150.68    9.50
   7   3 -10  145.49    9.60
   8   3  -9   11.60    4.20
   8   3  -9   24.80    7.20
   8   3  -9   16.20    5.00
   9   3  -8   61.29    9.80
   9   3  -8   65.09    7.40
  10   3  -7  107.09    8.70
  10   3  -7  106.09    9.90
  11   3  -6   82.09    8.60
  11   3  -6   84.69    6.30
  11   3  -6   61.59    8.70
  12   3  -5   58.69    5.10
  12   3  -5   47.60    6.20
   4   3 -12   10.80    5.20
   4   3 -12    8.90    3.00
   5   3 -11   56.19    6.70
   5   3 -11   53.79    7.30
   6   3 -10   14.20    4.30
   6   3 -10   19.20    4.40
   7   3  -9   67.19    8.60
   7   3  -9   65.49    8.90
   7   3  -9   67.39    8.00
   8   3  -8    8.10    5.50
   8   3  -8    3.00    6.10
   8   3  -8   -4.20    4.90
   9   3  -7   77.69   10.20
   9   3  -7   80.99    8.60
  10   3  -6    9.20    5.10
  10   3  -6    3.00    4.90
  11   3  -5   11.60    3.50
  11   3  -5    7.00    4.80
  11   3  -5   21.30    5.40
  12   3  -4   13.50    5.20
  12   3  -4   18.30    3.50
   3   3 -12   11.50    6.30
   3   3 -12    8.80    3.10
   4   3 -11   22.80    4.00
   4   3 -11   22.80    5.00
   5   3 -10   45.20    5.60
   5   3 -10   54.19    8.10
   6   3  -9   -0.20    4.90
   6   3  -9    2.70    8.50
   6   3  -9   -1.70    4.70
   7   3  -8    9.90    6.30
   7   3  -8   21.10    5.60
   7   3  -8   16.40    5.40
   8   3  -7   17.60    5.90
   8   3  -7   14.80    5.50
   8   3  -7   15.20    6.70
   9   3  -6  200.28   12.70
   9   3  -6  192.48   13.40
  10   3  -5    7.10    5.10
  10   3  -5    6.40    5.30
  11   3  -4   56.19    8.60
  11   3  -4   50.49    6.00
 -11  -3   4   64.69   10.60
  12   3  -3   28.70    3.90
  12   3  -3   20.80    5.60
   2   3 -12   55.59    6.20
   3   3 -11   57.49    7.00
   3   3 -11   48.90    6.20
   4   3 -10   76.19    8.70
   4   3 -10   72.89    9.50
   5   3  -9   38.60    6.20
   5   3  -9   36.40    5.90
   6   3  -8    7.70    5.40
   6   3  -8   12.50    5.50
   6   3  -8    3.50    7.10
   7   3  -7  157.08   12.50
   7   3  -7  168.28   11.70
   7   3  -7  153.98   12.50
   8   3  -6   18.40    6.00
   8   3  -6   29.40    5.70
   8   3  -6   29.90    7.40
   9   3  -5   86.99   11.90
   9   3  -5  112.59   10.10
   9   3  -5   94.39   10.00
  10   3  -4  105.19   15.00
  10   3  -4   70.09    9.30
  10   3  -4   68.19    8.40
  11   3  -3  119.09    8.60
  11   3  -3  137.89   10.60
 -11  -3   3  113.89   15.40
  12   3  -2    8.30    6.10
  12   3  -2   -1.30    3.40
   1   3 -12   11.30    3.70
   2   3 -11    8.20    4.10
   2   3 -11    2.60    7.10
   3   3 -10    0.30    5.90
   3   3 -10    5.70    4.90
   4   3  -9    5.20   11.20
   4   3  -9   18.60    5.20
   4   3  -9   12.00    5.40
   5   3  -8  108.49   14.10
   5   3  -8   81.19    9.90
   5   3  -8   58.99   11.20
   5   3  -8   78.19    9.70
   6   3  -7   29.40    7.20
   6   3  -7   16.30   10.40
   6   3  -7   27.50    5.80
   6   3  -7   32.00    6.20
   7   3  -6   35.00    6.70
   7   3  -6   23.30    5.70
   7   3  -6   24.20    6.70
   7   3  -6   35.50   10.60
   8   3  -5  128.09   10.90
   8   3  -5  138.19   11.60
   8   3  -5  143.59   14.80
   8   3  -5  110.39   16.80
   9   3  -4  164.28   12.30
   9   3  -4  171.88   16.90
   9   3  -4  162.78   12.30
  10   3  -3   74.79   10.70
  10   3  -3   67.19    9.20
  10   3  -3   66.69    7.70
  11   3  -2    6.60    5.50
  11   3  -2    3.30    3.80
 -11  -3   2   -6.80    7.70
  12   3  -1  139.59    8.50
   0   3 -12   89.49    9.50
   1   3 -11   49.00    8.80
   1   3 -11   61.59    7.80
   2   3 -10   28.50    7.50
   3   3  -9   91.89   14.70
   3   3  -9   87.19   10.90
   4   3  -8   37.70    9.90
   4   3  -8   37.10    6.40
   5   3  -7  305.77   21.40
   5   3  -7  320.87   19.00
   5   3  -7  323.37   17.50
   5   3  -7  324.77   17.20
   6   3  -6   12.80    5.70
   6   3  -6   17.60    9.00
   6   3  -6   11.40    5.60
   6   3  -6    7.30    6.30
   7   3  -5  201.08   14.70
   7   3  -5  200.18   13.10
   7   3  -5  183.28   17.70
   7   3  -5  198.98   12.90
   8   3  -4   -0.40    8.60
   8   3  -4    9.60    6.10
   8   3  -4   12.30    5.30
   8   3  -4   22.80    8.60
   9   3  -3  113.29   10.60
   9   3  -3  115.29   14.20
   9   3  -3  122.99   11.40
  10   3  -2  124.79   10.30
  10   3  -2  123.19   11.00
  10   3  -2  150.28   14.40
  11   3  -1    5.40    4.00
  11   3  -1   11.70    5.70
 -11  -3   1   11.80    7.40
  12   3   0   80.39    6.80
 -12  -3   0  111.99   13.60
   0   3 -11   39.00    5.20
   0   3 -11   19.60    6.90
   1   3 -10   73.59   12.60
   1   3 -10   79.09   12.60
   1   3 -10   79.29   11.30
   2   3  -9   23.70    8.10
   2   3  -9   25.40    7.50
   3   3  -8  207.08   13.70
   3   3  -8  158.38   16.40
   4   3  -7  110.59   14.60
   4   3  -7   73.39   10.50
   4   3  -7  121.49   15.80
   5   3  -6   91.89   11.40
   5   3  -6   90.19   10.30
   5   3  -6  109.79   15.40
   5   3  -6   83.79   15.70
   6   3  -5   60.69   10.10
   6   3  -5   55.19    9.20
   6   3  -5   59.49    7.50
   6   3  -5   47.60    6.60
   7   3  -4   99.29    9.80
   7   3  -4  107.29   14.70
   7   3  -4   85.79   13.50
   7   3  -4   90.09   10.10
   8   3  -3   47.20    7.20
   8   3  -3   34.80    8.60
   8   3  -3   53.19    7.00
   9   3  -2   31.40    5.60
   9   3  -2   31.10    7.90
   9   3  -2   41.40    8.00
   9   3  -2   38.40    6.90
  10   3  -1   14.10    7.10
  10   3  -1    9.80    5.00
  10   3  -1   10.40    5.70
 -10  -3   1   13.00    6.50
  11   3   0    4.80    7.10
  11   3   0    6.70    4.00
 -11  -3   0    5.10    7.10
  12   3   1   39.10    5.40
  -1   3 -11   19.20    5.50
  -1   3 -11   12.20    5.40
  -1   3 -11   21.00    6.20
   0   3 -10   24.10    5.90
   0   3 -10   31.20    6.50
   0   3 -10   28.10    7.50
   1   3  -9   76.39    9.70
   1   3  -9   97.49   16.50
   1   3  -9   60.79    9.10
   2   3  -8   35.40    7.30
   2   3  -8   39.60    8.10
   2   3  -8   40.50    7.80
   3   3  -7  200.28   14.90
   3   3  -7  193.48   17.50
   4   3  -6   17.80    6.00
   4   3  -6   16.30    6.10
   4   3  -6    1.60    9.00
   4   3  -6   19.60    7.20
   5   3  -5  640.24   33.00
   5   3  -5  671.53   30.20
   5   3  -5  672.83   30.50
   5   3  -5  674.03   30.80
   6   3  -4  362.96   18.10
   6   3  -4  349.87   19.30
   6   3  -4  337.97   18.20
   6   3  -4  333.37   21.10
   7   3  -3  215.48   18.90
   7   3  -3  291.07   15.40
   7   3  -3  261.97   18.10
   7   3  -3  285.47   21.90
   8   3  -2   76.19   10.50
   8   3  -2   62.29    8.80
   8   3  -2   73.89    9.40
   9   3  -1  231.18   14.10
   9   3  -1  226.28   16.00
   9   3  -1  248.38   15.40
  10   3   0   93.79    8.80
  10   3   0   83.89   11.20
 -10  -3   0   79.59   11.60
  11   3   1    9.40    3.90
 -11  -3  -1   11.10    6.80
  -2   3 -11   74.29   10.00
  -2   3 -11   46.20    6.90
  -1   3 -10   34.50    6.40
  -1   3 -10   39.30   11.40
  -1   3 -10   34.60    6.60
   0   3  -9   63.59   11.30
   1   3  -8    2.00    7.10
   1   3  -8    3.90    8.80
   1   3  -8    1.50    5.90
   2   3  -7   15.50    7.50
   2   3  -7   30.30    8.70
   2   3  -7   26.50    6.60
   3   3  -6  280.17   19.20
   3   3  -6  289.47   23.60
   3   3  -6  244.68   16.10
   4   3  -5   95.09   11.20
   4   3  -5   89.39   10.90
   4   3  -5  102.49   11.30
   4   3  -5  101.59   15.10
   5   3  -4   52.99    9.60
   5   3  -4   69.69   11.50
   5   3  -4   82.49   10.00
   5   3  -4   62.89    9.00
   6   3  -3  166.98   15.70
   6   3  -3  184.08   11.60
   6   3  -3  164.58   14.90
   6   3  -3  161.58   12.20
   7   3  -2  373.16   22.30
   7   3  -2  404.26   20.30
   7   3  -2  369.66   23.00
   7   3  -2  418.56   19.90
   8   3  -1  142.19   14.90
   8   3  -1  169.98   11.90
   8   3  -1  140.49   12.80
   8   3  -1  157.28   11.10
   9   3   0   62.79   11.60
   9   3   0   43.70    6.30
   9   3   0   26.80    9.40
  10   3   1   84.09   11.90
  10   3   1   81.59    8.40
 -10  -3  -1   74.19   11.50
  11   3   2   24.00    4.30
 -11  -3  -2   38.20   14.30
  -3   3 -11   -0.70    5.70
  -3   3 -11    3.80    5.20
  -2   3 -10   86.69   10.70
  -2   3 -10   85.29   13.00
  -2   3 -10  105.59   11.80
  -1   3  -9   32.50    7.30
  -1   3  -9   24.10    7.00
  -1   3  -9   47.00    9.00
   0   3  -8   -2.30    9.90
   0   3  -8   -0.70    6.20
   0   3  -8    4.40    6.90
   1   3  -7   72.89   11.70
   1   3  -7   62.19    9.00
   1   3  -7   69.59   10.10
   2   3  -6    5.90    7.70
   2   3  -6   13.10    5.70
   2   3  -6    8.60    8.50
   3   3  -5  341.97   22.60
   3   3  -5  341.67   19.70
   3   3  -5  364.66   19.20
   3   3  -5  374.46   19.10
   4   3  -4  363.36   19.00
   4   3  -4  340.77   19.60
   4   3  -4  374.56   18.40
   4   3  -4  340.67   22.20
   5   3  -3   57.19    9.00
   5   3  -3   58.29    7.40
   5   3  -3   47.50    7.40
   5   3  -3   42.60    5.70
   6   3  -2  276.17   18.80
   6   3  -2  292.47   15.20
   6   3  -2  268.57   17.80
   7   3  -1   78.19    9.10
   7   3  -1   88.99   11.00
   7   3  -1   66.69    9.10
   8   3   0  340.47   17.90
   8   3   0  347.17   20.00
   8   3   0  324.47   18.20
   9   3   1    8.80    6.70
   9   3   1   15.00    6.90
   9   3   1   15.10    5.40
  -9  -3  -1    7.30    6.50
  10   3   2  121.99    9.40
 -10  -3  -2  122.29   12.10
  11   3   3    1.20    3.60
 -11  -3  -3    3.50    6.40
  -4   3 -11   49.70    7.00
  -3   3 -10   47.90    7.00
  -3   3 -10   36.00    6.40
  -2   3  -9   41.90    7.50
  -2   3  -9   44.40    7.60
  -2   3  -9   47.60    8.60
  -2   3  -9   54.49    8.00
  -1   3  -8  215.78   16.80
  -1   3  -8  230.18   16.90
  -1   3  -8  255.47   17.30
   0   3  -7   18.80   10.70
   0   3  -7   16.10    7.10
   0   3  -7   15.90    8.00
   1   3  -6  268.87   15.90
   1   3  -6  215.18   19.10
   1   3  -6  251.97   18.40
   2   3  -5  125.49   14.00
   2   3  -5  115.09   16.40
   3   3  -4  212.88   15.80
   3   3  -4  240.48   14.40
   4   3  -3   18.70   12.20
   4   3  -3   10.10    6.30
   4   3  -3    9.70   12.70
   4   3  -3   16.20    5.00
  -4  -3   3    4.40    9.20
   5   3  -2   60.69    8.40
   5   3  -2   81.69   13.40
   5   3  -2   75.09   10.40
   5   3  -2   73.09   12.60
   6   3  -1   27.30    6.20
   6   3  -1   29.30    8.10
   6   3  -1   42.10    8.10
   6   3  -1   41.30    5.60
   7   3   0   32.70    7.00
   7   3   0   20.30    7.60
   7   3   0   31.20    6.10
   7   3   0   20.20    5.50
   8   3   1  112.89   11.20
   8   3   1  118.39   10.30
   8   3   1  122.59   12.90
   9   3   2   73.09    8.60
  -9  -3  -2   58.39    7.30
  10   3   3   53.19    7.10
 -10  -3  -3   61.39   10.10
  11   3   4    6.80    3.50
 -11  -3  -4   -4.70    6.00
  -4   3 -10   23.10    5.50
  -4   3 -10   33.40    6.90
  -3   3  -9   52.89    8.00
  -3   3  -9   53.89    7.90
  -3   3  -9   42.00    6.90
  -2   3  -8   41.20    7.90
  -2   3  -8   43.70    8.10
  -2   3  -8   29.10    8.70
  -2   3  -8   42.90    7.90
  -1   3  -7  224.18   17.30
  -1   3  -7  241.58   16.20
  -1   3  -7  205.38   19.70
   0   3  -6  110.99   14.40
   0   3  -6   85.59   12.20
   1   3  -5  286.37   18.20
   1   3  -5  244.08   19.50
   2   3  -4   68.49    9.00
  -2  -3   4   93.79   13.70
   3   3  -3  643.44   29.40
  -3  -3   3  674.13   31.70
   4   3  -2   88.99    8.50
  -4  -3   2   73.49   13.00
   5   3  -1   91.79   11.80
   5   3  -1  112.09   14.70
   5   3  -1  111.89   11.80
  -5  -3   1  127.09   17.80
   6   3   0   69.29    9.50
   6   3   0   63.79    9.10
   6   3   0   83.09    8.30
   6   3   0   93.59   10.10
   6   3   0   72.89   11.00
   7   3   1   57.39    8.90
   7   3   1   64.39    9.80
   7   3   1   43.60    8.40
   8   3   2   22.60    7.40
   8   3   2   12.40    5.50
   8   3   2   18.60    6.90
  -8  -3  -2   14.60    6.50
   9   3   3   68.29    9.00
  -9  -3  -3   70.19   10.50
  10   3   4   56.69    7.00
 -10  -3  -4   61.59    7.10
  -5   3 -10   14.30    4.90
  -5   3 -10   22.90    6.70
  -4   3  -9   15.70    6.80
  -4   3  -9    8.00    6.80
  -3   3  -8   14.90    7.30
  -3   3  -8    6.90    6.60
  -2   3  -7   50.09    8.40
  -2   3  -7   60.39    9.10
  -2   3  -7   46.30    7.80
  -1   3  -6   -0.40    8.10
  -1   3  -6   32.90    9.50
  -1   3  -6    7.60    5.80
   0   3  -5   36.20    6.70
   0   3  -5   34.40    9.40
   1   3  -4  190.48   13.20
  -1  -3   4  185.68   15.60
   2   3  -3   97.59   11.90
  -2  -3   3   84.69   11.60
   3   3  -2  121.29   10.00
  -3  -3   2  123.79   12.20
   4   3  -1   23.80    4.80
  -4  -3   1   19.20    7.90
   5   3   0  257.67   15.40
   5   3   0  261.47   18.40
   5   3   0  264.07   16.20
  -5  -3   0  267.77   21.90
   6   3   1  188.88   17.10
   6   3   1  234.48   13.70
   6   3   1  200.28   15.40
   6   3   1  218.18   12.90
   7   3   2   64.29    9.70
   7   3   2   82.59   12.30
   7   3   2   69.99    9.80
   8   3   3  179.58   12.20
  -9  -3  -4   20.30    5.60
  10   3   5  100.19    7.40
 -10  -3  -5  105.59   10.90
  -5   3  -9   26.10    6.20
  -5   3  -9   22.70    5.10
  -5   3  -9   28.80    7.80
  -4   3  -8  266.07   18.30
  -4   3  -8  272.97   18.10
  -4   3  -8  277.27   16.00
  -3   3  -7   25.40    8.40
  -3   3  -7   26.50    7.30
  -3   3  -7   39.80    7.70
  -2   3  -6   20.90    8.10
  -2   3  -6   22.70    8.10
  -2   3  -6    5.00    8.80
  -2   3  -6   12.30    6.50
  -1   3  -5  237.58   18.40
   0   3  -4  139.69   12.50
   0  -3   4  164.08   15.00
  -1  -3   3  183.78   14.70
  -1  -3   3  201.08   13.60
   2   3  -2  155.68   12.00
  -2  -3   2  154.38   11.40
   3   3  -1  309.77   15.10
  -3  -3   1  271.17   16.30
   4   3   0  131.29    9.10
  -4  -3   0  116.39   12.90
   5   3   1  125.39   14.70
   5   3   1  125.39   11.70
   5   3   1  119.49   15.00
   5   3   1  133.69   10.00
   5   3   1  130.79   12.90
   6   3   2  149.88   15.60
   6   3   2  171.48   12.10
   6   3   2  154.18   11.50
   6   3   2  164.08   16.00
   7   3   3   27.30    5.90
   7   3   3   24.00    7.20
   7   3   3   23.40    9.40
  -7  -3  -3   12.50    6.60
   8   3   4  103.09   14.00
   8   3   4  120.69   10.70
  -8  -3  -4  136.79   11.60
   9   3   5    6.10   10.80
   9   3   5    7.10    4.20
  -9  -3  -5   12.80    5.60
  -6   3  -9   55.89    7.20
  -6   3  -9   59.79    9.10
  -6   3  -9   50.59    8.90
  -5   3  -8   84.59   13.80
  -5   3  -8   80.49   12.50
  -5   3  -8   70.19    9.90
  -4   3  -7  162.08   14.70
  -4   3  -7  159.18   15.70
  -4   3  -7  149.88   12.60
  -3   3  -6  362.56   21.00
  -3   3  -6  366.76   19.70
  -2   3  -5  108.29   13.10
  -2   3  -5  122.89   15.50
  -2   3  -5  127.39   13.00
  -1   3  -4  186.88   14.50
   1  -3   4  223.38   16.90
   0   3  -3  184.78   13.50
   0  -3   3  196.28   13.50
  -1  -3   2  505.05   23.90
   2   3  -1  157.38   10.80
  -2  -3   1  133.69    9.90
  -2  -3   1  152.78   11.20
   3   3   0  330.27   15.80
  -3  -3   0  335.17   17.60
  -3  -3   0  271.27   17.00
   4   3   1   22.40    4.80
  -4  -3  -1   15.80    8.00
   5   3   2  201.18   15.90
   5   3   2  194.38   12.30
   5   3   2  199.88   13.40
   5   3   2  211.58   16.40
   6   3   3  546.05   27.20
   6   3   3  478.25   25.60
   6   3   3  500.55   26.00
   6   3   3  502.55   24.90
  -6  -3  -3  478.95   24.40
   7   3   4  134.39   14.80
   7   3   4  150.08   11.30
  -7  -3  -4  165.38   13.30
   8   3   5   22.20    7.40
   8   3   5   16.70    5.40
  -8  -3  -5   16.80    6.00
   9   3   6   22.90    8.00
   9   3   6   -2.40    4.90
   9   3   6    9.10    3.80
  -9  -3  -6    3.80    5.40
  -7   3  -9   37.00    5.40
  -6   3  -8   39.20    7.20
  -6   3  -8   31.80    9.40
  -6   3  -8   32.50    6.00
  -5   3  -7  127.79   11.30
  -5   3  -7  119.99   13.60
  -5   3  -7  108.29   15.10
  -4   3  -6   70.29    9.40
  -4   3  -6   53.19    9.30
  -4   3  -6   80.09   10.40
  -3   3  -5  867.71   37.50
  -3   3  -5  834.52   38.70
  -3   3  -5  825.32   39.80
  -2   3  -4  139.79   14.30
  -2   3  -4  157.78   17.20
  -1   3  -3  530.45   26.00
   1  -3   3  541.75   26.60
   0  -3   2  622.24   26.80
   0  -3   2  621.34   28.40
  -1  -3   1 1572.24   64.29
  -1  -3   1 1569.24   65.69
   2   3   0   70.99   11.70
   2   3   0   61.29    8.80
  -2  -3   0   80.69    8.90
  -2  -3   0   90.59    8.40
   3   3   1   97.59    8.30
  -3  -3  -1   71.19   10.30
   4   3   2  261.37   18.40
   4   3   2  256.87   14.00
   4   3   2  228.98   21.20
   5   3   3  308.27   20.60
   5   3   3  320.07   17.60
   5   3   3  333.57   19.40
   5   3   3  340.27   19.80
   6   3   4   70.19    8.90
   6   3   4   63.09    9.20
   6   3   4   58.59    9.00
  -6  -3  -4   74.79   10.70
   7   3   5   18.20    6.80
   7   3   5   16.20    5.60
  -7  -3  -5   12.80    5.80
   8   3   6  139.89    9.90
   8   3   6  118.79   12.30
  -8  -3  -6  152.48   12.10
   9   3   7   58.29    6.20
   9   3   7   71.79    8.20
  -9  -3  -7   70.69    9.50
  -7   3  -8   30.80    5.10
  -7   3  -8   22.60    5.90
  -6   3  -7  105.69   10.80
  -6   3  -7  127.59   13.20
  -6   3  -7   85.59   11.00
  -5   3  -6   67.29   10.20
  -5   3  -6   63.69    9.90
  -5   3  -6   63.19   10.20
   5  -3   6   79.29   11.30
  -4   3  -5  374.66   23.40
  -4   3  -5  379.66   22.40
  -4   3  -5  390.46   19.60
   4  -3   5  337.17   23.10
  -3   3  -4   75.49   10.60
  -3   3  -4   75.19    9.00
  -3   3  -4   77.69   12.10
  -2   3  -3  183.78   16.30
   2  -3   3  188.78   16.40
   1  -3   2  265.37   16.00
   1  -3   2  270.67   12.90
   1  -3   2  285.97   13.00
   0  -3   1 1052.19   45.40
   0  -3   1 1085.59   44.30
   0  -3   1 1069.89   44.60
  -1  -3   0  609.94   26.70
  -1  -3   0  610.74   26.90
   2   3   1  520.15   22.50
   2   3   1  473.85   23.40
  -2  -3  -1  484.65   22.00
  -2  -3  -1  510.65   22.30
  -2  -3  -1  437.96   23.50
   3   3   2   77.79    8.50
   3   3   2   75.99    9.80
  -3  -3  -2   62.59   10.50
   4   3   3  152.88   13.50
   4   3   3  135.19   13.40
   4   3   3  125.29   17.20
   4   3   3  145.19   11.90
   5   3   4  114.79   10.80
   5   3   4  116.49   14.90
   5   3   4  108.09   12.80
  -5  -3  -4   99.79   11.20
   6   3   5  306.37   16.80
   6   3   5  283.37   15.60
   6   3   5  213.68   17.00
  -6  -3  -5  264.07   16.70
   7   3   6   12.80    5.30
   7   3   6   -5.50    6.10
  -7  -3  -6    0.20    5.60
   8   3   7  108.19    8.10
   8   3   7  105.39   11.80
   8   3   7  111.69    9.80
  -8  -3  -7  120.19   11.30
  -8   3  -8   22.50    4.10
  -8   3  -8   19.30    5.20
  -7   3  -7   36.40    5.90
  -7   3  -7   26.80    7.00
   7  -3   7   39.70   10.40
  -6   3  -6  106.19   14.40
  -6   3  -6   93.09   12.10
  -6   3  -6  104.09   10.60
   6  -3   6  103.49   14.20
  -5   3  -5   71.89   10.20
  -5   3  -5   66.19   10.50
  -5   3  -5   51.99    7.30
   5  -3   5   50.49    9.00
  -4   3  -4   15.20    6.20
  -4   3  -4   -0.60    9.90
  -3   3  -3  409.26   24.10
   3  -3   3  416.56   24.70
   2  -3   2   88.09   11.30
   2  -3   2   84.69    7.60
   1  -3   1  166.48   10.80
   1  -3   1  164.58    9.20
   1  -3   1  179.68    9.30
   0  -3   0   -0.20    2.90
   0  -3   0   -0.80    3.50
   0  -3   0    3.40    3.30
   1   3   1  191.88   12.10
  -1  -3  -1  185.18   10.50
  -1  -3  -1  167.38    9.70
  -2  -3  -2   75.69    8.70
   3   3   3  449.76   22.80
   4   3   4    7.50    6.20
   4   3   4    0.40    5.80
   4   3   4   -5.60    8.70
   4   3   4   -0.50    5.70
  -4  -3  -4   -1.50    5.60
   5   3   5   73.59   10.60
   5   3   5   86.89    9.90
  -5  -3  -5   62.19   10.70
   6   3   6  132.79   10.90
   6   3   6  147.89   12.70
   6   3   6  127.19   11.80
  -6  -3  -6  104.29   12.40
   7   3   7   32.60    6.60
   7   3   7   26.00    6.30
   7   3   7   34.20    5.20
  -7  -3  -7   19.70    6.00
   8   3   8   28.10    6.80
   8   3   8   24.30    4.10
  -8  -3  -8   28.30    6.00
  -8   3  -7  110.09   11.50
  -8   3  -7  114.59    8.90
   8  -3   7  108.39   14.90
  -7   3  -6   15.50    7.40
  -7   3  -6   17.30    5.90
   7  -3   6   23.20    8.10
  -6   3  -5  265.87   19.40
  -6   3  -5  272.07   15.10
   6  -3   5  230.88   16.90
  -5   3  -4  112.19   18.30
  -5   3  -4  113.59   11.20
  -4   3  -3  116.59   19.40
  -4   3  -3  145.89   12.30
   3  -3   2   68.39   13.30
   3  -3   2   79.89    9.50
   2  -3   1  525.15   22.60
   2  -3   1  491.45   21.80
   1  -3   0  599.44   25.80
   1  -3   0  591.94   26.30
   1  -3   0  605.24   25.90
   0  -3  -1 1046.60   44.60
   0  -3  -1 1113.59   45.40
  -1  -3  -2  297.17   15.10
   2   3   3  204.88   14.70
  -2  -3  -3  195.78   13.50
   3   3   4   99.29   10.70
   3   3   4   78.59   11.00
   3   3   4   87.19   12.90
   3   3   4   96.39   11.10
   4   3   5  426.26   24.20
   4   3   5  349.37   20.60
   4   3   5  431.46   21.10
   4   3   5  441.26   20.90
  -4  -3  -5  404.76   21.30
   5   3   6   69.09   10.40
   5   3   6   75.79    9.90
   5   3   6   61.99    7.20
  -5  -3  -6   55.49    7.80
   6   3   7  105.09   10.50
   6   3   7   80.29   11.40
   6   3   7  109.09    9.60
  -6  -3  -7   78.89   11.40
   7   3   8   22.10    4.30
   7   3   8   27.00    6.70
   7   3   8   36.40    6.30
  -7  -3  -8   31.70    6.40
  -9   3  -7   49.50    9.10
  -9   3  -7   63.39    6.40
  -8   3  -6  149.39   13.20
  -8   3  -6  123.39   10.20
   8  -3   6  133.29   13.60
  -7   3  -5   11.50    5.90
  -7   3  -5   12.60    8.50
   7  -3   5   15.50    7.20
  -6   3  -4   69.09   11.50
  -6   3  -4   59.19    9.50
  -5   3  -3  298.27   16.90
  -5   3  -3  308.37   24.20
  -4   3  -2  245.88   16.00
   4  -3   2  260.27   16.20
   3  -3   1   67.89   11.60
   3  -3   1   71.39    8.30
   2  -3   0   82.09    8.80
   2  -3   0   93.09    6.90
   2  -3   0   91.99   10.80
   1  -3  -1 1594.14   66.19
   0  -3  -2  632.74   27.80
   1   3   3  569.34   25.90
  -1  -3  -3  524.35   25.10
   2   3   4  188.08   13.20
   2   3   4  186.38   13.00
  -2  -3  -4  165.68   14.30
   3   3   5  925.41   40.30
   3   3   5  959.10   40.20
   3   3   5  897.41   43.20
   3   3   5  937.91   39.90
  -3  -3  -5  842.62   40.30
   4   3   6   75.89   10.10
   4   3   6   60.69    9.20
   4   3   6   67.39    8.60
   4   3   6   46.90    6.90
  -4  -3  -6   66.69   10.90
   5   3   7  120.19   13.10
   5   3   7  157.98   11.40
   5   3   7  144.39   11.00
   5   3   7  125.89   11.70
  -5  -3  -7  130.19   13.40
   6   3   8   34.70    6.40
   6   3   8   47.80    7.00
   6   3   8   40.50    5.70
  -6  -3  -8   25.50    7.10
   7   3   9   38.80    5.20
   7   3   9   35.40    6.30
  -7  -3  -9   55.79    7.20
  -9   3  -6    2.80    6.40
  -9   3  -6    3.90    4.40
   9  -3   6    5.30    7.10
  -8   3  -5   22.20    8.00
  -8   3  -5   16.80    5.90
   8  -3   5   14.20    6.60
  -7   3  -4  126.39   17.40
  -7   3  -4  137.59   10.90
   7  -3   4  161.78   12.50
  -6   3  -3  465.25   25.30
  -6   3  -3  494.15   29.40
  -5   3  -2  184.18   12.40
  -5   3  -2  166.48   16.90
  -5   3  -2  184.68   22.70
   4  -3   1   15.00    5.80
   3  -3   0  317.57   17.30
   3  -3   0  313.87   15.80
   3  -3   0  299.47   14.60
   2  -3  -1  165.38    9.80
   2  -3  -1  174.78   10.10
   1  -3  -2  530.05   23.90
   1  -3  -2  521.25   23.40
   0   3   3  176.98   13.20
   0  -3  -3  191.88   11.40
   1   3   4  210.38   13.70
  -1  -3  -4  207.78   14.40
  -1  -3  -4  213.08   17.30
   2   3   5  112.79   10.70
   2   3   5  101.89   10.90
   2   3   5   94.19   10.00
   2   3   5   90.29   13.80
   3   3   6  363.46   20.00
   3   3   6  399.46   19.40
   3   3   6  339.67   18.80
   3   3   6  342.57   20.50
  -3  -3  -6  369.66   19.80
   4   3   7  152.28   13.80
   4   3   7  167.68   11.10
   4   3   7  165.28   12.80
   4   3   7  170.58   12.20
  -4  -3  -7  143.59   14.40
   5   3   8   86.69    9.20
   5   3   8  104.49   10.60
   5   3   8   71.49    9.90
  -5  -3  -8   99.09   12.50
   6   3   9   67.49    9.50
   6   3   9   69.99    6.40
  -6  -3  -9   51.79    9.10
  -9   3  -5    8.20    4.80
  -9   3  -5    7.10    7.20
   9  -3   5   20.60    6.70
  -8   3  -4  130.99   11.00
  -8   3  -4  148.69   17.10
   8  -3   4  151.58   12.00
  -7   3  -3    2.20   10.80
  -7   3  -3   25.80    6.00
  -7   3  -3   31.00    8.20
  -6   3  -2  163.58   11.90
  -6   3  -2  139.79   13.80
  -6   3  -2  162.18   22.50
  -5   3  -1  115.99   14.10
  -5   3  -1  126.59   11.50
   4  -3   0  146.49   11.40
   3  -3  -1  271.47   18.00
   3  -3  -1  280.97   14.50
   3  -3  -1  284.87   15.50
  -2   3   2  163.38   12.20
   2  -3  -2  177.68   10.10
   2  -3  -2  156.98   10.30
  -1   3   3  234.38   13.50
   1  -3  -3  205.68   12.50
   0   3   4  174.18   12.30
   0  -3  -4  163.48   12.50
   1   3   5  245.08   14.00
   1   3   5  238.18   15.60
   1   3   5  236.58   17.00
   1   3   5  210.48   16.90
  -1  -3  -5  249.08   17.80
   2   3   6   30.60    8.10
   2   3   6   15.40    5.90
   2   3   6   25.00    6.00
  -2  -3  -6   13.50    7.10
   3   3   7   53.79    8.20
   3   3   7   27.60    6.70
   3   3   7   41.20    6.40
   3   3   7   35.50    5.50
  -3  -3  -7   43.70    7.80
   4   3   8  278.77   17.90
   4   3   8  302.07   16.70
   4   3   8  294.07   15.40
   4   3   8  288.77   16.20
  -4  -3  -8  279.77   18.20
   5   3   9   25.80    5.80
   5   3   9   23.20    4.50
  -5  -3  -9   25.30    7.70
 -10   3  -5   77.79   12.40
 -10   3  -5   93.09    8.00
  10  -3   5   73.49    9.60
  -9   3  -4   32.20    8.60
  -9   3  -4   27.20    6.70
   9  -3   4   30.40    6.30
  -8   3  -3  151.98   14.40
  -8   3  -3  177.38   19.50
  -8   3  -3  172.98   11.70
  -7   3  -2   83.69   11.40
  -7   3  -2   76.59    9.40
  -6   3  -1  224.68   13.60
  -6   3  -1  212.68   14.80
  -5   3   0  258.57   15.50
  -5   3   0  258.87   15.90
   4  -3  -1   27.00    5.50
   4  -3  -1   22.30    5.30
   3  -3  -2  118.89    9.60
   3  -3  -2  121.89    9.00
  -2   3   3  105.19    9.80
   2  -3  -3  123.19    9.80
   2  -3  -3  103.99    9.10
  -1   3   4  215.18   12.70
   1  -3  -4  190.68   13.10
   0   3   5   39.90    7.20
   0   3   5   39.10    5.60
   0   3   5   37.90    9.00
   0   3   5   50.19    6.70
   1   3   6   12.40    6.00
   1   3   6   -1.30    4.80
   1   3   6   10.80    5.70
   1   3   6   18.50    7.90
  -1  -3  -6   22.20    8.80
   2   3   7   63.19    8.80
   2   3   7   64.99    7.80
   2   3   7   72.69   10.10
   2   3   7   56.99    8.90
  -2  -3  -7   55.39    8.90
   3   3   8   -4.20    4.80
   3   3   8   13.20    4.40
   3   3   8    8.90    8.30
   3   3   8    3.00    8.40
   4   3   9  -11.80   16.50
   4   3   9   13.70    7.50
   4   3   9   11.70    5.80
  -4  -3  -9    2.90    7.70
   5   3  10   15.40    3.80
   5   3  10   24.50    5.40
 -10   3  -4   77.79   10.00
 -10   3  -4   66.69    8.10
  10  -3   4   63.49    9.20
  -9   3  -3   57.19    8.40
  -9   3  -3   63.79    9.30
  -9   3  -3   67.89   14.40
   9  -3   3   71.09    9.00
  -8   3  -2   22.60    6.30
  -8   3  -2    8.10   12.00
  -8   3  -2   13.40    5.50
  -7   3  -1   86.99   12.00
  -7   3  -1   55.79    7.50
  -6   3   0   71.29    9.30
  -6   3   0   77.09   10.50
  -5   3   1  108.79   11.20
  -5   3   1  114.79   10.70
   4  -3  -2   60.39    9.30
   4  -3  -2   55.99    8.60
  -3   3   3  697.53   30.80
   3  -3  -3  696.63   30.60
   3  -3  -3  685.13   31.30
  -2   3   4   90.39    9.70
   2  -3  -4  100.49   10.80
   2  -3  -4   80.59   10.00
  -1   3   5  329.47   17.20
  -1   3   5  308.67   19.30
  -1   3   5  328.57   17.30
   0   3   6  106.59   10.10
   0   3   6   76.29    9.80
   0   3   6   95.39   13.40
   0   3   6  114.09   10.50
   1   3   7  249.88   15.50
   1   3   7  242.18   17.40
   1   3   7  253.77   18.70
   1   3   7  264.77   14.60
  -1  -3  -7  215.78   20.10
   2   3   8   45.10    6.60
   2   3   8   68.69    8.00
   2   3   8   40.60    9.00
   2   3   8   47.60    7.50
  -2  -3  -8   48.00    9.60
   3   3   9   64.79    7.70
   3   3   9   52.99    8.20
   3   3   9   64.19    9.60
  -3  -3  -9   43.40    9.30
   4   3  10   25.60    4.70
   4   3  10   20.80    5.40
  -4  -3 -10   46.00   10.50
 -11   3  -4    2.20    5.00
  11  -3   4    6.40    5.60
 -10   3  -3   55.19    8.40
  10  -3   3   52.69    8.50
  -9   3  -2   63.59    9.00
  -9   3  -2   68.49   10.10
  -8   3  -1  122.09   10.60
  -8   3  -1  106.89   10.40
  -7   3   0   26.30    5.90
  -7   3   0   19.40    5.50
  -6   3   1   35.80    6.00
  -6   3   1   36.90    6.20
  -5   3   2   84.59   10.20
  -5   3   2   77.59    9.80
  -4   3   3   20.50    5.80
  -4   3   3   23.20    6.50
   4  -3  -3   17.60    6.20
  -3   3   4  238.08   15.00
  -3   3   4  241.48   13.90
  -3   3   4  251.37   15.20
   3  -3  -4  211.08   14.70
  -2   3   5  123.89   13.00
  -2   3   5  124.69   12.60
  -2   3   5  115.99   11.40
  -2   3   5  135.89   11.80
  -1   3   6  280.37   18.10
  -1   3   6  302.27   16.20
  -1   3   6  296.17   16.10
  -1   3   6  299.17   17.00
   0   3   7   23.80    7.60
   0   3   7   18.80    6.00
   0   3   7   13.30    4.90
   0   3   7   21.70    6.00
   1   3   8  277.77   15.70
   1   3   8  274.97   14.60
   1   3   8  253.87   18.50
   1   3   8  274.47   16.50
   2   3   9   59.49    8.90
   2   3   9   64.59    9.80
   2   3   9   71.09    7.70
  -2  -3  -9   91.09   11.40
   3   3  10   59.49    9.00
   3   3  10   58.29    7.20
  -3  -3 -10   63.99   13.70
   4   3  11   45.50    5.40
   4   3  11   56.19    8.00
  -4  -3 -11   69.59    7.30
 -11   3  -3    4.00    5.20
  11  -3   3   -0.60    4.80
 -10   3  -2  119.09   10.70
 -10   3  -2  133.39   10.40
  -9   3  -1    3.40    5.50
  -9   3  -1    6.10    5.40
  -8   3   0  307.27   17.00
  -8   3   0  333.27   17.00
  -7   3   1   63.39    8.90
  -7   3   1   73.79    9.00
  -6   3   2  284.07   15.10
  -6   3   2  287.37   15.10
  -6   3   2  253.47   15.90
  -5   3   3   50.89    6.30
  -5   3   3   53.19    6.40
   5  -3  -3   49.20    9.70
  -4   3   4  369.66   19.70
  -4   3   4  385.86   19.30
  -3   3   5  403.16   20.50
  -3   3   5  394.06   20.80
  -3   3   5  411.06   20.90
  -2   3   6   -2.60    4.90
  -2   3   6    8.20    5.60
  -2   3   6    6.10    4.90
  -2   3   6   20.30    6.60
  -1   3   7   86.29   10.10
  -1   3   7   76.59   12.60
  -1   3   7   87.69   10.40
   0   3   8   12.50    5.90
   0   3   8   11.90    8.30
   0   3   8    0.00    5.20
   1   3   9   44.70    6.60
   1   3   9   50.89    7.30
   1   3   9   46.30    7.20
   2   3  10  136.19   10.80
   2   3  10  126.49    9.80
   3   3  11    4.90    5.10
   3   3  11   -4.60    3.40
  -3  -3 -11    2.80    4.40
 -11   3  -2   27.40    5.70
  11  -3   2   24.90    5.20
 -10   3  -1   91.49   10.00
  -9   3   0   37.40    5.80
  -9   3   0   30.90    6.10
  -8   3   1  144.99   11.20
  -8   3   1  169.18   11.30
  -7   3   2  412.06   19.50
  -7   3   2  391.46   19.40
  -7   3   2  397.86   19.90
  -6   3   3  176.68   12.50
  -6   3   3  172.28   11.90
  -6   3   3  176.38   11.50
   6  -3  -3  166.08   14.20
  -5   3   4   77.69    9.20
  -5   3   4   54.29    9.00
  -5   3   4   75.39   10.60
  -4   3   5  129.09   11.10
  -4   3   5  121.39   12.90
  -4   3   5   96.49   11.30
  -4   3   5  124.89   10.10
  -4   3   5  122.89   11.30
  -3   3   6  285.27   17.00
  -3   3   6  323.37   16.60
  -3   3   6  312.07   17.00
  -3   3   6  318.77   17.00
  -2   3   7   22.00    7.00
  -2   3   7   31.10    5.10
  -2   3   7   23.90    5.60
  -2   3   7   31.90    5.70
  -1   3   8    4.30    5.60
  -1   3   8   20.90    7.70
  -1   3   8    3.60    3.90
  -1   3   8    3.30    5.20
   0   3   9   87.19    9.70
   0   3   9   75.29    8.00
   1   3  10   42.80    6.60
   1   3  10   36.20    6.00
   2   3  11   71.49    9.10
   2   3  11   82.59    8.40
  -2  -3 -11   86.69    7.60
 -11   3  -1    9.40    5.60
  11  -3   1   16.30    4.90
 -10   3   0   85.69    8.50
 -10   3   0   95.39   10.10
  -9   3   1  234.68   13.20
  -9   3   1  221.78   13.80
  -8   3   2   73.49    8.60
  -8   3   2   79.89    8.90
  -7   3   3  301.27   17.40
  -7   3   3  298.17   15.80
  -6   3   4  357.16   17.90
  -6   3   4  350.46   18.00
  -6   3   4  360.56   18.00
   6  -3  -4  347.47   18.30
  -5   3   5  708.33   33.00
  -5   3   5  741.43   32.60
  -5   3   5  763.02   32.70
  -4   3   6   20.70    5.10
  -4   3   6   14.10    5.90
  -4   3   6   19.70    5.60
  -4   3   6   17.20    5.90
  -4   3   6   12.40    5.20
  -3   3   7  255.67   15.50
  -3   3   7  263.17   14.00
  -3   3   7  249.48   15.60
  -3   3   7  241.28   18.40
  -2   3   8   51.19    6.30
  -2   3   8   47.60    7.50
  -2   3   8   42.70    6.80
  -2   3   8   50.19    8.20
  -1   3   9   76.69    7.50
  -1   3   9   84.19   12.00
  -1   3   9   67.39    9.30
   0   3  10   36.70    5.70
   0   3  10   34.30    6.20
   1   3  11   16.70    4.10
   1   3  11   25.70    5.70
  -1  -3 -11   11.70    4.50
  12  -3   1   45.10    5.20
 -11   3   0    6.10    4.30
 -11   3   0    4.50    5.40
 -10   3   1   12.70    4.80
 -10   3   1   14.00    5.40
  -9   3   2   45.90    6.40
  -9   3   2   46.30    5.80
  -8   3   3   41.60    5.60
  -8   3   3   53.39    7.80
  -8   3   3   49.60    6.40
  -7   3   4  115.59    9.70
  -7   3   4   99.59    9.90
  -7   3   4   99.79    9.30
   7  -3  -4  119.29   11.60
  -6   3   5   57.79    8.90
   6  -3  -5   58.39    9.00
  -5   3   6  106.69   12.40
  -5   3   6  105.49   10.20
  -5   3   6  106.39   13.10
  -4   3   7  104.49   12.10
  -4   3   7  126.29    9.70
  -4   3   7  110.99   11.10
  -4   3   7  124.49   10.50
  -4   3   7  110.19   10.60
  -3   3   8  260.17   15.60
  -3   3   8  246.48   16.90
  -3   3   8  236.88   13.60
  -3   3   8  247.38   14.60
  -2   3   9   31.30    5.60
  -2   3   9   34.30    8.30
  -2   3   9   30.40    4.40
  -1   3  10  114.89   10.70
  -1   3  10   92.59    9.30
   1  -3 -10   82.39    9.40
   0   3  11   44.10    6.50
   0   3  11   42.40    6.60
   0  -3 -11   43.60    5.10
   1   3  12   36.80    6.10
   1   3  12   45.70    5.10
  -1  -3 -12   44.50    5.60
  12  -3   0   85.39    7.80
 -11   3   1   -0.60    5.50
 -11   3   1    8.20    3.90
 -10   3   2  119.69   10.60
 -10   3   2  112.59    9.30
  -9   3   3  122.09   10.50
  -9   3   3  133.29    9.80
  -8   3   4    4.30    4.70
  -8   3   4    8.40    4.60
  -8   3   4   11.20    5.20
   8  -3  -4   21.20    8.20
  -7   3   5  194.48   12.10
  -7   3   5  194.78   11.70
  -7   3   5  192.48   12.60
   7  -3  -5  194.38   12.90
  -6   3   6   16.40    5.10
  -6   3   6   13.50    5.10
  -6   3   6   21.00    5.60
   6  -3  -6   20.30    5.30
  -5   3   7  375.16   19.40
  -5   3   7  382.96   18.70
  -5   3   7  380.26   19.50
  -5   3   7  364.76   18.70
   5  -3  -7  388.16   20.20
  -4   3   8   41.50    6.40
  -4   3   8   40.90    5.90
  -4   3   8   45.00    5.30
  -4   3   8   51.49    7.30
  -4   3   8   40.90    7.70
   4  -3  -8   34.30    6.60
  -3   3   9  118.79   10.30
  -3   3   9  101.99    8.70
  -3   3   9  116.69   11.50
   3  -3  -9  116.69   10.20
  -2   3  10   37.20    5.70
  -2   3  10   48.20    7.30
   2  -3 -10   44.00    6.00
  -1   3  11   91.29   10.30
  -1   3  11   86.29    7.70
   1  -3 -11   93.99    7.80
   1  -3 -11   94.69    9.40
   0   3  12   91.49    6.80
   0   3  12   99.99    9.90
   0  -3 -12  105.59    6.90
 -11   3   2    4.20    3.60
 -11   3   2   10.30    5.90
 -10   3   3   77.79    9.70
 -10   3   3   81.19    8.10
  -9   3   4  154.98   10.80
  -9   3   4  159.88   10.40
  -9   3   4  170.68   11.70
  -8   3   5  133.79   10.90
  -8   3   5  149.69    9.90
  -8   3   5  135.89   10.30
   8  -3  -5  146.39   12.80
  -7   3   6   29.90    5.40
  -7   3   6   25.30    5.20
  -7   3   6   30.80    5.60
   7  -3  -6   46.90    6.30
  -6   3   7   29.80    5.40
  -6   3   7   37.50    5.50
  -6   3   7   22.00    6.10
   6  -3  -7   35.00    6.00
  -5   3   8   93.49   10.10
  -5   3   8   89.39    9.10
  -5   3   8  115.89   12.60
   5  -3  -8  100.29    9.40
   5  -3  -8   99.89   10.30
  -4   3   9   20.70    5.00
  -4   3   9   17.00    5.40
  -4   3   9   22.50    6.50
   4  -3  -9   19.30    4.90
  -3   3  10    8.00    5.90
  -3   3  10   10.70    4.80
   3  -3 -10    8.80    4.70
  -2   3  11   13.30    6.10
  -2   3  11   20.70    4.40
   2  -3 -11   25.40    5.50
   2  -3 -11   19.40    4.10
  -1   3  12    8.50    3.40
  -1   3  12    8.30    5.90
  -1   3  12    7.20    3.40
   1  -3 -12   10.00    3.30
   1  -3 -12   19.60    7.10
 -12   3   2    4.10    3.70
 -11   3   3  106.79   11.40
 -11   3   3  120.19    8.10
 -10   3   4   71.39    7.80
 -10   3   4   71.79    9.70
  -9   3   5  120.89    9.00
  -9   3   5  132.79   10.70
  -9   3   5  126.19    9.90
   9  -3  -5  112.99   14.70
  -8   3   6   24.00    4.90
  -8   3   6   32.10    5.30
  -8   3   6   39.60    6.10
   8  -3  -6   25.70    6.00
  -7   3   7  185.68   11.00
  -7   3   7  171.38   11.40
  -7   3   7  169.48   11.80
   7  -3  -7  148.19   11.30
  -6   3   8   18.00    6.70
  -6   3   8    9.80    4.90
  -6   3   8   15.10    4.80
   6  -3  -8   13.90    6.50
   6  -3  -8   12.20    4.70
  -5   3   9   60.19    7.60
  -5   3   9   60.39    8.80
   5  -3  -9   42.50    5.80
   5  -3  -9   46.50    6.10
  -4   3  10   94.39    8.20
  -4   3  10   87.69    9.40
   4  -3 -10   73.29    8.60
   4  -3 -10   84.29    8.70
  -3   3  11   67.89    6.70
  -3   3  11   68.89    7.30
  -3   3  11   61.29    9.90
   3  -3 -11   58.89    7.10
   3  -3 -11   55.49    7.70
  -2   3  12   73.69    6.70
  -2   3  12   71.29    6.00
   2  -3 -12   79.69    9.10
   2  -3 -12   84.09    6.40
 -12   3   3   30.00    4.30
 -11   3   4   59.69    6.40
 -10   3   5   13.50    5.60
 -10   3   5   10.20    3.90
 -10   3   5   11.60    4.30
  -9   3   6  210.38   12.10
  -9   3   6  226.38   12.90
   9  -3  -6  238.38   14.90
  -8   3   7   17.30    5.60
  -8   3   7   25.50    5.50
  -8   3   7   25.70    4.60
   8  -3  -7   23.40    5.50
  -7   3   8   30.60    6.60
  -7   3   8   19.90    4.70
  -7   3   8   14.90    5.10
   7  -3  -8   19.40    5.10
  -6   3   9    9.10    5.00
  -6   3   9    3.70    4.30
   6  -3  -9   10.00    4.30
   6  -3  -9    5.60    5.70
  -5   3  10   50.69    8.10
  -5   3  10   53.79    6.70
   5  -3 -10   51.39    7.80
   5  -3 -10   60.69    7.20
  -4   3  11   24.20    3.90
  -4   3  11   26.40    4.60
   4  -3 -11   27.30    4.30
   4  -3 -11   29.00    5.00
  -3   3  12   11.10    3.70
  -3   3  12    7.10    3.00
   3  -3 -12    4.10    3.30
   3  -3 -12    2.90    5.20
 -12   3   4   28.40    4.10
 -11   3   5   19.30    4.00
 -10   3   6   -5.00    5.50
 -10   3   6    5.40    3.60
 -10   3   6    1.50    4.20
  -9   3   7   93.19    7.20
  -9   3   7   90.09   10.40
  -9   3   7   86.69    9.20
   9  -3  -7  105.49   10.90
  -8   3   8    0.10    3.60
  -8   3   8    6.50    5.00
  -8   3   8   19.20    5.90
   8  -3  -8    6.50    4.70
  -7   3   9   62.29    6.60
  -7   3   9   74.19    8.50
   7  -3  -9   58.99    7.80
  -6   3  10   14.10    4.80
  -6   3  10   24.30    4.00
   6  -3 -10   22.50    4.40
   6  -3 -10   18.80    5.10
  -5   3  11   66.69    7.10
  -5   3  11   45.70    5.60
   5  -3 -11   46.10    7.10
   5  -3 -11   51.19    5.10
  -4   3  12    8.40    3.50
  -4   3  12   14.00    3.00
   4  -3 -12    9.70    3.60
   4  -3 -12    6.70    4.80
 -11   3   6  104.49    8.30
 -10   3   7  114.19   11.70
 -10   3   7  106.49    7.10
 -10   3   7  113.79    9.30
  10  -3  -7  109.29   14.20
  -9   3   8   61.69    5.90
  -9   3   8   60.29    9.20
  -9   3   8   69.19   10.40
  -8   3   9   11.90    3.30
  -8   3   9   18.50    5.10
   8  -3  -9   13.10    4.90
  -7   3  10  189.78   11.30
  -7   3  10  176.28    9.50
   7  -3 -10  169.38   10.90
  -6   3  11    3.80    3.90
  -6   3  11    0.60    2.90
   6  -3 -11    3.60    4.20
   6  -3 -11   -1.30    4.60
  -5   3  12   23.40    4.70
  -5   3  12   33.10    7.40
   5  -3 -12   32.40    4.20
   5  -3 -12   28.80    4.70
 -11   3   7   39.90    5.40
 -10   3   8    4.10    6.10
  10  -3  -8    2.00    7.40
  -9   3   9   56.59    5.50
  -9   3   9   55.39    6.60
   9  -3  -9   77.49    8.90
  -8   3  10    9.60    3.10
  -8   3  10    3.00    8.70
   8  -3 -10   15.40    5.00
  -7   3  11   15.70    4.60
  -7   3  11   15.70    3.00
   8   4  -9   86.99    7.60
   8   4  -9   91.99    7.30
   9   4  -8   40.30    9.40
   9   4  -8   36.30    4.50
   9   4  -8   26.70    3.90
   6   4 -10   33.00    5.40
   6   4 -10   31.60    4.70
   7   4  -9   17.10    3.70
   7   4  -9   22.90    4.20
   8   4  -8  126.19    9.20
   8   4  -8  115.79    8.60
   8   4  -8  120.39   13.50
   9   4  -7   14.20    4.00
   9   4  -7   15.50    3.50
   9   4  -7    6.60    6.50
  10   4  -6   55.59    6.90
  10   4  -6   33.90    5.40
  10   4  -6   39.00    6.30
   4   4 -11   32.90    6.60
   4   4 -11   36.60    5.20
   5   4 -10    5.30    4.90
   5   4 -10    3.70    3.20
   6   4  -9   65.59    7.20
   6   4  -9   59.19    7.80
   7   4  -8  105.99    8.50
   7   4  -8   73.69   17.50
   7   4  -8   96.09    8.80
   8   4  -7   54.79    7.80
   8   4  -7   64.99    8.80
   8   4  -7   63.99    7.80
   9   4  -6   59.79    7.80
   9   4  -6   65.49   11.90
   9   4  -6   78.59    9.90
   9   4  -6   68.19   10.40
   9   4  -6   74.59    6.30
  10   4  -5   65.29    9.40
  10   4  -5   67.29    7.80
  10   4  -5   53.39    6.00
  11   4  -4    5.00    3.30
  11   4  -4   11.80    5.10
   3   4 -11   18.70    3.50
   4   4 -10   31.00    4.20
   4   4 -10   51.39    6.30
   5   4  -9    8.50    4.80
   5   4  -9   -0.10    3.50
   5   4  -9   -2.00    7.60
   6   4  -8   78.69    8.90
   6   4  -8   85.09    8.70
   7   4  -7   20.20    5.00
   7   4  -7    6.70    7.30
   7   4  -7   15.30    7.60
   8   4  -6  149.59   12.60
   8   4  -6  165.18   11.20
   8   4  -6  179.88   12.00
   9   4  -5   16.90    7.20
   9   4  -5   22.20    4.10
   9   4  -5   24.00    4.80
   9   4  -5   27.80    6.20
  10   4  -4   82.19   11.00
  10   4  -4   73.39    6.30
  10   4  -4   62.39    9.00
  11   4  -3   40.60    5.00
  11   4  -3   27.50    5.70
 -11  -4   3   29.70    8.20
   2   4 -11   20.10    3.50
   3   4 -10   38.90    6.40
   3   4 -10   42.20    7.40
   3   4 -10   22.80    7.10
   4   4  -9   88.59   10.20
   4   4  -9   73.69   11.50
   4   4  -9   95.99    8.70
   5   4  -8   -0.20   11.00
   5   4  -8   -2.20    4.60
   5   4  -8    6.80    5.30
   6   4  -7   75.29   12.60
   6   4  -7   83.89    9.50
   6   4  -7  102.29   10.00
   6   4  -7   86.09   10.20
   7   4  -6   76.29    9.40
   7   4  -6   73.49   11.40
   7   4  -6   54.79    8.40
   7   4  -6   67.69    9.50
   8   4  -5  117.49   16.10
   8   4  -5  131.29   10.50
   8   4  -5  136.39   11.60
   9   4  -4    5.30    6.40
   9   4  -4    9.00    4.80
   9   4  -4   14.90    4.20
   9   4  -4    7.40    5.30
  10   4  -3    0.20    3.50
  10   4  -3    2.60    5.70
  10   4  -3    7.00    4.90
  11   4  -2   28.40    5.70
  11   4  -2   34.60    4.90
 -11  -4   2   20.40    7.30
   1   4 -11   19.90    3.90
   1   4 -11   19.30    6.90
   2   4 -10   35.10    4.70
   2   4 -10   34.20    6.70
   3   4  -9   26.50    5.50
   3   4  -9   29.20    7.30
   3   4  -9   22.50    7.00
   4   4  -8  141.59   11.10
   4   4  -8  144.69   12.30
   4   4  -8  132.89   13.40
   5   4  -7   37.20   10.30
   5   4  -7   36.00    6.50
   5   4  -7   27.40    6.90
   5   4  -7   24.00    4.90
   6   4  -6  537.65   25.00
   6   4  -6  542.75   25.10
   6   4  -6  523.25   26.00
   6   4  -6  495.95   26.10
   7   4  -5   36.30    6.60
   7   4  -5   33.40    5.90
   7   4  -5   28.60    5.90
   7   4  -5   21.30    7.10
   8   4  -4  131.29   11.10
   8   4  -4  140.69   12.30
   8   4  -4  118.89   13.80
   8   4  -4  119.49    9.30
   8   4  -4  131.99   10.70
   9   4  -3   63.29   10.30
   9   4  -3   77.99   12.20
  10   4  -2   67.09    9.00
  10   4  -2   61.69    6.60
  10   4  -2   63.69    8.20
  11   4  -1   25.80    5.70
  11   4  -1   13.20    3.40
 -11  -4   1   15.60    6.80
   0   4 -11   23.80    6.20
   0   4 -11    9.90    4.70
   1   4 -10   15.40    5.70
   2   4  -9   27.30    9.80
   2   4  -9   50.89    8.80
   2   4  -9   30.10    5.20
   3   4  -8   21.80    7.60
   3   4  -8   19.50    5.70
   3   4  -8   25.80    7.10
   4   4  -7  146.79   11.30
   4   4  -7  138.19   13.50
   4   4  -7  146.29   12.60
   5   4  -6   -2.70    6.20
   5   4  -6   24.90    8.90
   5   4  -6    1.70    4.70
   5   4  -6   -3.40    6.10
   6   4  -5   34.50    6.20
   6   4  -5   27.40    7.10
   6   4  -5   24.90    5.60
   6   4  -5   26.10    7.00
   7   4  -4   80.79   11.70
   7   4  -4  103.59   12.70
   7   4  -4   89.19   10.70
   7   4  -4   93.49   10.00
   8   4  -3   51.89    7.50
   8   4  -3   50.69    7.80
   8   4  -3   64.89    9.10
   8   4  -3   53.19    7.90
   8   4  -3   54.09    9.00
   9   4  -2   10.00    7.10
   9   4  -2   12.10    5.60
   9   4  -2   16.20    4.50
  10   4  -1   -0.10    5.40
  10   4  -1    0.00    3.60
  10   4  -1    8.70    5.30
 -10  -4   1   13.30    5.90
  11   4   0   68.79    5.90
  11   4   0   74.59    8.40
 -11  -4   0   72.09   10.80
  -1   4 -11   39.60    5.80
   0   4 -10   28.30    5.00
   0   4 -10   18.70    5.70
   1   4  -9  112.39   10.60
   1   4  -9   91.49   15.70
   2   4  -8  137.49   15.60
   2   4  -8  154.08   13.40
   2   4  -8  140.59   12.30
   3   4  -7   11.80    7.10
   3   4  -7   16.40    7.30
   3   4  -7   28.00    6.00
   4   4  -6  419.26   21.10
   4   4  -6  411.96   22.30
   4   4  -6  393.66   24.20
   4   4  -6  406.46   20.50
   5   4  -5  134.49   11.50
   5   4  -5  140.99   13.00
   5   4  -5  130.79   11.70
   5   4  -5  142.99   13.80
   6   4  -4  354.26   19.00
   6   4  -4  370.16   20.60
   6   4  -4  353.16   19.90
   6   4  -4  383.96   19.10
   7   4  -3    0.70    6.50
   7   4  -3   -1.10    4.50
   7   4  -3   -3.90    5.20
   7   4  -3   -3.90    5.30
   7   4  -3    0.40    5.70
   8   4  -2   87.99   13.30
   8   4  -2   88.79   10.00
   8   4  -2   88.69    9.80
   8   4  -2   99.79   12.60
   8   4  -2   93.19    8.90
   9   4  -1   75.29   11.40
   9   4  -1   68.89    8.10
   9   4  -1   68.79    9.70
  10   4   0   16.90    4.00
 -10  -4   0   20.10    6.20
  11   4   1  106.79    7.80
  11   4   1   84.19    6.40
 -11  -4  -1  110.39   11.10
  -1   4 -10   60.99    9.80
  -1   4 -10   33.40    5.70
   0   4  -9   83.79   10.20
   1   4  -8   41.30    7.10
   2   4  -7  364.56   20.70
   2   4  -7  348.37   21.40
   2   4  -7  361.96   19.50
   3   4  -6   35.90    5.80
   3   4  -6   46.30    8.00
   3   4  -6   42.10    7.70
   4   4  -5  516.25   27.10
   4   4  -5  502.55   26.90
   4   4  -5  554.64   25.60
   4   4  -5  565.64   25.60
   5   4  -4   16.20    5.80
   5   4  -4   24.80    6.70
   5   4  -4   14.40    5.60
   5   4  -4   18.10    6.90
   6   4  -3  279.07   17.60
   6   4  -3  254.47   15.60
   6   4  -3  280.17   16.00
   6   4  -3  277.97   15.90
   7   4  -2    6.40    6.60
   7   4  -2    7.80    5.70
   7   4  -2    3.30    4.90
   7   4  -2    3.20    5.40
   7   4  -2    0.70    5.20
   8   4  -1   94.09   10.20
   8   4  -1   92.99   13.90
   8   4  -1   86.99    8.50
   8   4  -1   83.39    9.90
   9   4   0   34.10    5.50
   9   4   0   40.10    6.90
   9   4   0   32.70    7.10
  10   4   1    3.00    3.60
 -10  -4  -1   -1.00    5.90
  -2   4 -10    2.50    4.50
  -1   4  -9   12.80    5.80
  -1   4  -9   10.90    5.50
   0   4  -8  182.78   14.00
   0   4  -8  178.08   14.00
   1   4  -7   12.60    6.30
   1   4  -7   13.80    6.70
   2   4  -6  437.96   22.40
   2   4  -6  440.26   23.80
   2   4  -6  441.16   23.50
   3   4  -5  118.09   13.10
   3   4  -5  124.49   11.10
   4   4  -4  853.81   42.80
   4   4  -4  941.61   40.20
   5   4  -3    4.60    6.40
   5   4  -3   19.90    5.70
   5   4  -3   12.60    5.60
   5   4  -3   19.40    5.70
   6   4  -2  217.88   12.80
   6   4  -2  209.58   13.90
   6   4  -2  222.98   14.30
   6   4  -2  213.98   13.70
   6   4  -2  214.38   15.80
   7   4  -1   82.49    9.30
   7   4  -1   85.79   11.40
   7   4  -1   89.69   10.40
   7   4  -1   98.09   12.70
   7   4  -1   98.29   10.70
   8   4   0   46.40    5.70
   8   4   0   44.50    6.40
   8   4   0   27.70    7.80
   9   4   1   57.49    7.00
   9   4   1   44.80    8.80
  -9  -4  -1   56.69    7.10
  10   4   2   -2.30    3.60
 -10  -4  -2    2.40    5.90
  -3   4 -10   43.40    7.40
  -2   4  -9   19.70    5.60
  -1   4  -8   12.50    6.50
  -1   4  -8   20.90    9.40
  -1   4  -8   16.90    6.50
   0   4  -7   35.30    7.10
   0   4  -7   35.70    7.40
   1   4  -6    3.20    6.80
   1   4  -6   12.20    5.70
   2   4  -5  375.66   20.60
   2   4  -5  387.16   21.30
   2   4  -5  344.27   28.50
   3   4  -4   43.40    7.90
   3   4  -4   41.50    7.60
   3   4  -4   34.00    8.20
   3   4  -4   66.99    9.70
   4   4  -3  188.08   13.30
   4   4  -3  191.08   13.50
   4   4  -3  185.28   13.60
   4   4  -3  218.78   15.50
   5   4  -2   12.90    5.70
   5   4  -2    9.50    5.30
   6   4  -1  190.28   12.70
   6   4  -1  182.38   14.80
   6   4  -1  179.28   12.30
   6   4  -1  191.58   13.30
   6   4  -1  184.68   13.20
   7   4   0   19.60    5.20
   7   4   0   25.90    5.90
   7   4   0   26.90    6.70
   7   4   0   19.40    7.80
   8   4   1   37.90    7.60
   8   4   1   42.70    6.40
   8   4   1   31.70    5.40
   9   4   2   49.00    7.20
  -9  -4  -2   79.09   10.50
  10   4   3    4.50    3.50
  10   4   3   -0.20    4.10
 -10  -4  -3   11.40    6.20
  -4   4 -10   24.60    4.70
  -3   4  -9   64.59    7.40
  -3   4  -9   55.29    8.70
  -2   4  -8   39.80    7.10
  -2   4  -8   51.39    9.10
  -1   4  -7   80.19   11.50
  -1   4  -7   58.49    8.10
  -1   4  -7   89.39   15.10
   0   4  -6  315.47   19.10
   0   4  -6  299.27   18.10
   1   4  -5   31.10   10.50
   1   4  -5   19.10    6.00
   1   4  -5   21.40    7.50
   2   4  -4  245.08   14.80
   2   4  -4  212.78   16.70
   2   4  -4  227.38   16.60
   3   4  -3  247.38   17.30
   3   4  -3  267.37   16.00
   3   4  -3  251.37   16.10
   3   4  -3  252.17   15.20
   4   4  -2  344.37   18.30
   4   4  -2  365.56   18.40
   4   4  -2  365.76   20.20
   4   4  -2  313.87   18.30
   4   4  -2  348.77   18.50
   5   4  -1   20.50    6.00
   5   4  -1   16.80    6.00
   5   4  -1    6.70    5.20
   5   4  -1   18.00    6.10
   5   4  -1   15.10    7.40
   6   4   0  160.48   12.30
   6   4   0  143.29   11.70
   6   4   0  136.19   10.90
   6   4   0  152.68   14.50
   7   4   1   99.99   11.10
   7   4   1  112.19   12.50
   7   4   1  104.99   14.60
   7   4   1  109.09    9.70
   8   4   2   87.89   11.90
   8   4   2  108.19    9.10
  -8  -4  -2  100.69   11.50
   9   4   3   80.29    7.20
  -9  -4  -3   84.89   10.50
  10   4   4   61.19    5.60
  10   4   4   61.79    6.30
 -10  -4  -4   49.10    6.60
  -4   4  -9    9.90    5.40
  -4   4  -9    2.20    4.50
  -3   4  -8  136.89   11.90
  -3   4  -8  127.99   13.30
  -2   4  -7   31.60    8.50
  -2   4  -7   42.90    8.70
  -2   4  -7   46.30    8.70
  -2   4  -7   35.50    7.00
  -1   4  -6  368.46   21.00
  -1   4  -6  363.66   22.10
  -1   4  -6  354.26   20.30
   0   4  -5  226.38   15.20
   0   4  -5  220.38   16.70
   1   4  -4  194.88   13.40
   1   4  -4  167.08   18.40
   1   4  -4  175.88   14.90
   2   4  -3  249.38   17.90
   2   4  -3  272.27   18.30
   2   4  -3  297.17   17.70
   2   4  -3  288.97   16.20
   3   4  -2  129.19   12.40
   3   4  -2  105.39   13.50
   3   4  -2  105.59   11.30
   3   4  -2  111.39   10.80
   4   4  -1  115.49   10.50
   4   4  -1  122.69   13.00
   4   4  -1  107.49   11.40
   4   4  -1   97.89   11.80
   4   4  -1  115.09   10.50
   4   4  -1  114.69   17.90
   5   4   0  107.09   13.40
   5   4   0  108.59   11.30
   5   4   0  103.29   10.20
   5   4   0   95.39   11.20
   5   4   0  116.19   10.30
   6   4   1  270.37   17.80
   6   4   1  262.47   15.60
   6   4   1  238.88   14.20
   6   4   1  247.08   15.40
   7   4   2  329.87   19.90
   7   4   2  332.37   16.60
   7   4   2  324.37   18.40
  -7  -4  -2  277.97   23.80
   8   4   3  134.49    9.70
  -8  -4  -3  130.39   12.50
   9   4   4  140.99    9.20
   9   4   4  151.98    9.90
  -9  -4  -4  172.48   12.40
  -5   4  -9   66.29    8.00
  -5   4  -9   72.79    8.10
  -4   4  -8   51.79    9.20
  -4   4  -8   59.29    9.50
  -3   4  -7  101.49   15.00
  -3   4  -7  127.39   12.20
  -3   4  -7  116.29   12.80
  -2   4  -6  559.04   27.10
  -2   4  -6  551.34   28.00
  -2   4  -6  582.24   28.40
  -2   4  -6  490.05   31.10
  -1   4  -5  296.97   17.90
  -1   4  -5  295.87   22.70
  -1   4  -5  266.77   20.90
   0   4  -4  604.54   29.50
   0   4  -4  573.64   27.80
   1   4  -3  170.28   14.90
   1   4  -3  178.18   17.80
   1   4  -3  174.28   13.10
   2   4  -2  469.65   23.30
   2   4  -2  493.45   24.60
   2   4  -2  470.85   25.40
   2   4  -2  501.55   24.00
   3   4  -1   63.59    8.10
   3   4  -1   70.79    9.40
   3   4  -1  115.49   19.40
   3   4  -1   65.29    9.20
   3   4  -1   68.09    9.50
   4   4   0  154.28   11.40
   4   4   0  117.79   12.10
   4   4   0  123.29   10.90
   4   4   0  146.39   14.40
   4   4   0  139.49   11.90
   5   4   1  275.47   15.80
   5   4   1  266.27   15.00
   5   4   1  274.37   17.00
   6   4   2   46.40    6.50
   6   4   2   58.19    8.40
   6   4   2   46.40    9.20
   7   4   3  165.98   11.10
   7   4   3  158.28   14.40
  -7  -4  -3  155.18   13.20
   8   4   4   24.20    5.80
   8   4   4   12.90    4.70
  -8  -4  -4   19.70    5.80
   9   4   5  107.59    7.60
   9   4   5   94.79    6.90
  -9  -4  -5   96.19   11.30
  -5   4  -8   32.80    5.40
  -5   4  -8   24.40    5.70
  -4   4  -7  137.19   11.40
  -4   4  -7  105.49   16.60
  -4   4  -7  118.89   13.00
  -3   4  -6  275.67   18.40
  -3   4  -6  263.77   20.00
  -3   4  -6  250.97   16.40
  -2   4  -5  103.19   14.40
  -2   4  -5  131.69   17.10
  -2   4  -5  100.99   14.30
  -1   4  -4  110.49   12.50
  -1   4  -4   93.39   12.10
  -1   4  -4  108.79   13.90
   0   4  -3  525.15   27.30
   0   4  -3  528.55   25.30
   1   4  -2  231.78   17.70
   1   4  -2  230.78   14.20
   1   4  -2  195.38   17.20
  -1  -4   2  207.98   22.70
   2   4  -1  213.68   17.90
   2   4  -1  200.08   15.10
   2   4  -1  213.88   14.10
   2   4  -1  204.68   13.70
   3   4   0   64.59   10.70
   3   4   0   47.20    7.40
   3   4   0   39.80    6.20
   3   4   0   38.50    8.00
   3   4   0   33.80    5.80
   4   4   1  156.28   12.20
   4   4   1  156.78   11.90
   4   4   1  176.58   11.90
   4   4   1  174.98   15.10
   5   4   2  264.47   16.00
   5   4   2  298.37   16.50
   5   4   2  328.17   19.40
   6   4   3   42.90    6.30
   6   4   3   41.50    8.30
   6   4   3   45.10    6.10
  -6  -4  -3   58.79    7.70
   7   4   4  165.18   11.30
  -7  -4  -4  174.88   13.70
   8   4   5    2.30    3.70
   8   4   5    4.10    4.60
  -8  -4  -5   14.00    6.00
  -6   4  -8   23.00    5.00
  -6   4  -8   26.70    5.30
  -5   4  -7   22.70    6.20
  -5   4  -7   23.50    9.10
  -4   4  -6  126.49   14.90
  -4   4  -6  132.59   11.90
  -4   4  -6  122.29   18.40
  -3   4  -5   49.30    9.40
  -3   4  -5   47.70    9.70
  -3   4  -5   54.69    8.00
  -2   4  -4  444.36   24.70
  -2   4  -4  434.06   22.70
  -2   4  -4  415.46   23.00
  -1   4  -3  142.79   16.70
  -1   4  -3  147.69   15.40
  -1   4  -3  141.59   13.20
   0   4  -2  182.98   13.10
   0   4  -2  181.68   16.30
   0  -4   2  134.99   22.30
   1   4  -1   24.30    9.10
   1   4  -1   17.00    5.60
  -1  -4   1   25.00    9.10
   2   4   0  120.19   16.30
   2   4   0   82.29    9.00
   2   4   0   98.99   10.50
   2   4   0   90.89   15.50
   2   4   0  102.79   11.10
   3   4   1   54.09    9.30
   3   4   1   43.40    8.90
   3   4   1   37.20    5.80
   3   4   1   44.10    6.20
   4   4   2  207.68   17.10
   4   4   2  210.78   13.20
   4   4   2  201.98   13.40
   5   4   3   76.59   10.10
   5   4   3   82.59   15.30
   5   4   3   91.69    9.30
  -5  -4  -3   86.59   11.60
   6   4   4   13.30    5.80
   6   4   4   24.20    7.60
   7   4   5   83.49   10.10
   7   4   5   63.19    8.80
  -7  -4  -5   88.89   10.90
   8   4   6   34.70    4.90
   8   4   6   30.60    4.40
  -8  -4  -6   34.10    6.70
  -6   4  -7   13.90    5.40
  -6   4  -7   15.30    6.10
  -5   4  -6  164.58   12.00
  -5   4  -6  150.88   15.50
  -4   4  -5   99.29   15.30
  -4   4  -5   99.59   10.90
  -3   4  -4  569.24   32.00
  -3   4  -4  602.04   34.60
  -2   4  -3  145.69   15.00
  -2   4  -3  153.08   14.30
  -2   4  -3  182.38   16.80
  -1   4  -2  180.18   17.20
  -1   4  -2  198.58   14.40
   1  -4   2  187.48   27.60
   0   4  -1  276.97   16.10
   0   4  -1  253.07   20.20
   0  -4   1  258.57   20.90
   1   4   0  150.98   12.50
   1   4   0  158.48   18.90
  -1  -4   0  187.28   15.80
   2   4   1  237.48   18.10
   2   4   1  214.88   13.70
   2   4   1  195.68   16.90
   3   4   2   68.79    7.80
   3   4   2   59.59    9.00
   3   4   2   59.29    9.40
   3   4   2   63.99    9.20
   4   4   3  123.59   22.90
   4   4   3   89.59   10.10
   4   4   3  110.89   12.30
   4   4   3   83.39   12.00
   5   4   4  316.37   16.70
   5   4   4  276.27   22.10
   5   4   4  315.67   17.50
   5   4   4  294.97   20.30
   5   4   4  311.57   16.50
  -5  -4  -4  325.17   18.60
   6   4   5  107.49   11.20
   6   4   5  133.69   11.10
   6   4   5  107.29   15.80
   6   4   5  132.39   10.10
  -6  -4  -5  162.38   12.90
   7   4   6   45.60    6.00
   7   4   6   49.20    6.40
  -7  -4  -6   46.40    7.40
  -7   4  -7   58.39    7.10
  -7   4  -7   55.99    9.00
  -6   4  -6   42.10    9.60
  -5   4  -5   26.20    9.00
  -5   4  -5   25.90    6.40
  -4   4  -4  583.04   30.90
  -4   4  -4  574.64   27.40
  -3   4  -3  316.77   21.50
  -3   4  -3  323.47   17.80
  -2   4  -2  290.17   19.30
  -2   4  -2  297.17   18.40
  -2   4  -2  291.77   20.40
  -1   4  -1   32.50   10.00
  -1   4  -1   18.00    7.30
   0   4   0  951.60   40.50
   0  -4   0  893.81   41.10
   1   4   1   15.00    5.60
   1   4   1    9.70    8.40
   2   4   2  314.77   19.30
   2   4   2  316.47   22.80
   2   4   2  329.67   16.90
   3   4   3  319.77   17.80
   3   4   3  326.37   22.20
   3   4   3  341.17   17.60
   3   4   3  350.96   19.50
   3   4   3  383.26   22.60
   4   4   4  545.65   26.50
   4   4   4  586.14   25.80
   4   4   4  577.04   28.80
   4   4   4  558.74   25.80
   4   4   4  539.85   29.10
  -4  -4  -4  524.25   27.20
   5   4   5   33.00    6.60
   5   4   5   17.90    5.40
   5   4   5   27.90    8.80
  -5  -4  -5   32.30    7.90
   6   4   6   43.60    9.10
  -6  -4  -6   59.49    7.90
   7   4   7   68.29   10.80
   7   4   7   60.59    7.80
   7   4   7   45.10    5.70
  -7  -4  -7   57.39    8.00
  -7   4  -6   36.00    7.00
  -7   4  -6   48.80    7.40
  -6   4  -5  129.39   11.50
  -6   4  -5  154.88   15.90
  -5   4  -4  329.17   17.80
  -5   4  -4  328.87   22.30
  -4   4  -3   89.69   14.30
  -4   4  -3   89.89   13.80
  -3   4  -2   59.09   10.50
  -3   4  -2   61.99    7.70
  -2   4  -1  216.78   20.20
  -2   4  -1  235.48   16.70
  -2   4  -1  245.58   21.00
   1  -4   0  166.58   15.90
   0   4   1  281.87   16.20
   0   4   1  293.97   17.80
   0  -4  -1  254.07   18.30
   0  -4  -1  244.78   18.10
   1   4   2  215.18   15.80
   1   4   2  210.98   13.20
   2   4   3  160.48   13.70
   2   4   3  136.69   13.60
   2   4   3  159.38   20.70
   2   4   3  192.38   11.50
   2   4   3  178.18   15.60
   3   4   4  601.74   26.80
   3   4   4  557.74   27.70
   3   4   4  579.74   29.20
   3   4   4  576.54   26.70
   3   4   4  619.34   31.50
  -3  -4  -4  574.24   28.70
   4   4   5  106.29    9.70
   4   4   5   89.09    9.90
   4   4   5  108.19   10.90
   4   4   5  126.49   14.60
   4   4   5   99.09   17.10
  -4  -4  -5  107.29   13.50
   5   4   6  150.88   11.70
   5   4   6  154.98   10.90
   5   4   6  161.08   11.10
   5   4   6  158.08   14.20
  -5  -4  -6  150.38   14.10
   6   4   7   11.60    5.10
   6   4   7    9.90    3.90
   6   4   7   11.70    5.10
   6   4   7    2.20    7.60
  -6  -4  -7    9.30    7.30
  -8   4  -6   32.70    6.20
  -8   4  -6   35.80    4.80
  -7   4  -5   79.69   13.00
  -7   4  -5   59.79   10.90
  -6   4  -4   42.70    9.90
  -6   4  -4   35.90    6.30
   6  -4   4   54.19   11.00
  -5   4  -3   86.09   12.20
  -5   4  -3   98.99    9.90
  -4   4  -2  201.78   13.60
  -4   4  -2  231.18   20.80
  -4   4  -2  188.68   17.10
  -3   4  -1   44.20   11.40
  -3   4  -1   43.00    8.20
  -3   4  -1   48.70    7.40
  -2   4   0  119.89   13.60
  -2   4   0  137.39   14.10
  -1   4   1   21.20    7.30
  -1   4   1   18.70    6.10
   1  -4  -1    4.50    7.90
   1  -4  -1    1.30    8.50
   0   4   2  186.18   15.80
   0   4   2  193.18   12.80
   0   4   2  191.28   14.90
   0  -4  -2  157.88   17.80
   1   4   3  168.88   11.20
   1   4   3  147.69   16.20
   1   4   3  166.88   13.60
   2   4   4  444.76   22.80
   2   4   4  476.85   21.70
   2   4   4  446.76   22.10
   2   4   4  496.25   30.20
   2   4   4  424.56   23.70
  -2  -4  -4  440.26   24.80
   3   4   5   52.99    8.80
   3   4   5   31.20   11.40
   3   4   5   51.69    8.50
   3   4   5   39.60    6.30
   3   4   5   46.10    7.00
  -3  -4  -5   31.00    8.50
   4   4   6  129.59   10.90
   4   4   6  133.89   10.30
   4   4   6  111.69   10.40
   4   4   6  124.99   13.20
  -4  -4  -6  110.29   14.60
   5   4   7   16.90    7.10
   5   4   7   23.00    4.50
   5   4   7   28.60    6.00
   5   4   7   17.40    4.70
  -5  -4  -7    8.00    7.40
   6   4   8   20.40    7.40
   6   4   8   23.20    5.70
   6   4   8   27.60    3.90
  -6  -4  -8   22.30    7.70
  -8   4  -5   -8.70    6.60
  -8   4  -5    2.20    4.30
  -7   4  -4  171.78   11.60
  -7   4  -4  174.68   18.10
   7  -4   4  157.68   15.70
  -6   4  -3   62.29   11.50
  -6   4  -3   51.69    8.70
  -5   4  -2  298.77   16.70
  -5   4  -2  306.47   21.20
  -4   4  -1  140.79   11.60
  -4   4  -1  131.59   13.40
  -4   4  -1  140.29   15.00
  -3   4   0   45.40    7.10
  -3   4   0   38.90    7.30
  -2   4   1  177.18   14.60
  -2   4   1  206.28   13.70
   2  -4  -1  176.58   18.20
  -1   4   2  210.08   16.40
  -1   4   2  236.78   15.00
  -1   4   2  222.58   15.60
  -1   4   2  233.68   14.30
   0   4   3  595.34   26.40
   0   4   3  538.35   29.40
   0   4   3  584.64   29.00
   0   4   3  589.14   27.60
   1   4   4  126.59    9.90
   1   4   4   92.59   12.50
   1   4   4  131.09   12.20
   1   4   4  119.09   16.10
   1   4   4  141.89   13.00
   2   4   5  149.49   10.70
   2   4   5  141.09   12.40
   2   4   5  146.19   13.80
   2   4   5  132.79   11.60
  -2  -4  -5  116.69   17.00
   3   4   6  311.77   18.10
   3   4   6  257.87   15.40
   3   4   6  287.27   16.30
   3   4   6  269.67   15.40
  -3  -4  -6  274.07   19.60
   4   4   7  113.69   12.20
   4   4   7   90.29   11.20
   4   4   7  110.59    9.50
   4   4   7  134.89    9.50
  -4  -4  -7  136.39   14.70
   5   4   8   27.50    4.20
   5   4   8   25.10    5.90
   5   4   8   32.30    7.00
  -9   4  -5   73.79   12.30
  -9   4  -5   85.79    7.10
  -8   4  -4   25.70    8.30
  -8   4  -4   16.00    5.00
   8  -4   4   34.90    8.30
  -7   4  -3  159.18   19.40
  -7   4  -3  155.48   11.30
  -7   4  -3  136.19   15.60
  -6   4  -2   38.10    7.70
  -6   4  -2   33.70   11.70
  -6   4  -2   37.40    6.30
  -5   4  -1  279.57   17.10
  -4   4   0  136.39   11.60
  -4   4   0  142.89   11.90
  -3   4   1   84.59   10.90
  -3   4   1   65.69   10.60
  -2   4   2  494.45   24.10
  -2   4   2  476.95   23.60
  -2   4   2  500.55   24.10
  -1   4   3  190.78   12.40
  -1   4   3  183.88   14.60
  -1   4   3  186.38   13.50
  -1   4   3  160.48   14.60
   0   4   4  644.64   30.20
   0   4   4  657.53   28.90
   0   4   4  676.43   30.00
   0   4   4  602.44   30.70
   1   4   5  301.37   17.00
   1   4   5  323.67   18.40
   1   4   5  301.07   24.00
   1   4   5  332.87   17.10
   2   4   6  596.94   27.50
   2   4   6  620.04   27.80
   2   4   6  616.14   29.10
   2   4   6  618.14   28.60
  -2  -4  -6  571.24   32.00
   3   4   7  139.79   11.80
   3   4   7  148.79   12.70
   3   4   7  133.69   10.10
   3   4   7  123.79   10.30
  -3  -4  -7  137.19   16.30
   4   4   8   79.89   10.20
   4   4   8   68.89    7.00
   4   4   8   59.09    9.70
   4   4   8   57.29    7.10
  -4  -4  -8   57.99   10.30
   5   4   9   68.79    6.00
   5   4   9   68.19   10.30
   5   4   9   83.89   10.00
  -9   4  -4  152.28    9.30
   9  -4   4  126.79   13.70
  -8   4  -3   92.09   13.20
  -8   4  -3  120.09   17.00
  -8   4  -3  112.19    9.20
   8  -4   3  111.89   11.80
  -7   4  -2  291.27   26.10
  -7   4  -2  321.47   16.40
  -7   4  -2  300.17   17.60
  -6   4  -1  224.78   14.70
  -6   4  -1  231.18   13.50
  -5   4   0  104.59   10.80
  -5   4   0  103.99   10.00
  -4   4   1  104.79   11.00
  -4   4   1  115.99   10.50
  -3   4   2   92.09   15.50
  -3   4   2  107.09   10.70
  -3   4   2   99.39   10.90
  -2   4   3  284.17   16.50
  -2   4   3  296.47   17.00
  -2   4   3  326.17   17.20
  -2   4   3  309.97   16.40
  -1   4   4  205.08   14.60
  -1   4   4  189.48   14.00
  -1   4   4  173.08   12.00
  -1   4   4  210.68   13.40
   0   4   5  221.98   15.60
   0   4   5  267.27   16.20
   0   4   5  267.27   14.30
   0   4   5  255.17   16.60
   0   4   5  252.37   15.80
   1   4   6  467.85   21.60
   1   4   6  418.06   22.00
   1   4   6  440.56   22.50
   1   4   6  408.96   21.10
   2   4   7   37.00    5.90
   2   4   7   42.40    6.80
   2   4   7   55.89    9.30
   3   4   8  161.88   13.10
   3   4   8  151.28   12.20
   3   4   8  149.29    9.90
   3   4   8  135.09   10.30
   4   4   9    0.80    6.10
   4   4   9    7.80    3.70
 -10   4  -4   56.89    6.30
  -9   4  -3   77.09    7.80
   9  -4   3   86.59   11.20
  -8   4  -2   68.89   10.80
  -8   4  -2   79.99    8.70
  -7   4  -1  117.89    9.80
  -7   4  -1  117.59   11.20
  -6   4   0  134.19   10.60
  -6   4   0  129.79   11.10
  -5   4   1    5.00    5.20
  -5   4   1    9.40    5.40
  -4   4   2  373.86   18.90
  -4   4   2  359.56   18.60
  -3   4   3  245.28   16.30
  -3   4   3  270.17   15.30
  -3   4   3  274.97   14.90
  -2   4   4  260.07   15.10
  -2   4   4  267.67   16.50
  -2   4   4  270.07   15.80
  -2   4   4  292.77   16.50
  -1   4   5   19.90    6.20
  -1   4   5   24.40    6.60
  -1   4   5   29.10    5.20
  -1   4   5   20.90    6.80
  -1   4   5   31.40    7.00
   0   4   6  373.26   20.20
   0   4   6  345.27   18.90
   0   4   6  409.96   19.00
   0   4   6  342.27   19.40
   1   4   7   87.59   10.80
   1   4   7   79.39    9.50
   1   4   7   62.79    7.00
   1   4   7   86.79   10.60
   2   4   8   60.39    9.70
   2   4   8   61.29   10.20
   2   4   8   57.89    8.30
   2   4   8   64.59    7.50
   3   4   9   80.09   10.00
   3   4   9   61.09    7.60
   3   4   9   62.29    6.40
   3   4   9   81.99    9.40
   3   4   9   64.19    6.70
   4   4  10   20.00    6.20
   4   4  10   23.80    4.50
  -4  -4 -10   26.00    5.10
 -10   4  -3   -1.20    3.70
  10  -4   3   13.90    6.50
  -9   4  -2   55.09    7.00
  -9   4  -2   54.09    6.70
  -8   4  -1   53.59    8.20
  -8   4  -1   38.70    6.30
  -7   4   0   26.90    5.70
  -7   4   0   21.00    5.30
  -6   4   1  182.58   12.40
  -6   4   1  183.68   12.00
  -5   4   2   24.50    7.30
  -4   4   3  191.28   12.40
  -4   4   3  190.58   12.70
  -3   4   4   25.20    6.40
  -3   4   4   45.30    6.70
  -3   4   4   40.30    5.70
  -2   4   5  423.06   21.60
  -2   4   5  420.26   21.60
  -2   4   5  430.26   20.70
  -2   4   5  385.86   21.30
  -1   4   6    1.30    5.70
  -1   4   6   10.60    6.30
  -1   4   6   11.60    5.50
  -1   4   6    8.20    6.70
   0   4   7   36.60    7.00
   0   4   7   32.50    6.60
   0   4   7   43.30    6.00
   1   4   8   24.00    6.40
   1   4   8   10.10    4.90
   1   4   8   13.20    4.20
   1   4   8    7.80    6.10
   2   4   9   26.00    6.20
   2   4   9    9.50    4.30
   2   4   9   12.50    6.40
   2   4   9   19.70    3.60
   3   4  10   62.69    8.90
   3   4  10   50.99    5.60
   3   4  10   71.69   10.60
 -10   4  -2    3.20    4.10
  10  -4   2   -0.30    5.80
  -9   4  -1   53.19    8.30
  -9   4  -1   63.69    7.80
  -8   4   0   32.20    5.40
  -8   4   0   32.10    5.70
  -7   4   1   90.69    8.50
  -7   4   1   70.29    9.00
  -6   4   2  216.48   12.90
  -6   4   2  211.88   13.00
  -5   4   3   16.00    5.30
  -5   4   3   14.90    4.90
  -4   4   4  853.91   41.40
  -3   4   5  119.79   11.80
  -3   4   5  136.79   11.50
  -3   4   5  141.49   12.50
  -3   4   5  133.59   10.40
  -2   4   6  502.95   24.90
  -2   4   6  475.85   23.80
  -2   4   6  484.75   24.60
  -2   4   6  484.35   23.70
  -2   4   6  556.64   24.30
  -1   4   7   11.50    6.70
  -1   4   7    5.40    5.30
  -1   4   7   15.50    5.90
  -1   4   7   29.30    6.10
   0   4   8  201.38   12.40
   0   4   8  212.58   14.00
   0   4   8  201.98   12.60
   0   4   8  228.48   14.30
   1   4   9   14.60    6.20
   1   4   9   11.80    4.30
   1   4   9    2.70    4.80
   1   4   9    7.50    5.60
   2   4  10    3.00    3.40
   2   4  10    0.40    5.20
   2   4  10  -11.80    7.40
 -10   4  -1   -2.10    4.80
 -10   4  -1    3.80    3.90
  -9   4   0   38.10    5.70
  -8   4   1   95.09    9.00
  -8   4   1  101.59    9.10
  -7   4   2    6.50    4.70
  -7   4   2    2.10    4.40
  -6   4   3  287.07   15.10
  -6   4   3  260.87   14.90
  -5   4   4   16.30    5.40
  -5   4   4   20.40    5.10
  -4   4   5  589.74   27.70
  -4   4   5  611.24   28.30
  -4   4   5  595.24   27.30
  -3   4   6   56.79    9.50
  -3   4   6   49.90    6.50
  -3   4   6   66.69   10.00
  -3   4   6   52.09    7.40
  -3   4   6   73.29   10.10
  -2   4   7  391.16   20.00
  -2   4   7  399.66   20.10
  -2   4   7  406.26   21.00
  -2   4   7  422.96   21.70
  -2   4   7  406.26   20.10
  -1   4   8   64.09   10.00
  -1   4   8   48.00    5.90
  -1   4   8   66.29   10.20
  -1   4   8   61.39    9.50
  -1   4   8   61.69    8.40
   0   4   9   72.29    7.60
   0   4   9  109.89   10.30
   0   4   9   89.99   11.00
   1   4  10   34.90    4.40
   1   4  10   50.89    6.50
   1   4  10   49.40    7.70
 -11   4  -1   91.49    7.80
  11  -4   1   92.99    9.00
 -10   4   0   12.00    4.30
 -10   4   0   19.40    4.70
  -9   4   1   91.59    8.40
  -9   4   1   81.59    8.70
  -8   4   2   97.19    8.80
  -8   4   2   85.09    8.50
  -7   4   3    5.60    4.90
  -7   4   3    2.00    4.60
  -6   4   4  383.86   18.90
  -6   4   4  390.36   19.00
   6  -4  -4  358.26   21.30
  -5   4   5  156.88   10.80
  -5   4   5  148.19   11.10
  -4   4   6  400.86   22.10
  -4   4   6  443.96   21.30
  -4   4   6  465.85   21.40
  -4   4   6  454.25   21.80
  -3   4   7   42.90    5.80
  -3   4   7   31.10    6.60
  -3   4   7   34.70    6.80
  -3   4   7   28.50    5.70
  -2   4   8  142.89   10.50
  -2   4   8  160.58   11.00
  -2   4   8  162.08   12.30
  -2   4   8  154.18   12.60
  -2   4   8  166.58   12.00
  -1   4   9   79.89   11.40
  -1   4   9  103.99   10.30
  -1   4   9  115.49    9.80
  -1   4   9   91.69    8.20
   0   4  10   24.40    4.00
   0   4  10   28.00    4.90
   0   4  10   19.70    6.00
   1   4  11   49.20    5.60
   1   4  11   40.40    6.60
   1   4  11   49.20    6.20
  -1  -4 -11   53.69   10.40
  -1  -4 -11   55.19    5.40
 -11   4   0   89.89    7.60
 -11   4   0   86.39    7.50
 -10   4   1    7.60    4.30
 -10   4   1   -0.70    4.00
  -9   4   2   19.10    5.10
  -9   4   2   16.00    4.60
  -8   4   3   55.99    7.80
  -8   4   3   64.79    7.70
  -7   4   4  112.29    9.50
  -7   4   4  117.09    9.20
  -6   4   5   40.30    5.80
  -6   4   5   31.20    5.60
   6  -4  -5   53.29    7.80
  -5   4   6    2.80    4.70
  -5   4   6    3.60    4.70
  -4   4   7  176.08   12.20
  -4   4   7  175.98   11.60
  -4   4   7  169.38   11.80
  -4   4   7  164.78   11.60
   4  -4  -7  129.49   14.20
  -3   4   8   38.70    6.30
  -3   4   8   29.10    6.10
  -3   4   8   35.20    6.50
  -3   4   8   35.90    5.40
  -2   4   9   41.70    6.30
  -2   4   9   26.40    4.20
  -2   4   9   42.80    7.00
  -2   4   9   36.00    6.20
  -1   4  10   13.90    4.70
  -1   4  10   10.40    3.90
  -1   4  10   16.60    5.70
   1  -4 -10   15.50    4.30
   0   4  11   21.00    5.40
   0   4  11   14.80    4.10
   0   4  11   18.00    4.20
   0  -4 -11   21.30    5.70
   0  -4 -11   12.70    3.60
 -11   4   1   26.20    4.30
 -11   4   1   24.60    4.10
 -10   4   2   77.59    7.00
 -10   4   2   70.39    7.30
  -9   4   3   80.09    7.90
  -8   4   4  130.09    9.90
  -8   4   4  129.89    9.60
  -7   4   5   29.80    4.90
  -7   4   5   32.60    5.30
   7  -4  -5   43.60    7.80
  -6   4   6  595.14   28.20
  -6   4   6  618.44   27.80
   6  -4  -6  635.94   28.60
  -5   4   7   38.70    5.80
  -5   4   7   46.70    6.70
  -5   4   7   51.89    5.90
  -5   4   7   36.00    5.90
  -4   4   8  166.08   11.00
  -4   4   8  186.18   12.20
  -4   4   8  167.08   11.10
  -4   4   8  186.68   12.00
   4  -4  -8  163.38   12.50
  -3   4   9   40.70    6.40
  -3   4   9   39.20    4.90
  -3   4   9   43.60    6.50
   3  -4  -9   38.80    5.90
  -2   4  10   62.49    7.50
  -2   4  10   46.30    6.30
  -2   4  10   45.70    6.00
   2  -4 -10   51.39    7.00
  -1   4  11   22.10    3.80
  -1   4  11   30.80    4.10
  -1   4  11   26.70    5.70
   1  -4 -11   22.30    3.60
   1  -4 -11   32.50    5.00
 -11   4   2   32.70    4.20
 -10   4   3    7.90    3.80
 -10   4   3   10.60    4.20
  -9   4   4   17.30    4.50
  -9   4   4   11.80    4.10
  -8   4   5  140.99   10.00
  -8   4   5  139.09   10.40
  -7   4   6   85.69    8.50
  -7   4   6   83.79    8.70
   7  -4  -6   84.99   11.00
  -6   4   7  100.69    9.80
  -6   4   7  105.19    9.50
   6  -4  -7  111.89   10.20
  -5   4   8    4.50    5.00
  -5   4   8    4.00    9.40
  -5   4   8    7.80    4.70
   5  -4  -8   10.90    5.00
   5  -4  -8    2.40    6.60
  -4   4   9   95.09    8.20
  -4   4   9  128.19    9.30
  -4   4   9  118.79   11.00
   4  -4  -9  117.49    9.20
  -3   4  10   41.90    5.80
  -3   4  10   41.10    6.80
   3  -4 -10   52.89    7.30
   3  -4 -10   37.80    4.70
  -2   4  11   26.90    4.00
   2  -4 -11   23.20    5.00
   2  -4 -11   32.70    3.90
 -11   4   3   31.30    5.20
 -11   4   3   26.80    5.10
 -10   4   4   80.89    7.00
 -10   4   4   85.89    7.80
  -9   4   5   27.40    4.60
  -9   4   5   27.20    4.40
  -8   4   6  183.58   11.40
  -8   4   6  197.48   11.20
   8  -4  -6  178.68   16.00
  -7   4   7   51.29    8.80
  -7   4   7   51.29    8.00
   7  -4  -7   42.10    6.50
  -6   4   8   86.49    8.40
  -6   4   8   91.19    9.30
   6  -4  -8   87.09    8.90
  -5   4   9   -4.60    4.00
  -5   4   9   -5.40    4.00
  -5   4   9   -4.00    5.80
   5  -4  -9   -6.90    5.30
   5  -4  -9   -2.60    4.30
  -4   4  10   51.39    6.40
  -4   4  10   40.40    5.90
   4  -4 -10   52.49    7.60
   4  -4 -10   48.30    7.40
   3  -4 -11   19.00    4.20
   3  -4 -11   19.50    4.60
 -11   4   4    9.30    4.30
 -11   4   4    8.60    3.40
 -10   4   5   65.39    6.40
 -10   4   5   63.09    7.20
  -9   4   6   86.29    7.50
  -9   4   6   79.99    7.30
  -8   4   7   53.69    7.70
  -8   4   7   70.09    7.60
   8  -4  -7   83.29    9.00
  -7   4   8  123.59   10.00
  -7   4   8  132.79    9.40
   7  -4  -8  129.59   10.60
  -6   4   9   69.79   10.50
  -6   4   9   76.99    7.30
   6  -4  -9   66.49    8.40
  -5   4  10   12.50    3.60
   5  -4 -10   10.80    6.00
   5  -4 -10   21.10    5.70
  -4   4  11   47.70    5.70
   4  -4 -11   56.29    7.00
   4  -4 -11   57.89    7.10
 -10   4   6   56.29    6.30
 -10   4   6   44.40    5.40
  -9   4   7   26.00    4.30
  -9   4   7   28.80    4.60
  -8   4   8  159.48   10.40
  -8   4   8  155.98    9.90
   8  -4  -8  156.88   12.10
  -7   4   9   28.60    4.40
   7  -4  -9   31.40    5.40
  -6   4  10   37.70    5.90
   6  -4 -10   43.60    5.30
 -10   4   7  127.29    8.00
 -10   4   7  110.59    8.50
  -9   4   8   45.00    5.30
  -9   4   8   41.10    6.20
  -8   4   9   98.59    8.70
   8  -4  -9  120.49   10.60
  -7   4  10   16.30    4.00
   7   5  -8   80.39    9.60
   7   5  -8   81.89    7.60
   8   5  -7   34.00    4.20
   8   5  -7   24.90    3.90
   5   5  -9   27.80    6.60
   5   5  -9   31.70    6.00
   5   5  -9   36.00    5.20
   6   5  -8    8.30    3.20
   6   5  -8   12.10    4.60
   7   5  -7  120.49    8.80
   7   5  -7  120.29    8.00
   7   5  -7  106.99   11.30
   8   5  -6    5.70    4.00
   8   5  -6   -2.50    5.90
   8   5  -6    0.60    8.50
   8   5  -6    0.50    3.90
   9   5  -5   50.59    9.00
   4   5  -9   -5.20    5.50
   4   5  -9    4.90    3.10
   4   5  -9   -1.90    7.30
   5   5  -8   85.39   10.20
   5   5  -8   84.29    9.60
   5   5  -8   91.49    7.20
   6   5  -7   11.50    4.70
   6   5  -7    7.50    5.90
   6   5  -7   11.50    3.50
   7   5  -6  114.29   11.70
   7   5  -6  119.69    8.50
   7   5  -6  115.59   11.40
   7   5  -6  130.39    9.10
   8   5  -5   13.30    4.40
   8   5  -5    5.20    4.10
   8   5  -5    8.00    7.50
   8   5  -5    2.20    5.40
   9   5  -4   44.60    6.80
   9   5  -4   47.50    8.40
   3   5  -9   55.59    6.30
   3   5  -9   46.80    8.30
   4   5  -8    5.70    5.00
   4   5  -8    1.90    6.50
   4   5  -8   -3.80    3.20
   5   5  -7   17.20    5.50
   5   5  -7   17.10    5.40
   5   5  -7   14.20    3.90
   6   5  -6    4.60    3.90
   6   5  -6    3.90    5.80
   6   5  -6    0.40    4.70
   7   5  -5   93.29    8.40
   7   5  -5   84.69   13.00
   7   5  -5   87.29    8.20
   7   5  -5   94.19   10.70
   8   5  -4   29.30    6.80
   8   5  -4   32.80    4.80
   8   5  -4   20.20    6.10
   9   5  -3   16.80    5.10
   2   5  -9    4.20    3.30
   2   5  -9    5.00    4.80
   3   5  -8    5.80    8.30
   3   5  -8    0.30    3.50
   3   5  -8    7.40    5.40
   4   5  -7   41.20    7.00
   4   5  -7   40.40    6.50
   4   5  -7   31.10    6.00
   5   5  -6   24.20    6.70
   5   5  -6   22.10    5.90
   6   5  -5   40.20    7.10
   6   5  -5   49.99    9.40
   6   5  -5   68.49   12.10
   7   5  -4   45.80    7.00
   7   5  -4   44.60    5.90
   7   5  -4   48.10    7.70
   7   5  -4   58.39    8.00
   8   5  -3   15.40    4.60
   8   5  -3   25.10    6.30
   8   5  -3   12.10    6.40
   9   5  -2   22.70    5.30
   1   5  -9   10.70    4.00
   1   5  -9    9.00    4.80
   2   5  -8    6.70    3.80
   2   5  -8    9.50    5.20
   3   5  -7   11.80    7.60
   3   5  -7    6.10    9.60
   3   5  -7    0.40    9.10
   4   5  -6    4.60    5.80
   4   5  -6   -0.40    6.50
   4   5  -6    4.40    4.10
   5   5  -5  165.48   12.60
   5   5  -5  163.38   17.80
   5   5  -5  177.58   11.60
   5   5  -5  181.18   13.60
   6   5  -4   46.60    7.70
   6   5  -4   30.80    5.90
   6   5  -4   24.90    6.40
   6   5  -4   25.40    4.90
   7   5  -3   81.69    9.40
   7   5  -3   49.60    8.30
   7   5  -3   57.79    7.70
   8   5  -2   46.50    6.80
   8   5  -2   60.89    8.70
   8   5  -2   44.50    7.50
   9   5  -1   58.09    8.40
   9   5  -1   57.39   12.90
  -9  -5   1   65.49   10.80
   0   5  -9  132.69   10.30
   0   5  -9  139.59   10.20
   1   5  -8   37.90    5.90
   1   5  -8   24.50    4.70
   2   5  -7    1.50    4.30
   2   5  -7   -5.30    6.00
   3   5  -6  256.17   14.50
   3   5  -6  258.87   16.50
   3   5  -6  227.88   16.90
   4   5  -5  106.59    9.80
   4   5  -5  113.59   11.80
   4   5  -5  108.89   11.60
   5   5  -4   88.79   10.40
   5   5  -4   94.09   11.50
   5   5  -4   99.49   13.90
   5   5  -4   99.39    9.30
   6   5  -3   42.60    6.40
   6   5  -3   25.80    4.90
   6   5  -3   28.70    6.90
   6   5  -3   30.10    7.40
   7   5  -2   35.60    7.50
   7   5  -2   36.40    6.60
   8   5  -1   -2.50    4.80
   8   5  -1    0.00    6.80
   8   5  -1   -8.10    5.70
   9   5   0   22.30    5.70
   9   5   0   19.40    5.20
  -9  -5   0   21.60   11.00
  -1   5  -9   28.50    5.10
   0   5  -8  151.48   11.60
   0   5  -8  151.88   10.90
   1   5  -7  308.07   16.90
   1   5  -7  322.57   18.50
   2   5  -6   34.10    7.20
   2   5  -6   43.80    9.80
   2   5  -6   27.00    5.10
   3   5  -5   77.39   11.60
   3   5  -5   66.09    8.70
   3   5  -5   65.79    8.70
   4   5  -4   32.50   10.20
   4   5  -4   60.89   10.70
   4   5  -4   61.99    8.40
   4   5  -4   45.00    6.90
   5   5  -3  235.88   14.20
   5   5  -3  238.58   15.70
   5   5  -3  214.78   16.10
   5   5  -3  242.08   13.70
   6   5  -2    6.00    6.40
   6   5  -2    9.50    5.80
   6   5  -2   16.60    4.40
   7   5  -1   16.30    7.70
   7   5  -1   16.60    7.30
   8   5   0   11.90    6.20
   8   5   0   24.70    6.60
   8   5   0   16.50    5.50
   9   5   1   34.50    5.20
  -9  -5  -1   34.60    6.80
  -2   5  -9   19.50    4.70
  -1   5  -8    8.20    5.60
  -1   5  -8    4.70    5.10
   0   5  -7  102.49   11.60
   0   5  -7  105.29   10.90
   1   5  -6  123.89   10.70
   1   5  -6  137.79   13.20
   2   5  -5    1.00    4.40
   2   5  -5    4.00    8.80
   2   5  -5    1.70    6.60
   3   5  -4   26.60    5.10
   3   5  -4   29.90    7.10
   3   5  -4   33.70    7.10
   4   5  -3   10.20    5.90
   4   5  -3    9.10    5.90
   4   5  -3    4.80    8.30
   4   5  -3   11.10    4.40
   5   5  -2   29.40    8.70
   5   5  -2   16.80    6.20
   5   5  -2   18.60    6.90
   5   5  -2   18.10    4.90
   6   5  -1   29.90    5.00
   6   5  -1   34.90    7.40
   6   5  -1   38.20    8.90
   6   5  -1   29.70    6.40
   7   5   0    6.50    7.20
   7   5   0   10.60    8.10
   7   5   0   -0.90    4.80
   7   5   0    4.70    7.60
   8   5   1   24.00    5.50
   8   5   1   20.20    5.80
   8   5   1   13.10    5.00
  -8  -5  -1   21.50    6.50
   9   5   2   34.40    4.80
  -9  -5  -2   42.80    6.50
  -2   5  -8    9.60    5.20
  -1   5  -7   69.19   10.80
  -1   5  -7   86.09   15.40
   0   5  -6   49.99    8.10
   0   5  -6   39.00    6.20
   1   5  -5  127.59   13.20
   1   5  -5  134.89   11.00
   2   5  -4   24.10    6.90
   2   5  -4   20.90    5.30
   2   5  -4   19.50    8.40
   3   5  -3  205.18   12.90
   3   5  -3  206.08   15.60
   3   5  -3  210.98   14.40
   4   5  -2    7.60    7.30
   4   5  -2    1.20    4.20
   4   5  -2    4.00    6.40
   4   5  -2    0.90    5.60
   5   5  -1  105.49    9.50
   5   5  -1   96.29   12.20
   5   5  -1  106.69   11.20
   6   5   0   69.29    9.10
   6   5   0   62.69    8.70
   6   5   0   96.89   13.10
   7   5   1   11.20    5.50
   7   5   1   -2.90   16.00
   7   5   1   13.90    6.30
   8   5   2   59.19    9.30
   8   5   2   62.29    8.10
  -8  -5  -2   73.99   11.10
  -3   5  -8   56.19    8.20
  -2   5  -7   54.49    9.50
  -1   5  -6   95.69   11.50
  -1   5  -6   77.19   11.50
   0   5  -5    4.80    4.90
   0   5  -5    1.90    7.00
   1   5  -4  506.35   24.20
   1   5  -4  508.65   26.30
   2   5  -3  211.58   15.80
   2   5  -3  198.78   15.60
   2   5  -3  198.38   12.90
   3   5  -2  335.77   17.30
   3   5  -2  321.07   18.30
   3   5  -2  332.87   19.30
   4   5  -1    7.70    4.40
   4   5  -1    1.90    6.30
   4   5  -1    9.80    9.20
   5   5   0  295.67   19.50
   5   5   0  328.47   19.30
   5   5   0  304.17   16.30
   6   5   1   -0.60    6.70
   6   5   1   27.50    8.40
   6   5   1   -0.80    4.60
   7   5   2   94.89    9.50
   7   5   2  104.39   10.00
   7   5   2  110.29    8.60
   7   5   2   84.59   12.40
  -7  -5  -2  118.39   12.10
   8   5   3   36.50    5.10
  -8  -5  -3   44.80    7.70
  -4   5  -8   29.60    6.70
  -4   5  -8   20.10    4.90
  -3   5  -7   56.29    9.30
  -3   5  -7   54.19    7.90
  -2   5  -6   37.60    7.00
  -2   5  -6    8.00    9.40
  -1   5  -5  435.86   22.40
  -1   5  -5  459.35   23.80
   0   5  -4  285.67   18.20
   0   5  -4  265.07   15.70
   1   5  -3  278.97   20.60
   1   5  -3  293.57   18.30
   1   5  -3  283.77   15.90
   2   5  -2   28.90    7.50
   2   5  -2   29.50    7.30
   2   5  -2   32.40    5.40
   3   5  -1  700.43   30.80
   3   5  -1  682.03   32.80
   3   5  -1  658.43   32.10
   4   5   0   47.10    8.30
   4   5   0   56.09    9.20
   4   5   0   63.39    8.10
   5   5   1  179.98   15.70
   5   5   1  148.49   11.20
   5   5   1  153.68   14.00
   6   5   2   44.40    8.10
   6   5   2   63.99    8.50
   6   5   2   46.70    7.10
   6   5   2   49.99    8.70
  -6  -5  -2   48.50    8.00
   7   5   3   68.69   10.90
   7   5   3   98.79    8.60
   7   5   3   97.59    8.40
  -7  -5  -3  104.69   12.50
   8   5   4   93.19    7.80
  -8  -5  -4  116.39   11.70
  -4   5  -7   21.00    5.70
  -4   5  -7   24.70    6.20
  -3   5  -6   -3.90    6.90
  -3   5  -6   -0.90    6.30
  -2   5  -5   65.49   11.80
  -2   5  -5   42.30    7.90
  -2   5  -5   34.90    9.20
  -1   5  -4  242.98   16.70
  -1   5  -4  216.08   14.70
   0   5  -3   14.00    7.00
   0   5  -3    7.90    5.00
   1   5  -2   80.59   13.00
   1   5  -2   73.19    9.40
   2   5  -1   -6.20    8.90
   2   5  -1   10.80    4.60
   2   5  -1    6.80    6.60
   3   5   0  193.38   15.90
   3   5   0  182.68   12.20
   3   5   0  205.78   15.80
   4   5   1  135.89   10.70
   4   5   1  145.59   13.70
   4   5   1  164.58   14.80
   5   5   2   36.90    9.20
   5   5   2   22.10    6.80
   5   5   2   24.10    4.70
   6   5   3   61.99    8.10
   6   5   3   59.09    8.60
   6   5   3   63.69    9.40
  -6  -5  -3   53.79    7.90
   7   5   4   44.60    6.80
   7   5   4   29.30    5.40
  -7  -5  -4   28.70    7.30
  -5   5  -7    8.70    5.00
  -5   5  -7    1.10    5.20
  -4   5  -6    2.70    5.80
  -4   5  -6   -9.00    5.80
  -3   5  -5   35.70    8.00
  -3   5  -5   41.30    7.60
  -2   5  -4   51.69    7.70
  -2   5  -4   61.69    9.30
  -2   5  -4   82.89   12.50
  -1   5  -3   13.50    5.80
  -1   5  -3    7.40    7.30
   0   5  -2  129.99   14.40
   0   5  -2  121.29   11.00
   1   5  -1   26.50    7.80
   1   5  -1   13.90    4.70
   2   5   0   15.30    7.70
   2   5   0   13.30    4.70
   2   5   0    4.10    7.20
   3   5   1   28.80    4.90
   3   5   1   44.40    8.00
   3   5   1   47.30    7.90
   4   5   2  271.47   18.00
   4   5   2  224.38   13.30
   4   5   2  223.38   15.30
   5   5   3   -0.70    5.70
   5   5   3   10.40    4.50
   5   5   3    6.50    8.30
  -5  -5  -3    1.30    7.70
   6   5   4   37.30    5.30
  -6  -5  -4   29.90    7.60
   7   5   5   26.60    4.40
  -7  -5  -5   31.20    7.70
  -6   5  -7   38.10    7.30
  -5   5  -6   62.39   10.50
  -5   5  -6   60.29    8.30
  -4   5  -5   33.50    7.70
  -4   5  -5   39.20    8.80
  -3   5  -4    7.50    7.10
  -3   5  -4   17.60    7.50
  -2   5  -3   10.40    6.50
  -2   5  -3   11.90    7.60
  -2   5  -3   29.10    8.60
  -1   5  -2  193.78   13.50
  -1   5  -2  221.18   16.80
   0   5  -1  -14.60    8.50
   0   5  -1    6.60    4.90
   0   5  -1    1.60    8.00
   1   5   0   85.49   14.70
   1   5   0   93.79    9.50
   1   5   0   84.49   14.00
   2   5   1   92.49   12.50
   2   5   1   96.89    9.10
   2   5   1  103.79   14.90
   3   5   2  311.77   20.90
   3   5   2  322.97   18.10
   3   5   2  303.07   16.20
   4   5   3  113.89   11.40
   4   5   3  115.59    9.40
  -4  -5  -3  138.59   15.00
   5   5   4   42.10    5.70
   5   5   4   48.30    6.10
   5   5   4   65.79    9.00
  -5  -5  -4   64.99    8.90
   6   5   5   50.19    7.50
   6   5   5   55.89    7.40
  -6  -5  -5   71.09    8.90
   7   5   6    8.10    3.90
  -6   5  -6   73.59    7.80
  -6   5  -6   86.19   10.30
  -5   5  -5   50.19    7.70
  -5   5  -5   66.49    8.90
  -4   5  -4   56.39    9.00
  -4   5  -4   68.99   10.20
  -3   5  -3   89.49   12.00
  -3   5  -3   98.99   14.10
  -2   5  -2  113.29   12.70
  -2   5  -2  113.59   13.10
  -2   5  -2  130.39   15.40
  -1   5  -1  108.29   10.90
  -1   5  -1  108.69   15.50
   0   5   0   -3.30    4.60
   1   5   1   84.49   15.90
   1   5   1  103.29   12.50
   1   5   1  122.79    9.70
   2   5   2  131.19   12.60
   2   5   2  132.69   15.80
   2   5   2  117.09    9.70
   3   5   3   93.69   11.10
   3   5   3  113.79    9.30
  -3  -5  -3  103.99   12.00
   4   5   4   42.60   10.40
   4   5   4   58.89    9.30
   4   5   4   62.49    8.30
  -4  -5  -4   56.79    9.40
   5   5   5   44.00    5.30
   5   5   5   52.59    7.70
   5   5   5   56.19    8.00
  -5  -5  -5   57.59    9.10
   6   5   6   61.39    7.10
   6   5   6   83.79    7.20
  -6  -5  -6   72.79    9.60
  -7   5  -6    7.30    6.00
  -6   5  -5   54.29    7.60
  -6   5  -5   56.39    7.80
  -5   5  -4   66.29    9.30
  -5   5  -4   38.40   11.40
  -4   5  -3  121.79   11.70
  -4   5  -3  113.39   15.30
  -3   5  -2  301.67   17.00
  -3   5  -2  285.87   20.30
  -2   5  -1   61.39    8.60
  -2   5  -1   71.59   10.50
  -2   5  -1   71.09    8.90
  -2   5  -1   88.89   11.30
  -1   5   0   90.89   11.40
  -1   5   0   81.29   10.20
  -1   5   0  111.09   13.90
   0   5   1  -10.10    6.10
   0   5   1    1.60    4.30
   0   5   1    3.60   15.10
   1   5   2  230.18   21.00
   1   5   2  235.58   15.30
   1   5   2  221.28   13.20
   2   5   3   24.00    4.70
   2   5   3   27.00   10.70
   2   5   3   30.20    6.60
  -2  -5  -3   24.20   14.60
   3   5   4    8.30   10.50
   3   5   4    8.80    5.70
   3   5   4   14.30    4.40
  -3  -5  -4   19.40   10.40
   4   5   5   50.99    6.80
   4   5   5   51.19    6.30
  -4  -5  -5   36.30    9.60
   5   5   6   52.39    7.50
   5   5   6   46.50    6.80
   6   5   7   41.60    6.90
  -7   5  -5   28.30    4.70
  -7   5  -5   22.60    7.80
  -6   5  -4   37.70    5.60
  -6   5  -4   24.60    7.60
  -5   5  -3    6.00    8.60
  -5   5  -3    2.40    5.60
  -4   5  -2  207.58   13.60
  -4   5  -2  204.78   18.70
  -3   5  -1   28.50    6.70
  -3   5  -1   33.60    7.20
  -3   5  -1   20.20   10.50
  -2   5   0    9.60   12.20
  -2   5   0    9.70    6.80
  -2   5   0   11.60    6.40
  -2   5   0   11.00    6.10
  -1   5   1    1.70    5.20
  -1   5   1    9.20    6.00
   0   5   2  142.49   12.50
   0   5   2  144.89   10.50
   1   5   3   15.50    4.50
   1   5   3   29.50    6.40
   2   5   4   83.59    8.50
   2   5   4   77.19   10.40
   3   5   5   58.99    9.00
   4   5   6   -0.20    4.60
   4   5   6   -2.70    3.90
   5   5   7   10.10    4.40
   5   5   7   11.70    3.50
  -7   5  -4   44.40    6.80
  -7   5  -4   28.80    8.40
  -6   5  -3   50.09    9.10
  -6   5  -3   50.39    8.00
  -5   5  -2   25.90   10.00
  -5   5  -2   23.00    5.90
  -5   5  -2   18.90    9.20
  -4   5  -1  143.59   23.10
  -4   5  -1  122.69   13.20
  -4   5  -1  146.79   11.40
  -3   5   0  159.18   12.80
  -3   5   0  184.18   12.80
  -2   5   1    6.20    5.40
  -2   5   1   11.20    6.90
  -2   5   1   16.00    6.00
  -1   5   2   85.29    9.40
  -1   5   2   80.89    9.10
  -1   5   2   94.79   10.70
   0   5   3    5.40    5.60
   0   5   3    2.90    8.10
   0   5   3    8.60    4.30
   1   5   4  275.67   15.80
   1   5   4  248.58   20.30
   1   5   4  270.17   14.50
   2   5   5   70.69    9.80
   2   5   5   75.29   11.00
   3   5   6   -3.60    5.00
   3   5   6   10.20    5.30
   3   5   6    6.90   10.20
   4   5   7   31.80    5.00
   4   5   7   18.10    3.50
  -8   5  -4  109.59    7.70
  -7   5  -3  104.79    8.30
  -6   5  -2   30.30    5.70
  -6   5  -2   36.00    8.50
  -5   5  -1  143.39   11.30
  -5   5  -1  139.09   12.20
  -4   5   0   44.00    6.80
  -4   5   0   55.59    9.00
  -3   5   1  705.63   30.30
  -3   5   1  577.24   31.00
  -3   5   1  687.03   29.90
  -2   5   2   41.10    6.10
  -2   5   2   42.80    7.20
  -2   5   2   30.30    5.60
  -1   5   3  305.17   17.80
  -1   5   3  298.47   15.60
  -1   5   3  305.17   16.70
   0   5   4  303.37   18.70
   0   5   4  304.37   19.90
   0   5   4  316.27   17.00
   0   5   4  316.97   16.10
   1   5   5  514.95   27.00
   1   5   5  476.75   26.40
   1   5   5  512.45   24.50
   1   5   5  556.94   24.30
   2   5   6   57.39    9.30
   2   5   6   80.69    9.60
   3   5   7   57.09    7.50
   3   5   7   70.29    9.80
   3   5   7   73.79    8.10
   4   5   8   10.00    3.10
   4   5   8   17.00    4.80
  -8   5  -3   51.59    6.50
  -7   5  -2  120.89    9.40
  -6   5  -1    3.00    4.90
  -6   5  -1    6.00    6.20
  -5   5   0  296.77   16.60
  -5   5   0  305.07   16.30
  -4   5   1    9.70    5.70
  -4   5   1    6.60    5.00
  -3   5   2  310.47   18.10
  -3   5   2  339.67   17.60
  -3   5   2  349.07   17.80
  -2   5   3  196.48   12.60
  -2   5   3  191.98   12.70
  -2   5   3  201.48   14.00
  -1   5   4  545.35   24.70
  -1   5   4  519.65   25.10
  -1   5   4  545.05   26.10
   0   5   5   13.60    7.70
   0   5   5    7.10    5.30
   0   5   5    7.10   11.40
   1   5   6   87.99    9.70
   1   5   6   94.09   10.60
   1   5   6   90.69   13.70
   2   5   7   46.90    5.50
   2   5   7   58.39    8.10
   2   5   7   47.60    8.80
   3   5   8   30.10    5.00
   3   5   8   25.90    8.60
   3   5   8   43.20    7.20
  -8   5  -2   79.79    7.10
  -7   5  -1   18.80    5.70
  -6   5   0   45.10    6.40
  -6   5   0   55.29    8.10
  -5   5   1   94.29    9.50
  -5   5   1  101.29    9.50
  -4   5   2    8.90    5.50
  -4   5   2    6.50    5.10
  -3   5   3  249.97   14.40
  -3   5   3  204.88   14.80
  -3   5   3  232.58   13.80
  -2   5   4   28.50    5.50
  -2   5   4   25.10    5.40
  -2   5   4   20.70    6.50
  -1   5   5  167.58   11.40
  -1   5   5  150.68   13.00
   0   5   6   61.29    8.60
   0   5   6   57.39    8.80
   0   5   6   55.09    8.40
   1   5   7   97.69   12.90
   1   5   7   79.79   12.50
   1   5   7   74.49    9.30
   1   5   7   69.79   11.30
   2   5   8    2.40    3.10
   2   5   8    8.40    4.50
   2   5   8   13.30    8.80
  -9   5  -2   24.30    3.90
  -8   5  -1   23.90    4.40
  -8   5  -1   25.40    5.60
  -7   5   0   15.80    8.10
  -7   5   0    9.00    4.90
  -6   5   1   39.40    6.00
  -6   5   1   48.80    8.30
  -5   5   2   25.20    5.40
  -5   5   2   18.80    5.60
  -4   5   3    1.30    5.00
  -4   5   3    0.40    5.10
  -3   5   4   31.80    6.30
  -3   5   4   31.80    5.60
  -3   5   4   40.10    6.40
  -2   5   5   14.50    6.00
  -1   5   6  145.29   10.70
  -1   5   6  134.69   12.90
  -1   5   6  143.49   12.60
   0   5   7  107.69    9.40
   0   5   7  122.49   12.40
   0   5   7  100.69   11.70
   0   5   7   82.09   10.40
   1   5   8   -5.00    3.10
   1   5   8    9.80    7.00
   1   5   8   14.80    6.60
   1   5   8   -3.90    4.50
   2   5   9   17.70    5.40
   2   5   9   19.60    7.40
   2   5   9   13.70    2.60
  -9   5  -1   44.30    5.90
  -9   5  -1   19.70   10.70
   9  -5   1   43.10    9.00
  -8   5   0   13.00    4.00
  -8   5   0   16.70    4.70
  -7   5   1   13.90    4.80
  -7   5   1    7.90    4.70
  -6   5   2   13.40    4.70
  -6   5   2    7.20    4.60
  -5   5   3  238.18   13.80
  -5   5   3  248.98   14.20
  -4   5   4   46.20    6.60
  -4   5   4   60.19    8.90
  -3   5   5   85.89    8.90
  -3   5   5   79.29   10.20
  -2   5   6   71.99    9.70
  -2   5   6   65.79   10.80
  -2   5   6   47.60    8.30
  -1   5   7  365.06   18.90
  -1   5   7  347.97   17.00
  -1   5   7  314.27   17.70
  -1   5   7  319.67   23.10
   0   5   8  143.39    9.90
   0   5   8  175.68   13.00
   0   5   8  166.38   12.00
   0   5   8  176.88   10.60
   1   5   9   55.79    6.90
   1   5   9   40.80    5.90
   1   5   9   34.90    4.70
  -9   5   0   35.10    4.80
  -9   5   0   39.10    5.80
  -8   5   1   -1.00    3.80
  -8   5   1    8.80    4.20
  -7   5   2   50.29    7.60
  -7   5   2   39.10    5.50
  -6   5   3   38.30    5.80
  -6   5   3   39.90    5.80
  -5   5   4  110.59    9.20
  -5   5   4   92.69    9.40
  -4   5   5  132.29   10.30
  -4   5   5  133.79   10.80
  -4   5   5  134.79   13.00
  -3   5   6  286.57   16.60
  -3   5   6  298.97   16.30
  -3   5   6  291.07   15.50
  -2   5   7    4.60    4.90
  -2   5   7   -9.00    5.60
  -2   5   7    3.20    6.00
  -1   5   8   39.00    4.90
  -1   5   8   42.30    5.70
  -1   5   8   45.00    5.90
   0   5   9  173.18   10.90
   0   5   9  140.79    8.90
   0   5   9  201.78   11.00
  -9   5   1   59.19    6.70
  -9   5   1   58.19    6.10
  -8   5   2   50.79    7.00
  -8   5   2   57.39    6.90
  -7   5   3   57.49    7.50
  -7   5   3   60.39    9.20
  -6   5   4   48.00    7.40
  -6   5   4   40.10    6.10
  -5   5   5  196.88   11.90
  -5   5   5  198.58   12.60
  -4   5   6    8.60    5.20
  -4   5   6   -1.10    5.50
  -4   5   6   15.10    4.70
  -3   5   7   11.40    8.90
  -3   5   7    7.40    6.30
  -2   5   8   23.90    5.00
  -2   5   8   12.10    4.70
  -1   5   9   27.50    5.30
  -1   5   9   23.10    4.80
   1  -5  -9   16.70    4.40
  -9   5   2   39.30    5.80
  -9   5   2   31.20    4.30
  -8   5   3   26.60    4.20
  -8   5   3   26.90    4.50
  -7   5   4   61.69    7.60
  -7   5   4   55.79    6.70
  -6   5   5   59.99    9.80
   5  -5  -6   12.20    6.70
  -4   5   7   51.19    7.20
  -4   5   7   41.90    5.60
  -4   5   7   40.00    5.40
  -3   5   8   15.30    4.60
  -3   5   8   11.80    4.60
   3  -5  -8   16.90    5.10
  -2   5   9    1.50    4.00
  -2   5   9   12.60    5.00
   2  -5  -9    2.20    4.00
  -9   5   3   21.90    3.80
  -9   5   3   26.70    3.90
  -8   5   4   39.50    6.20
  -8   5   4   33.00    4.30
  -7   5   5  107.89    7.60
  -7   5   5   91.79    8.20
  -6   5   6    8.70    4.10
  -6   5   6    9.60    3.90
   6  -5  -6   -5.90    8.00
  -5   5   7   29.40    4.80
  -5   5   7   42.20    7.00
   5  -5  -7   36.10    6.90
  -4   5   8   -1.60    3.70
  -4   5   8   -3.40    4.30
   4  -5  -8    3.70    5.10
  -3   5   9   60.09    6.70
  -3   5   9   73.29    8.40
   3  -5  -9   57.09    7.10
   3  -5  -9   59.59    7.50
  -9   5   4   57.09    6.10
  -9   5   4   50.69    5.70
  -8   5   5   11.00    3.50
  -8   5   5   15.90    3.40
  -7   5   6  165.18    9.60
  -7   5   6  158.18    9.90
  -6   5   7   13.40    4.10
  -6   5   7   22.70    4.50
   6  -5  -7   11.40    7.10
  -5   5   8  120.89    8.80
  -5   5   8  111.39    8.30
   5  -5  -8  103.99   10.10
  -4   5   9    7.00    9.40
  -4   5   9    4.20    3.60
   4  -5  -9    4.60    4.70
  -9   5   5   45.30    5.70
  -9   5   5   43.10    5.40
  -8   5   6    4.50    3.50
  -8   5   6    4.10    3.10
  -7   5   7  156.18    9.10
  -7   5   7  153.58    9.10
  -6   5   8   22.40    4.50
  -6   5   8   18.70    3.70
   6  -5  -8   20.90    6.40
  -5   5   9   53.09    7.80
  -5   5   9   56.29    5.90
   5  -5  -9   46.70    5.90
  -8   5   7   50.69    8.60
  -8   5   7   35.60    5.20
  -7   5   8  110.59    7.10
  -7   5   8   98.29    8.00
   4   6  -7   20.80    3.30
   4   6  -7   17.80    4.60
   5   6  -6    1.30    2.90
   5   6  -6    4.40    4.10
   6   6  -5   10.70    2.90
   6   6  -5   24.30    5.10
   7   6  -4    3.00    4.20
   7   6  -4   16.80    5.10
   3   6  -7   38.30    5.60
   3   6  -7   28.90    4.90
   4   6  -6   -0.40    4.50
   4   6  -6    2.50    3.10
   5   6  -5    4.60    4.60
   5   6  -5    3.70    2.80
   6   6  -4   16.30    3.30
   6   6  -4   26.30    5.10
   7   6  -3   20.40    5.60
   2   6  -7    3.50    4.30
   2   6  -7    0.50    3.20
   3   6  -6   13.50    3.40
   3   6  -6    9.10    4.30
   4   6  -5   25.20    5.00
   4   6  -5   17.50    3.60
   5   6  -4    0.50    3.00
   5   6  -4   -0.10    4.50
   6   6  -3   73.59    6.50
   7   6  -2   51.09    9.30
   7   6  -2   45.10    6.00
   1   6  -7   26.40    5.10
   1   6  -7   25.60    4.20
   2   6  -6    9.70    4.40
   2   6  -6    2.90    3.60
   3   6  -5    1.00    4.70
   3   6  -5    1.80    3.30
   4   6  -4   19.90    5.20
   4   6  -4   10.80    3.80
   5   6  -3    9.20    4.80
   5   6  -3    8.10    3.20
   6   6  -2   39.40    6.00
   7   6  -1   22.40    5.60
   7   6  -1   15.70    3.60
   0   6  -7   56.09    7.90
   0   6  -7   35.10    5.40
   1   6  -6    7.40    3.70
   1   6  -6   -0.10    4.90
   2   6  -5   75.59    9.10
   2   6  -5   62.99    7.30
   3   6  -4    7.10    3.60
   3   6  -4    7.00    5.20
   4   6  -3    5.40    3.50
   4   6  -3   12.10    5.40
   5   6  -2   13.60    3.50
   5   6  -2   19.50    5.50
   7   6   0   -3.10    3.40
  -7  -6   0   -3.20    6.70
  -1   6  -7    7.40    4.50
   0   6  -6   25.30    4.80
   1   6  -5   27.10    5.70
   1   6  -5   20.10    4.40
   2   6  -4    5.20    3.90
   2   6  -4    8.30    5.50
   3   6  -3   26.40    6.10
   3   6  -3   43.40    9.90
   4   6  -2   32.80    6.20
   4   6  -2   37.60    6.40
   5   6  -1   23.20    6.00
   6   6   0   18.90    6.80
   6   6   0   26.90    4.00
   7   6   1   -7.20    4.60
   7   6   1   -1.50    5.40
  -7  -6  -1   -0.10    7.20
  -2   6  -7    4.80    4.80
  -1   6  -6   20.30    5.40
   0   6  -5   53.59    8.40
   0   6  -5   69.09    9.80
   1   6  -4   14.00    4.30
   1   6  -4    8.30    6.00
   2   6  -3   62.29   10.20
   2   6  -3   48.90    7.70
   3   6  -2   45.50    7.20
   3   6  -2   42.00    7.30
   4   6  -1  181.38   12.80
   4   6  -1  162.98   11.60
   5   6   0   28.00    6.90
   5   6   0   18.10    3.80
   6   6   1   43.00    6.20
   6   6   1   60.89    6.50
   6   6   1   48.20    6.80
  -6  -6  -1   53.29    8.70
   7   6   2   13.60    4.90
  -7  -6  -2   21.60    7.70
  -2   6  -6    9.90    5.10
  -1   6  -5   31.40    6.30
   0   6  -4   11.60    4.30
   0   6  -4    3.20    6.10
   1   6  -3   25.70    4.90
   1   6  -3   33.00    6.60
   2   6  -2  119.59    9.50
   2   6  -2  127.99   12.30
   3   6  -1    9.90    6.40
   3   6  -1    5.30    3.90
   4   6   0  121.59    9.40
   4   6   0  144.39   12.90
   5   6   1  124.49   10.90
   5   6   1  116.69    8.50
  -5  -6  -1  149.39   15.40
   6   6   2   71.99    7.00
   6   6   2   76.49    8.10
   6   6   2   73.09    7.50
  -6  -6  -2   82.09    9.50
  -3   6  -6   25.10    5.40
  -2   6  -5   21.90    6.10
  -1   6  -4   -2.00    4.70
  -1   6  -4    0.00    6.00
   0   6  -3  110.09   10.60
   0   6  -3  108.29   12.80
   1   6  -2   17.30    6.60
   1   6  -2   20.10    4.50
   2   6  -1   16.30    4.10
   2   6  -1   23.00    6.90
   3   6   0  114.99   12.40
   3   6   0  118.49   11.40
   3   6   0  102.19    8.70
   4   6   1  135.49   11.00
   4   6   1  118.19    8.80
  -4  -6  -1  137.59   16.70
   5   6   2   29.00    5.40
   5   6   2   28.00    6.90
  -5  -6  -2   43.90   10.70
   6   6   3    5.80    3.60
   6   6   3   10.60    4.30
  -6  -6  -3    4.90    9.50
  -4   6  -6   -1.40    5.60
  -3   6  -5   19.40    6.00
  -2   6  -4   14.20    6.30
  -1   6  -3   61.89    8.90
   0   6  -2    4.10    4.20
   0   6  -2    3.20    6.70
   1   6  -1    6.60    4.00
   1   6  -1    4.80    6.70
   2   6   0   13.80    7.40
   2   6   0    7.00    3.90
   2   6   0   15.40    6.90
   3   6   1   87.69   14.50
   3   6   1   69.69    7.80
   4   6   2   15.90    8.00
   4   6   2    3.50    3.20
  -4  -6  -2  -14.20   10.90
   5   6   3   31.20    5.10
   5   6   3   23.40    7.10
  -5  -6  -3   49.00   10.80
   6   6   4   15.20    3.30
   6   6   4    6.20    3.70
  -4   6  -5   -3.00    8.00
  -4   6  -5   11.50    6.10
  -3   6  -4   -6.20    6.20
  -2   6  -3  138.99   13.60
  -1   6  -2    3.60    4.70
  -1   6  -2    1.50    7.30
   0   6  -1   28.60   10.00
   0   6  -1   16.00    4.50
   0   6  -1   25.70    7.50
   1   6   0   -0.90    7.50
   1   6   0    2.70    3.90
   1   6   0   13.40    6.80
   2   6   1   48.40    7.20
   2   6   1   54.99    7.30
   2   6   1   55.79    9.20
   3   6   2   15.20    8.80
   3   6   2   -7.90    5.40
   4   6   3   12.10    3.60
   4   6   3    4.00    4.50
   4   6   3    6.20    8.40
   5   6   4   14.10    4.10
   5   6   4   14.90    3.80
  -5   6  -5   15.50    6.90
  -5   6  -5   16.70    6.20
  -4   6  -4    2.70    6.50
  -4   6  -4    0.60    6.80
  -3   6  -3   36.20    7.70
  -3   6  -3   34.50    7.90
  -2   6  -2   15.10    8.20
  -2   6  -2    0.20    5.50
  -1   6  -1    7.70    9.40
  -1   6  -1   10.40    7.90
  -1   6  -1   11.80    4.90
   0   6   0   52.19    9.00
   0   6   0   50.49    7.70
   0   6   0   61.99    7.90
   1   6   1    3.20    3.90
   1   6   1    0.90    8.10
   1   6   1    4.30    6.00
   2   6   2   19.50    9.60
   2   6   2   -3.10    5.40
   2   6   2   -0.50    3.70
   3   6   3   37.30    5.90
   3   6   3   59.49    6.90
   3   6   3   56.59   10.20
   4   6   4   50.79    7.60
   5   6   5   15.40    3.70
   5   6   5   22.10    5.10
  -5   6  -4   19.30    8.50
  -5   6  -4   22.20    5.60
  -4   6  -3    9.40    6.00
  -4   6  -3    2.20    7.70
  -3   6  -2   -0.40    7.10
  -3   6  -2   18.80    8.40
  -2   6  -1   37.30    9.80
  -2   6  -1   27.10   11.20
  -2   6  -1   40.40    8.80
  -1   6   0   14.00    4.50
  -1   6   0   21.40    9.30
  -1   6   0    4.60    6.70
   0   6   1   25.90    9.90
   0   6   1   25.10    6.00
   0   6   1   21.70    4.70
   1   6   2    9.00    5.30
   1   6   2    0.70    3.80
   2   6   3  195.78   14.50
   3   6   4    7.60    4.20
   4   6   5   14.90    3.70
   4   6   5    6.50    3.80
  -6   6  -4   -4.30    4.80
  -5   6  -3   33.00    5.80
  -4   6  -2   14.30    6.10
  -3   6  -1   36.00    8.20
  -2   6   0    1.30    5.30
  -2   6   0    7.80    6.20
  -1   6   1   -3.00    4.20
  -1   6   1    5.80    5.70
   0   6   2    8.70    4.10
   0   6   2   -7.70    5.50
   1   6   3   99.29    8.70
   1   6   3   97.49    9.50
   4   6   6    1.80    3.50
   4   6   6    1.20    2.80
  -6   6  -3   17.40    4.80
  -5   6  -2   28.40    5.50
  -4   6  -1   80.89   11.90
  -4   6  -1  117.89   10.00
  -3   6   0   91.19   11.30
  -3   6   0   74.49   10.80
  -2   6   1   16.50    5.10
  -2   6   1   27.00    6.00
  -2   6   1   14.70    8.60
  -1   6   2   20.30    5.70
  -1   6   2   21.20    4.50
   0   6   3  124.29   10.40
   0   6   3  137.39    9.60
   1   6   4    6.50    4.50
   3   6   6   21.10    3.70
  -6   6  -2   79.49    7.80
  -5   6  -1  135.39   10.20
  -5   6  -1  138.89   15.20
  -4   6   0  115.59   10.30
  -4   6   0  114.89   10.50
  -3   6   1   10.40    5.80
  -3   6   1   17.40    8.90
  -2   6   2  123.39   10.70
  -2   6   2  138.29   21.00
  -2   6   2  139.89   15.50
  -1   6   3   39.50    6.00
  -1   6   3   51.89    8.50
  -1   6   3   44.40    8.40
   0   6   4   17.20    5.20
   1   6   5   27.90    4.40
   2   6   6   12.40    4.10
   2   6   6   13.90    3.80
  -7   6  -2   17.00    4.20
  -6   6  -1   46.10    7.50
  -5   6   0   23.40    5.70
  -5   6   0   26.90    5.30
  -4   6   1  168.38   11.60
  -4   6   1  157.78   10.90
  -3   6   2   46.80    6.80
  -3   6   2   48.30    6.50
  -2   6   3   60.49    8.40
  -2   6   3   68.79   11.10
   0   6   5   60.69    7.00
   1   6   6   16.70    3.90
   1   6   6   28.70    4.90
   2   6   7    4.10    3.70
  -7   6  -1    2.40    3.80
  -6   6   0   22.90    5.60
  -6   6   0   29.80    4.60
  -5   6   1    8.70    4.70
  -5   6   1   18.10    4.70
  -4   6   2   34.90    5.60
  -4   6   2   33.90    5.40
  -3   6   3   41.80    7.30
  -3   6   3   38.30    5.30
  -3   6   3   33.90    6.10
  -2   6   4    6.00    4.30
  -2   6   4   11.20    6.30
  -1   6   5   50.89    7.60
  -1   6   5   28.30    4.70
   0   6   6   43.50    6.30
   0   6   6   40.30    5.60
   1   6   7    7.60    3.50
  -7   6   0   -3.40    3.80
  -7   6   0    0.10    5.60
  -6   6   1   41.80    7.10
  -6   6   1   42.00    7.00
  -5   6   2    8.80    4.50
  -5   6   2   13.30    4.80
  -4   6   3   -0.40    4.80
  -4   6   3    0.30    4.20
  -3   6   4    1.70    5.50
  -3   6   4    4.10    4.20
  -2   6   5   94.19    8.00
  -2   6   5  108.69   11.10
  -2   6   5  115.39   10.70
  -1   6   6   -4.70    4.50
  -1   6   6    2.90    3.60
  -1   6   6   13.50    6.90
   0   6   7   34.00    4.00
  -7   6   1   22.20    4.60
  -7   6   1   23.50    4.10
  -6   6   2   46.40    6.60
  -6   6   2   41.60    6.90
  -5   6   3   11.30    4.40
  -5   6   3    3.10    3.80
  -4   6   4   23.30    4.30
  -4   6   4   24.20    5.20
  -3   6   5    4.80    3.80
  -3   6   5   -1.80    5.20
  -3   6   5    1.00    5.30
  -2   6   6    8.70    3.90
  -2   6   6   16.10    5.60
  -1   6   7   38.90    6.00
  -1   6   7   53.99    7.40
  -7   6   2   32.80    4.50
  -7   6   2   41.10    6.10
  -6   6   3   90.39    7.60
  -6   6   3   81.19    7.00
  -5   6   4    2.90    4.10
  -5   6   4    6.10    3.80
  -4   6   5   33.60    5.30
  -4   6   5   28.50    4.40
  -3   6   6   15.30    3.60
  -3   6   6   11.30    5.10
  -3   6   6    6.60    5.10
  -2   6   7    8.30    6.00
  -2   6   7    5.30    3.50
  -7   6   3    7.30    3.50
  -7   6   3   11.20    3.80
  -6   6   4   23.00    4.40
  -6   6   4   26.60    3.80
  -5   6   5    2.30    3.50
  -5   6   5    3.40    4.10
  -4   6   6    6.50    4.50
  -4   6   6    3.10    3.30
  -3   6   7   49.60    5.90
  -3   6   7   57.49    7.80
   3  -6  -7   34.30    6.60
  -7   6   4    3.40    3.20
  -7   6   4   -3.20    3.40
  -6   6   5   14.50    3.40
  -6   6   5   21.40    3.80
  -5   6   6    9.70    3.80
  -5   6   6    2.70    3.20
  -4   6   7   31.50    4.30
  -4   6   7   32.90    5.10
   2   7  -3    1.20    4.70
   2   7  -3   -0.60    2.80
   3   7  -2   13.40    2.90
   3   7  -2   21.90    6.80
   1   7  -3   53.49    9.20
   1   7  -3   48.70    6.90
   2   7  -2    1.10    5.20
   2   7  -2    3.90    2.90
   3   7  -1   39.60    5.10
   3   7  -1   56.19   12.20
   0   7  -3    4.90    4.10
   0   7  -3    0.70    6.10
   1   7  -2   17.60    6.10
   1   7  -2   21.70    3.50
   2   7  -1   10.40    3.00
   2   7  -1   23.60    9.60
   3   7   0   84.59   11.40
   3   7   0   54.39    5.40
  -1   7  -3    9.80    6.80
   0   7  -2   34.60    5.20
   0   7  -2   37.80    7.10
   1   7  -1   58.29    6.00
   1   7  -1   36.50   11.80
   2   7   0   13.00    8.10
   3   7   1    2.40    8.40
  -1   7  -2   38.40   11.80
   0   7  -1   -6.10   11.10
   0   7  -1    8.60    3.50
   1   7   0   11.60    3.10
   2   7   1   12.40    3.00
   2   7   1    4.10    5.90
   3   7   2   30.20    5.00
  -1   7  -1   18.80    5.00
   0   7   0    2.90    3.30
   1   7   1   46.70    5.70
   1   7   1   31.80    6.80
   2   7   2    7.10    4.90
  -1   7   0   -1.90    5.80
   0   7   1   18.00    3.80
   1   7   2   31.00    5.30
   2   7   3   12.50    4.20
  -1   7   1   34.80    9.20
  -1   7   1   50.69    7.20
  -2   7   1    6.80    6.30
  -1   7   2   54.39    7.40
  -1   7   2   40.60    7.00
  -3   7   1   54.99    6.50
  -2   7   2   -6.60    5.60
  -1   7   3   58.19    6.50
  -3   7   2   18.40    5.00
  -2   7   3   -3.50    4.20
   0   0   0    0.00    0.00

_computing_structure_solution     'SHELXT 2014/5 (Sheldrick, 2014)'
;
_shelx_hkl_checksum              7134
loop_
_space_group_symop_operation_xyz
'x, y, z'
'-x, y+1/2, -z'
loop_
_atom_site_label
_atom_site_type_symbol
_atom_site_fract_x
_atom_site_fract_y
_atom_site_fract_z
_atom_site_U_iso_or_equiv
_atom_site_adp_type
_atom_site_occupancy
_atom_site_site_symmetry_order
_atom_site_calc_flag
_atom_site_refinement_flags_posn
_atom_site_refinement_flags_adp
S1 S -0.23350(7) 0.45348(14) 0.01378(6) 0.03046(19) Uani 1 1 d . .
O1 O -0.2498(2) 0.5856(4) -0.09169(18) 0.0392(6) Uani 1 1 d . .
O2 O -0.2339(2) 0.2172(4) 0.0057(2) 0.0412(6) Uani 1 1 d . .
N1 N -0.1059(2) 0.5228(4) 0.0872(2) 0.0308(6) Uani 1 1 d . .
C1 C -0.3432(3) 0.5317(6) 0.1002(3) 0.0298(7) Uani 1 1 d . .
C2 C -0.3941(3) 0.7391(6) 0.0869(3) 0.0313(7) Uani 1 1 d . .
H2 H -0.3732 0.8365 0.0301 0.038 Uiso 1 1 calc R U
C3 C -0.4776(3) 0.8014(6) 0.1599(3) 0.0353(8) Uani 1 1 d . .
H3 H -0.5127 0.9406 0.1508 0.042 Uiso 1 1 calc R U
C4 C -0.5085(3) 0.6583(7) 0.2454(3) 0.0392(9) Uani 1 1 d . .
C5 C -0.4574(3) 0.4498(8) 0.2561(3) 0.0412(8) Uani 1 1 d . .
H5 H -0.4790 0.3516 0.3122 0.049 Uiso 1 1 calc R U
C6 C -0.3744(3) 0.3851(6) 0.1845(3) 0.0352(8) Uani 1 1 d . .
H6 H -0.3401 0.2452 0.1929 0.042 Uiso 1 1 calc R U
C7 C -0.5962(4) 0.7322(9) 0.3259(4) 0.0617(13) Uani 1 1 d . .
H7A H -0.6640 0.7989 0.2789 0.093 Uiso 1 1 calc R U
H7B H -0.5587 0.8379 0.3824 0.093 Uiso 1 1 calc R U
H7C H -0.6214 0.6064 0.3674 0.093 Uiso 1 1 calc R U
C8 C -0.0716(3) 0.7578(6) 0.0992(3) 0.0418(9) Uani 1 1 d . .
H8A H -0.1392 0.8493 0.1102 0.050 Uiso 1 1 calc R U
H8B H -0.0393 0.8089 0.0296 0.050 Uiso 1 1 calc R U
C9 C 0.0234(3) 0.7631(6) 0.2099(3) 0.0380(9) Uani 1 1 d . .
H9A H 0.0905 0.8536 0.1960 0.046 Uiso 1 1 calc R U
H9B H -0.0092 0.8225 0.2776 0.046 Uiso 1 1 calc R U
C10 C 0.0615(3) 0.5232(6) 0.2322(3) 0.0311(8) Uani 1 1 d . .
H10 H 0.1158 0.4844 0.1759 0.037 Uiso 1 1 calc R U
C11 C -0.0554(3) 0.4006(5) 0.1952(3) 0.0329(9) Uani 1 1 d . .
H11A H -0.0418 0.2464 0.1777 0.039 Uiso 1 1 calc R U
H11B H -0.1066 0.4096 0.2562 0.039 Uiso 1 1 calc R U
C12 C 0.1208(2) 0.4612(7) 0.3561(2) 0.0292(6) Uani 1 1 d . .
C13 C 0.1095(3) 0.5836(7) 0.4566(3) 0.0415(9) Uani 1 1 d . .
H13 H 0.0638 0.7119 0.4497 0.050 Uiso 1 1 calc R U
C14 C 0.1659(4) 0.5165(7) 0.5677(3) 0.0472(10) Uani 1 1 d . .
H14 H 0.1591 0.6029 0.6341 0.057 Uiso 1 1 calc R U
C15 C 0.2313(3) 0.3255(8) 0.5812(3) 0.0430(9) Uani 1 1 d . .
H15 H 0.2681 0.2811 0.6559 0.052 Uiso 1 1 calc R U
C16 C 0.2414(3) 0.2001(7) 0.4816(3) 0.0473(10) Uani 1 1 d . .
H16 H 0.2844 0.0687 0.4893 0.057 Uiso 1 1 calc R U
C17 C 0.1880(3) 0.2689(6) 0.3708(3) 0.0407(9) Uani 1 1 d . .
H17 H 0.1973 0.1844 0.3044 0.049 Uiso 1 1 calc R U
loop_
_atom_site_aniso_label
_atom_site_aniso_U_11
_atom_site_aniso_U_22
_atom_site_aniso_U_33
_atom_site_aniso_U_23
_atom_site_aniso_U_13
_atom_site_aniso_U_12
S1 0.0307(4) 0.0342(4) 0.0261(3) -0.0003(4) 0.0028(2) 0.0030(4)
O1 0.0389(14) 0.0530(17) 0.0255(11) 0.0063(10) 0.0045(10) 0.0057(11)
O2 0.0411(15) 0.0357(15) 0.0457(14) -0.0079(11) 0.0023(11) 0.0044(11)
N1 0.0299(14) 0.0301(16) 0.0326(13) 0.0064(11) 0.0049(11) 0.0015(11)
C1 0.0254(16) 0.0348(18) 0.0281(15) 0.0002(13) 0.0006(12) -0.0045(13)
C2 0.0293(17) 0.035(2) 0.0284(15) 0.0039(14) 0.0007(12) -0.0009(14)
C3 0.0266(17) 0.040(2) 0.0380(17) -0.0029(15) -0.0002(13) 0.0028(14)
C4 0.0289(19) 0.050(2) 0.0398(19) -0.0041(17) 0.0081(14) -0.0060(16)
C5 0.0401(18) 0.043(2) 0.0423(17) 0.004(2) 0.0127(13) -0.009(2)
C6 0.0352(18) 0.030(2) 0.0392(17) 0.0020(13) 0.0024(14) -0.0037(13)
C7 0.050(3) 0.076(3) 0.066(3) -0.002(3) 0.032(2) 0.000(2)
C8 0.0344(19) 0.037(2) 0.052(2) 0.0145(17) 0.0005(15) -0.0067(15)
C9 0.040(2) 0.036(2) 0.0382(18) 0.0065(15) 0.0058(15) -0.0066(15)
C10 0.0293(17) 0.037(2) 0.0279(15) -0.0001(13) 0.0068(13) 0.0022(13)
C11 0.0329(17) 0.031(2) 0.0327(15) 0.0043(13) -0.0007(13) 0.0003(12)
C12 0.0257(14) 0.0326(17) 0.0295(13) -0.0033(17) 0.0041(11) -0.0005(16)
C13 0.044(2) 0.042(2) 0.0380(18) -0.0076(16) 0.0057(16) 0.0128(17)
C14 0.055(2) 0.058(3) 0.0285(16) -0.0143(16) 0.0053(15) 0.0078(19)
C15 0.0389(19) 0.057(3) 0.0304(16) -0.0001(18) -0.0034(14) 0.006(2)
C16 0.053(2) 0.046(2) 0.0399(19) -0.0025(17) -0.0029(16) 0.0162(19)
C17 0.049(2) 0.038(2) 0.0343(17) -0.0080(15) 0.0025(15) 0.0081(16)
loop_
_atom_type_symbol
_atom_type_description
_atom_type_scat_dispersion_real
_atom_type_scat_dispersion_imag
_atom_type_scat_source
C C 0.0181 0.0091 'International Tables Vol C Tables 4.2.6.8 and 6.1.1.4'
H H 0.0000 0.0000 'International Tables Vol C Tables 4.2.6.8 and 6.1.1.4'
N N 0.0311 0.0180 'International Tables Vol C Tables 4.2.6.8 and 6.1.1.4'
O O 0.0492 0.0322 'International Tables Vol C Tables 4.2.6.8 and 6.1.1.4'
S S 0.3331 0.5567 'International Tables Vol C Tables 4.2.6.8 and 6.1.1.4'
loop_
_geom_angle_atom_site_label_1
_geom_angle_atom_site_label_2
_geom_angle_atom_site_label_3
_geom_angle
O1 S1 O2 120.33(16)
O1 S1 N1 106.49(14)
O2 S1 N1 106.61(15)
O1 S1 C1 107.60(15)
O2 S1 C1 107.91(16)
N1 S1 C1 107.27(14)
C8 N1 C11 109.9(3)
C8 N1 S1 120.1(2)
C11 N1 S1 120.6(2)
C2 C1 C6 120.7(3)
C2 C1 S1 120.1(2)
C6 C1 S1 119.1(3)
C1 C2 C3 119.3(3)
C1 C2 H2 120.4
C3 C2 H2 120.4
C4 C3 C2 120.7(3)
C4 C3 H3 119.6
C2 C3 H3 119.6
C3 C4 C5 119.0(3)
C3 C4 C7 119.8(4)
C5 C4 C7 121.2(3)
C4 C5 C6 121.0(3)
C4 C5 H5 119.5
C6 C5 H5 119.5
C1 C6 C5 119.2(3)
C1 C6 H6 120.4
C5 C6 H6 120.4
C4 C7 H7A 109.5
C4 C7 H7B 109.5
H7A C7 H7B 109.5
C4 C7 H7C 109.5
H7A C7 H7C 109.5
H7B C7 H7C 109.5
N1 C8 C9 103.9(3)
N1 C8 H8A 111.0
C9 C8 H8A 111.0
N1 C8 H8B 111.0
C9 C8 H8B 111.0
H8A C8 H8B 109.0
C10 C9 C8 105.3(3)
C10 C9 H9A 110.7
C8 C9 H9A 110.7
C10 C9 H9B 110.7
C8 C9 H9B 110.7
H9A C9 H9B 108.8
C12 C10 C9 117.8(3)
C12 C10 C11 112.7(3)
C9 C10 C11 101.7(3)
C12 C10 H10 108.1
C9 C10 H10 108.1
C11 C10 H10 108.1
N1 C11 C10 101.7(2)
N1 C11 H11A 111.4
C10 C11 H11A 111.4
N1 C11 H11B 111.4
C10 C11 H11B 111.4
H11A C11 H11B 109.3
C13 C12 C17 117.8(3)
C13 C12 C10 123.5(3)
C17 C12 C10 118.7(3)
C12 C13 C14 120.5(3)
C12 C13 H13 119.8
C14 C13 H13 119.8
C15 C14 C13 121.2(3)
C15 C14 H14 119.4
C13 C14 H14 119.4
C14 C15 C16 118.7(3)
C14 C15 H15 120.6
C16 C15 H15 120.6
C17 C16 C15 120.3(4)
C17 C16 H16 119.9
C15 C16 H16 119.9
C16 C17 C12 121.5(3)
C16 C17 H17 119.2
C12 C17 H17 119.2
loop_
_geom_bond_atom_site_label_1
_geom_bond_atom_site_label_2
_geom_bond_distance
S1 O1 1.429(2)
S1 O2 1.432(3)
S1 N1 1.619(3)
S1 C1 1.761(3)
N1 C8 1.474(4)
N1 C11 1.474(4)
C1 C2 1.380(5)
C1 C6 1.388(4)
C2 C3 1.400(4)
C2 H2 0.9300
C3 C4 1.384(5)
C3 H3 0.9300
C4 C5 1.386(6)
C4 C7 1.516(5)
C5 C6 1.390(4)
C5 H5 0.9300
C6 H6 0.9300
C7 H7A 0.9600
C7 H7B 0.9600
C7 H7C 0.9600
C8 C9 1.533(5)
C8 H8A 0.9700
C8 H8B 0.9700
C9 C10 1.524(5)
C9 H9A 0.9700
C9 H9B 0.9700
C10 C12 1.516(4)
C10 C11 1.525(4)
C10 H10 0.9800
C11 H11A 0.9700
C11 H11B 0.9700
C12 C13 1.382(4)
C12 C17 1.387(5)
C13 C14 1.390(5)
C13 H13 0.9300
C14 C15 1.370(6)
C14 H14 0.9300
C15 C16 1.380(5)
C15 H15 0.9300
C16 C17 1.380(5)
C16 H16 0.9300
C17 H17 0.9300
loop_
_geom_torsion_atom_site_label_1
_geom_torsion_atom_site_label_2
_geom_torsion_atom_site_label_3
_geom_torsion_atom_site_label_4
_geom_torsion
O1 S1 N1 C8 43.3(3)
O2 S1 N1 C8 173.0(3)
C1 S1 N1 C8 -71.6(3)
O1 S1 N1 C11 -173.4(2)
O2 S1 N1 C11 -43.8(3)
C1 S1 N1 C11 71.6(3)
O1 S1 C1 C2 -24.1(3)
O2 S1 C1 C2 -155.4(3)
N1 S1 C1 C2 90.1(3)
O1 S1 C1 C6 158.1(2)
O2 S1 C1 C6 26.9(3)
N1 S1 C1 C6 -87.6(3)
C6 C1 C2 C3 0.3(5)
S1 C1 C2 C3 -177.4(2)
C1 C2 C3 C4 0.6(5)
C2 C3 C4 C5 -1.4(5)
C2 C3 C4 C7 178.1(3)
C3 C4 C5 C6 1.4(5)
C7 C4 C5 C6 -178.1(3)
C2 C1 C6 C5 -0.3(5)
S1 C1 C6 C5 177.4(3)
C4 C5 C6 C1 -0.6(5)
C11 N1 C8 C9 11.0(4)
S1 N1 C8 C9 157.8(2)
N1 C8 C9 C10 15.7(4)
C8 C9 C10 C12 -159.1(3)
C8 C9 C10 C11 -35.4(3)
C8 N1 C11 C10 -33.2(3)
S1 N1 C11 C10 -179.7(2)
C12 C10 C11 N1 168.2(3)
C9 C10 C11 N1 41.1(3)
C9 C10 C12 C13 21.0(5)
C11 C10 C12 C13 -96.9(4)
C9 C10 C12 C17 -160.5(3)
C11 C10 C12 C17 81.6(4)
C17 C12 C13 C14 1.2(6)
C10 C12 C13 C14 179.7(4)
C12 C13 C14 C15 -1.7(6)
C13 C14 C15 C16 0.6(6)
C14 C15 C16 C17 1.0(6)
C15 C16 C17 C12 -1.6(6)
C13 C12 C17 C16 0.4(5)
C10 C12 C17 C16 -178.1(4)
