#------------------------------------------------------------------------------
#$Date: 2019-11-23 21:41:12 +0200 (Sat, 23 Nov 2019) $
#$Revision: 235155 $
#$URL: file:///home/coder/svn-repositories/cod/cif/1/55/35/1553573.cif $
#------------------------------------------------------------------------------
#
# This file is available in the Crystallography Open Database (COD),
# http://www.crystallography.net/
#
# All data on this site have been placed in the public domain by the
# contributors.
#
data_1553573
loop_
_publ_author_name
'Chen, Jichao'
'Wang, Tianyu'
'Wang, Tong'
'Lin, Aijun'
'Yao, Hequan'
'Xu, Jinyi'
_publ_section_title
;
 Copper-catalyzed C5-selective thio/selenocyanation of 8-aminoquinolines
;
_journal_issue                   1
_journal_name_full               'Organic Chemistry Frontiers'
_journal_page_first              130
_journal_paper_doi               10.1039/C6QO00590J
_journal_volume                  4
_journal_year                    2017
_chemical_formula_sum            'C14 H13 N3 O S'
_chemical_formula_weight         271.33
_space_group_crystal_system      triclinic
_space_group_IT_number           2
_space_group_name_Hall           '-P 1'
_space_group_name_H-M_alt        'P -1'
_atom_sites_solution_hydrogens   mixed
_audit_creation_method           SHELXL-2013
_audit_update_record
;
2016-06-05 deposited with the CCDC.
2016-10-24 downloaded from the CCDC.
;
_cell_angle_alpha                85.960(7)
_cell_angle_beta                 77.314(7)
_cell_angle_gamma                66.467(7)
_cell_formula_units_Z            2
_cell_length_a                   7.680(5)
_cell_length_b                   8.494(5)
_cell_length_c                   11.449(7)
_cell_measurement_reflns_used    1593
_cell_measurement_temperature    296(2)
_cell_measurement_theta_max      25.01
_cell_measurement_theta_min      2.619
_cell_volume                     667.9(7)
_computing_structure_refinement  'SHELXL-2013 (Sheldrick, 2013)'
_diffrn_ambient_temperature      296(2)
_diffrn_measured_fraction_theta_full 0.982
_diffrn_measured_fraction_theta_max 0.889
_diffrn_measurement_device_type  'Bruker Smart Aepex CCD'
_diffrn_radiation_type           MoK\a
_diffrn_radiation_wavelength     0.71073
_diffrn_reflns_av_R_equivalents  0.0253
_diffrn_reflns_av_unetI/netI     0.0372
_diffrn_reflns_Laue_measured_fraction_full 0.982
_diffrn_reflns_Laue_measured_fraction_max 0.889
_diffrn_reflns_limit_h_max       9
_diffrn_reflns_limit_h_min       -9
_diffrn_reflns_limit_k_max       9
_diffrn_reflns_limit_k_min       -10
_diffrn_reflns_limit_l_max       14
_diffrn_reflns_limit_l_min       -13
_diffrn_reflns_number            5029
_diffrn_reflns_point_group_measured_fraction_full 0.982
_diffrn_reflns_point_group_measured_fraction_max 0.889
_diffrn_reflns_theta_full        25.242
_diffrn_reflns_theta_max         26.766
_diffrn_reflns_theta_min         1.823
_exptl_absorpt_coefficient_mu    0.237
_exptl_crystal_colour            colorless
_exptl_crystal_density_diffrn    1.349
_exptl_crystal_description       block
_exptl_crystal_F_000             284
_exptl_crystal_size_max          0.100
_exptl_crystal_size_mid          0.100
_exptl_crystal_size_min          0.060
_refine_diff_density_max         0.312
_refine_diff_density_min         -0.224
_refine_diff_density_rms         0.042
_refine_ls_extinction_coef       0.017(8)
_refine_ls_extinction_expression Fc^*^=kFc[1+0.001xFc^2^\l^3^/sin(2\q)]^-1/4^
_refine_ls_extinction_method     SHELXL
_refine_ls_goodness_of_fit_ref   0.986
_refine_ls_hydrogen_treatment    constr
_refine_ls_matrix_type           full
_refine_ls_number_parameters     174
_refine_ls_number_reflns         2544
_refine_ls_number_restraints     280
_refine_ls_restrained_S_all      0.981
_refine_ls_R_factor_all          0.0618
_refine_ls_R_factor_gt           0.0458
_refine_ls_shift/su_max          0.172
_refine_ls_shift/su_mean         0.006
_refine_ls_structure_factor_coef Fsqd
_refine_ls_weighting_details
;
 w=1/[\s^2^(Fo^2^)+(0.1184P)^2^]
 where P=(Fo^2^+2Fc^2^)/3
;
_refine_ls_weighting_scheme      calc
_refine_ls_wR_factor_gt          0.1472
_refine_ls_wR_factor_ref         0.1661
_reflns_Friedel_coverage         0.000
_reflns_number_gt                1906
_reflns_number_total             2544
_reflns_threshold_expression     'I > 2\s(I)'
_cod_data_source_file            c6qo00590j2.cif
_cod_data_source_block           A
_cod_database_code               1553573
_shelx_space_group_comment
;
The symmetry employed for this shelxl refinement is uniquely defined
by the following loop, which should always be used as a source of
symmetry information in preference to the above space-group names.
They are only intended as comments.
;
_shelx_estimated_absorpt_t_min   0.977
_shelx_estimated_absorpt_t_max   0.986
_shelxl_version_number           2013-2
_shelx_res_file
;
TITL A in P-1
CELL 0.71073   7.6804   8.4938  11.4494  85.960  77.314  66.467
ZERR   2  0.0045   0.0049   0.0066   0.007   0.007   0.007
LATT 1
SFAC C  H  N  O  S
UNIT 28 26 6 2 2
L.S. 20
ACTA
BOND $h
FMAP 2
PLAN 2
SIMU 0.01 0.02
DELU 0.01 0.02
ISOR 0.01 0.02
CONF
SIZE 0.1 0.1 0.06
TEMP 23.000
WGHT    0.118400
EXTI    0.017028
FVAR       0.25099
C1    1    0.096379    0.155891    0.589328    11.00000    0.04491    0.04818 =
         0.03505    0.00280   -0.00813   -0.02131
C2    1    0.006721    0.277166    0.512374    11.00000    0.05136    0.05126 =
         0.04417    0.00303   -0.00875   -0.01485
AFIX  43
H2    2   -0.090782    0.381599    0.542336    11.00000   -1.20000
AFIX   0
C3    1    0.062013    0.243689    0.388803    11.00000    0.05369    0.06014 =
         0.04177    0.01114   -0.01268   -0.02054
AFIX  43
H3    2    0.000784    0.327584    0.337760    11.00000   -1.20000
AFIX   0
C4    1    0.201910    0.092903    0.341322    11.00000    0.04984    0.06058 =
         0.03423    0.00297   -0.00925   -0.02699
C5    1    0.299946   -0.037974    0.417139    11.00000    0.04493    0.04957 =
         0.03869    0.00087   -0.00741   -0.02580
C6    1    0.247074   -0.003477    0.542053    11.00000    0.04637    0.04655 =
         0.03659    0.00503   -0.00890   -0.02486
C7    1    0.448331   -0.198009    0.377447    11.00000    0.05847    0.05392 =
         0.04534   -0.00522   -0.00419   -0.02410
AFIX  43
H7    2    0.487265   -0.227088    0.296303    11.00000   -1.20000
AFIX   0
C8    1    0.534583   -0.310067    0.458652    11.00000    0.05887    0.04421 =
         0.06261   -0.00195   -0.00657   -0.01655
AFIX  43
H8    2    0.633072   -0.416268    0.433490    11.00000   -1.20000
AFIX   0
C9    1    0.474067   -0.264300    0.579693    11.00000    0.06035    0.04643 =
         0.06099    0.01082   -0.01747   -0.02032
AFIX  43
H9    2    0.536285   -0.341896    0.633632    11.00000   -1.20000
AFIX   0
C10   1    0.475086    0.049915    0.140413    11.00000    0.06757    0.08239 =
         0.03214   -0.00294   -0.00843   -0.02996
C11   1   -0.086264    0.310281    0.782710    11.00000    0.07079    0.05311 =
         0.04514   -0.00400   -0.00508   -0.02021
C12   1   -0.094086    0.289708    0.915508    11.00000    0.09975    0.07097 =
         0.04198   -0.00656   -0.00397   -0.02571
AFIX  23
H12A  2   -0.131882    0.194789    0.942209    11.00000   -1.20000
H12B  2    0.034987    0.260407    0.929914    11.00000   -1.20000
AFIX   0
C13   1   -0.229706    0.443863    0.987220    11.00000    0.09166    0.11876 =
         0.05894   -0.02508   -0.00717   -0.00679
AFIX  23
H13A  2   -0.357126    0.476336    0.969264    11.00000   -1.20000
H13B  2   -0.187923    0.537102    0.962744    11.00000   -1.20000
AFIX   0
C14   1   -0.247797    0.424376    1.120607    11.00000    0.09666    0.11567 =
         0.05441   -0.02369    0.00103   -0.02326
AFIX 137
H14A  2   -0.264005    0.319454    1.143965    11.00000   -1.50000
H14B  2   -0.358400    0.519766    1.160871    11.00000   -1.50000
H14C  2   -0.132518    0.421486    1.142003    11.00000   -1.50000
AFIX   0
N1    3    0.630246    0.039021    0.106418    11.00000    0.07476    0.14083 =
         0.04900   -0.00986   -0.00274   -0.04658
N2    3    0.334058   -0.117761    0.622303    11.00000    0.05433    0.04823 =
         0.04378    0.00777   -0.01415   -0.02165
N3    3    0.054817    0.175841    0.713797    11.00000    0.05719    0.05304 =
         0.03503    0.00060   -0.00714   -0.01731
AFIX   3
H3A   2    0.141241    0.083028    0.747496    11.00000   -1.20000
AFIX   0
O1    4   -0.197478    0.435623    0.740220    11.00000    0.10587    0.07314 =
         0.05183   -0.00447   -0.00999    0.00698
S1    5    0.246875    0.056688    0.183517    11.00000    0.06483    0.09759 =
         0.03461   -0.00068   -0.01227   -0.03516
HKLF 4

REM  A in P-1
REM R1 =  0.0458 for    1906 Fo > 4sig(Fo)  and  0.0618 for all    2544 data
REM    174 parameters refined using    280 restraints

END

WGHT      0.0782      0.0668

REM Highest difference peak  0.312,  deepest hole -0.224,  1-sigma level  0.042
Q1    1  -0.2715  0.3554  0.9827  11.00000  0.05    0.31
Q2    1  -0.3564  0.3419  0.9870  11.00000  0.05    0.25
;
_shelx_res_checksum              4172
_shelx_hkl_file
;
  -1   0   0    7.56    0.22
  -1   0   0    7.51    0.23
  -1   0   0    7.68    0.23
  -2   0   0    9.06    0.28
  -2   0   0    9.20    0.30
  -2   0   0    9.08    0.30
  -3   0   0    1.19    0.09
  -3   0   0    1.28    0.10
  -3   0   0    1.18    0.08
  -4   0   0   37.64    1.12
  -4   0   0   39.01    1.14
   4   0   0   38.49    1.07
  -5   0   0    1.58    0.15
  -5   0   0    1.42    0.15
   5   0   0    1.80    0.13
  -6   0   0    4.38    0.25
  -6   0   0    4.35    0.25
   6   0   0    4.82    0.24
  -7   0   0    1.95    0.21
  -7   0   0    1.94    0.20
   7   0   0    2.03    0.19
  -8   0   0    0.33    0.11
  -8   0   0    0.08    0.09
  -8   1   0    0.14    0.11
  -7   1   0    0.18    0.09
  -7   1   0    0.09    0.09
   6  -1   0   -0.02    0.05
  -6   1   0    0.09    0.07
  -6   1   0   -0.04    0.06
   5  -1   0    0.41    0.08
  -5   1   0    0.15    0.08
  -5   1   0    0.39    0.09
   4  -1   0    6.78    0.26
  -4   1   0    6.82    0.29
  -4   1   0    6.45    0.29
   3  -1   0    8.56    0.30
  -3   1   0    9.09    0.33
  -3   1   0    9.06    0.33
   2  -1   0    0.02    0.02
  -2   1   0    0.03    0.03
  -2   1   0    0.06    0.04
   1  -1   0   56.10    1.44
  -1   1   0   55.71    1.50
  -1   1   0   54.64    1.53
   0  -1   0  141.55    3.45
   0  -1   0  113.64    3.49
   0   1   0  143.01    3.64
  -1  -1   0    6.44    0.21
  -1  -1   0    5.06    0.21
  -1  -1   0    5.91    0.21
  -2  -1   0   78.35    2.07
  -2  -1   0   81.28    2.17
  -3  -1   0    9.41    0.30
  -3  -1   0    9.21    0.32
  -4  -1   0    0.77    0.09
  -4  -1   0    0.99    0.10
  -5  -1   0    9.73    0.37
  -5  -1   0    9.24    0.35
  -5  -1   0   10.04    0.38
  -6  -1   0    5.74    0.29
  -6  -1   0    6.31    0.29
  -7  -1   0    0.10    0.07
  -7  -1   0    0.02    0.06
   7   1   0    0.07    0.06
  -8  -1   0    0.19    0.10
   8   1   0    0.13    0.08
  -7   2   0    0.99    0.17
  -7   2   0    0.98    0.17
  -6   2   0    0.08    0.08
  -6   2   0    0.14    0.08
   5  -2   0    9.85    0.36
  -5   2   0    9.20    0.41
  -5   2   0    8.73    0.40
   4  -2   0    1.69    0.12
  -4   2   0    1.82    0.17
  -4   2   0    2.01    0.15
   3  -2   0    2.97    0.15
  -3   2   0    3.15    0.18
  -3   2   0    3.02    0.18
   2  -2   0   36.89    0.99
  -2   2   0   35.49    1.08
  -2   2   0   37.47    1.05
   1  -2   0    7.05    0.23
  -1   2   0    7.13    0.24
  -1   2   0    6.77    0.25
   0  -2   0    7.19    0.23
   0  -2   0    7.42    0.23
   0   2   0    7.45    0.24
  -1  -2   0  266.44    7.03
   1   2   0  280.14    7.44
  -2  -2   0  896.85   25.33
  -2  -2   0  925.33   24.86
  -2  -2   0 1000.00   24.08
  -3  -2   0    9.20    0.31
  -3  -2   0    9.63    0.29
  -3  -2   0    8.89    0.31
  -4  -2   0   10.04    0.34
  -4  -2   0   10.70    0.36
  -4  -2   0   10.07    0.36
  -5  -2   0    3.75    0.19
  -5  -2   0    3.48    0.20
  -5  -2   0    3.09    0.17
  -6  -2   0    5.84    0.28
  -6  -2   0    5.78    0.29
  -6  -2   0    6.59    0.28
  -7  -2   0    2.07    0.16
  -7  -2   0    2.43    0.19
  -8  -2   0    2.42    0.24
   8   2   0    3.30    0.23
   9   2   0    0.00    0.08
  -6   3   0    0.51    0.12
  -6   3   0    0.27    0.12
   5  -3   0    0.44    0.09
  -5   3   0    0.32    0.10
  -5   3   0    0.29    0.09
   4  -3   0    0.06    0.05
  -4   3   0    0.09    0.07
  -4   3   0    0.03    0.06
   3  -3   0    0.15    0.05
  -3   3   0    0.15    0.06
  -3   3   0    0.12    0.06
   2  -3   0    0.02    0.03
  -2   3   0    0.02    0.04
  -2   3   0    0.05    0.05
   1  -3   0   11.70    0.39
   1  -3   0   11.74    0.37
  -1   3   0   11.98    0.41
   0  -3   0   17.55    0.53
   0  -3   0   17.91    0.51
   0   3   0   17.67    0.54
  -1  -3   0    2.83    0.13
  -1  -3   0    3.22    0.14
   1   3   0    3.14    0.13
  -2  -3   0    9.14    0.33
  -2  -3   0   11.18    0.34
   2   3   0   11.19    0.32
  -3  -3   0    0.63    0.08
  -3  -3   0    0.66    0.05
  -3  -3   0    0.57    0.07
  -4  -3   0   50.37    1.39
  -4  -3   0   50.54    1.41
  -4  -3   0   50.73    1.42
  -5  -3   0    9.72    0.37
  -5  -3   0    9.58    0.34
  -5  -3   0    9.89    0.37
  -6  -3   0   -0.03    0.06
  -6  -3   0    0.06    0.06
  -7  -3   0    2.06    0.20
  -7  -3   0    1.99    0.19
  -8  -3   0    3.24    0.23
  -8  -3   0    3.63    0.25
  -9  -3   0    0.45    0.13
  -6   4   0   -0.05    0.10
  -6   4   0   -0.07    0.07
  -5   4   0    1.36    0.18
  -5   4   0    1.26    0.17
   4  -4   0    2.75    0.17
  -4   4   0    2.91    0.22
  -4   4   0    2.76    0.20
   3  -4   0   11.08    0.39
  -3   4   0   10.77    0.45
   2  -4   0    0.39    0.07
   2  -4   0    0.31    0.08
  -2   4   0    0.43    0.09
   1  -4   0    6.11    0.26
   1  -4   0    5.85    0.23
  -1   4   0    6.26    0.27
   0  -4   0   10.68    0.36
   0  -4   0   10.64    0.35
   0   4   0   10.40    0.37
  -1  -4   0   20.10    0.60
  -1  -4   0   19.75    0.59
   1   4   0   20.31    0.61
  -2  -4   0   11.21    0.37
  -2  -4   0   11.65    0.37
   2   4   0   11.19    0.35
  -3  -4   0   42.40    1.19
  -3  -4   0   41.16    1.16
   3   4   0   42.37    1.17
  -4  -4   0  101.25    2.73
  -4  -4   0  105.04    2.80
   4   4   0  102.93    2.81
  -5  -4   0   12.82    0.46
  -5  -4   0   12.76    0.45
  -6  -4   0    0.35    0.09
  -6  -4   0    0.23    0.08
  -7  -4   0    0.60    0.11
  -7  -4   0    0.56    0.11
  -8  -4   0    1.06    0.16
  -8  -4   0    1.16    0.16
  -9  -4   0    2.19    0.23
  -9  -4   0    2.11    0.24
   5  -5   0    0.03    0.08
  -5   5   0    0.03    0.09
   4  -5   0    0.10    0.08
  -4   5   0    0.11    0.09
   3  -5   0    0.32    0.09
   3  -5   0    0.27    0.07
  -3   5   0    0.34    0.10
   2  -5   0    1.55    0.16
   2  -5   0    1.80    0.13
  -2   5   0    1.41    0.16
   1  -5   0    0.28    0.07
   1  -5   0    0.35    0.08
  -1   5   0    0.29    0.08
   0  -5   0    1.50    0.13
   0  -5   0    1.28    0.12
   0   5   0    1.53    0.14
  -1  -5   0   -0.02    0.03
  -1  -5   0    0.06    0.04
   1   5   0    0.11    0.05
  -2  -5   0    0.98    0.10
  -2  -5   0    0.88    0.10
   2   5   0    0.84    0.08
  -3  -5   0    4.93    0.23
  -3  -5   0    5.31    0.23
   3   5   0    5.29    0.19
  -4  -5   0    0.24    0.07
  -4  -5   0    0.25    0.07
  -5  -5   0    0.92    0.12
  -5  -5   0    1.71    0.16
  -6  -5   0    4.12    0.23
  -6  -5   0    3.84    0.23
  -7  -5   0    1.52    0.17
  -7  -5   0    1.48    0.17
  -8  -5   0   -0.07    0.07
  -8  -5   0   -0.06    0.05
  -9  -5   0    1.29    0.19
  -9  -5   0    1.33    0.19
   4  -6   0    0.16    0.09
  -4   6   0    0.12    0.09
   3  -6   0   -0.04    0.05
  -3   6   0    0.08    0.08
   2  -6   0    2.79    0.18
   2  -6   0    2.75    0.20
  -2   6   0    2.91    0.22
   1  -6   0    2.47    0.17
   1  -6   0    2.37    0.16
  -1   6   0    2.11    0.20
   0  -6   0    0.69    0.10
   0  -6   0    0.88    0.11
   0   6   0    0.85    0.12
  -1  -6   0    1.79    0.14
  -1  -6   0    1.71    0.13
   1   6   0    1.91    0.14
  -2  -6   0    0.05    0.06
  -2  -6   0    0.01    0.05
   2   6   0    0.06    0.05
  -3  -6   0    2.38    0.16
  -3  -6   0    2.11    0.15
  -4  -6   0    4.50    0.22
  -4  -6   0    4.18    0.23
  -5  -6   0    4.70    0.24
  -5  -6   0    4.67    0.25
  -7  -6   0    0.93    0.14
  -7  -6   0    0.92    0.14
  -8  -6   0    0.20    0.09
  -8  -6   0    0.12    0.09
   4  -7   0    0.05    0.09
   3  -7   0    0.12    0.08
  -3   7   0    0.07    0.09
   2  -7   0   -0.04    0.06
  -2   7   0   -0.03    0.08
   1  -7   0    0.58    0.11
   1  -7   0    0.64    0.11
  -1   7   0    0.57    0.12
   0  -7   0    2.15    0.16
   0   7   0    2.41    0.18
  -1  -7   0    1.82    0.17
  -1  -7   0    1.30    0.14
   1   7   0    1.37    0.14
  -2  -7   0    1.78    0.17
  -2  -7   0    2.00    0.15
  -3  -7   0    0.00    0.06
  -3  -7   0    0.08    0.06
  -4  -7   0    0.06    0.06
  -4  -7   0    0.12    0.07
  -5  -7   0    2.09    0.18
  -5  -7   0    1.72    0.18
  -6  -7   0    0.51    0.11
  -7  -7   0    0.07    0.08
  -8  -7   0    0.35    0.12
  -2   8   0    0.00    0.09
  -1   8   0    0.11    0.09
   0  -8   0    1.27    0.15
   0   8   0    1.21    0.16
  -1  -8   0    0.02    0.07
  -2  -8   0    0.07    0.06
  -3  -8   0    0.03    0.06
  -4  -8   0    0.40    0.10
  -5  -8   0    0.03    0.07
  -6  -8   0    0.57    0.12
  -7  -8   0    0.08    0.08
  -1  -9   0    0.11    0.08
  -2  -9   0    2.68    0.21
  -3  -9   0    0.76    0.14
  -4  -9   0    0.59    0.13
  -5  -9   0    0.12    0.08
  -6  -9   0   -0.08    0.06
  -3 -10   0    0.22    0.10
  -4 -10   0    0.86    0.16
  -5 -10   0    0.18    0.11
  -5 -10   1    0.13    0.09
  -4 -10   1    2.62    0.25
  -3 -10   1    1.60    0.19
  -6  -9   1    0.27    0.11
  -5  -9   1    0.28    0.10
  -4  -9   1    0.16    0.08
  -3  -9   1    1.37    0.17
  -2  -9   1    6.27    0.32
  -7  -8   1    0.53    0.13
  -6  -8   1    0.76    0.14
  -5  -8   1    0.17    0.08
  -4  -8   1    0.52    0.12
  -3  -8   1    0.84    0.13
  -3  -8   1    0.91    0.13
  -2  -8   1    2.48    0.18
  -2  -8   1    1.75    0.18
  -1  -8   1    6.13    0.29
  -1  -8   1    5.54    0.29
   0  -8   1    2.11    0.20
  -1   8  -1    0.02    0.08
   1  -8   1   -0.03    0.06
  -2   8  -1    0.06    0.09
   2  -8   1    0.03    0.07
   3  -8   1    1.19    0.18
  -8  -7   1   -0.02    0.08
  -7  -7   1    0.55    0.12
  -7  -7   1    0.40    0.11
  -6  -7   1   -0.08    0.05
  -6  -7   1    0.01    0.06
  -5  -7   1    0.99    0.14
  -4  -7   1    0.12    0.07
  -4  -7   1    0.01    0.04
  -3  -7   1    1.62    0.16
  -2  -7   1    0.40    0.09
   1   7  -1    3.46    0.20
  -1  -7   1    3.95    0.22
  -1  -7   1    3.67    0.22
   0   7  -1    9.77    0.41
   0  -7   1    9.30    0.37
   0  -7   1    9.75    0.40
  -1   7  -1    0.29    0.09
   1  -7   1    0.04    0.06
  -2   7  -1    0.70    0.13
   2  -7   1    0.78    0.13
  -3   7  -1    0.53    0.14
   3  -7   1    0.67    0.13
  -9  -6   1   -0.06    0.09
  -8  -6   1    0.55    0.13
  -8  -6   1    0.44    0.12
  -7  -6   1    0.01    0.07
  -7  -6   1    0.08    0.07
  -6  -6   1    0.02    0.06
  -6  -6   1    0.02    0.05
  -5  -6   1    6.53    0.31
  -5  -6   1    6.04    0.29
  -4  -6   1    0.17    0.07
  -4  -6   1    0.19    0.07
  -3  -6   1    0.02    0.04
  -3  -6   1    0.16    0.07
  -2  -6   1    2.50    0.16
  -2  -6   1    2.78    0.17
   1   6  -1    2.68    0.16
  -1  -6   1    2.76    0.17
  -1  -6   1    2.79    0.17
   0   6  -1    0.00    0.06
   0  -6   1    0.11    0.06
   0  -6   1    0.23    0.07
  -1   6  -1   11.74    0.47
   1  -6   1   11.98    0.42
   1  -6   1   11.62    0.45
  -2   6  -1    2.60    0.21
   2  -6   1    2.99    0.21
  -3   6  -1    0.28    0.10
   3  -6   1    0.21    0.09
  -4   6  -1    0.04    0.09
   4  -6   1    0.02    0.07
  -9  -5   1   -0.18    0.07
  -8  -5   1    0.97    0.15
  -8  -5   1    1.44    0.19
  -7  -5   1    0.00    0.06
  -7  -5   1    0.01    0.07
  -6  -5   1   -0.03    0.06
  -6  -5   1    0.13    0.07
  -5  -5   1    3.51    0.21
  -5  -5   1    3.61    0.22
  -4  -5   1    3.19    0.19
  -4  -5   1    3.22    0.19
  -3  -5   1    0.07    0.06
  -3  -5   1    0.02    0.05
   2   5  -1    1.10    0.08
  -2  -5   1    1.01    0.11
  -2  -5   1    1.14    0.12
   1   5  -1    5.26    0.22
  -1  -5   1    5.58    0.23
  -1  -5   1    5.35    0.24
   0   5  -1    9.50    0.35
   0  -5   1    9.12    0.35
   0  -5   1    8.96    0.32
  -1   5  -1    0.59    0.10
   1  -5   1    0.53    0.09
   1  -5   1    0.47    0.08
  -2   5  -1    7.33    0.35
   2  -5   1    7.68    0.34
   2  -5   1    7.51    0.29
  -3   5  -1    0.00    0.06
   3  -5   1    0.01    0.06
  -4   5  -1    1.33    0.18
   4  -5   1    1.42    0.18
  -5   5  -1    0.49    0.14
   5  -5   1    0.38    0.12
  -9  -4   1    0.12    0.08
  -9  -4   1    0.20    0.11
  -8  -4   1    0.10    0.09
  -8  -4   1    0.01    0.06
  -7  -4   1    0.51    0.11
  -7  -4   1    0.15    0.07
  -6  -4   1    1.06    0.13
  -6  -4   1    0.68    0.12
  -5  -4   1    0.58    0.10
  -5  -4   1    0.58    0.10
  -4  -4   1    0.25    0.07
  -4  -4   1    0.19    0.07
  -3  -4   1    8.72    0.32
  -3  -4   1    8.81    0.33
   2   4  -1   11.91    0.36
  -2  -4   1   12.05    0.40
  -2  -4   1   12.41    0.40
   1   4  -1    2.38    0.12
  -1  -4   1    2.52    0.13
  -1  -4   1    2.55    0.14
   0   4  -1   31.38    0.91
   0  -4   1   30.92    0.90
   0  -4   1   30.11    0.85
  -1   4  -1    0.11    0.05
   1  -4   1    0.07    0.04
   1  -4   1    0.11    0.05
  -2   4  -1    4.80    0.25
   2  -4   1    4.54    0.19
   2  -4   1    4.60    0.23
  -3   4  -1   11.16    0.46
   3  -4   1   11.58    0.39
   3  -4   1   11.29    0.45
  -4   4  -1    0.24    0.09
   4  -4   1    0.17    0.08
  -5   4  -1    0.55    0.13
   5  -4   1    0.55    0.12
  -6   4  -1   -0.05    0.09
   6  -4   1    0.01    0.08
   9   3  -1   -0.01    0.08
  -8  -3   1    0.00    0.06
  -8  -3   1    0.11    0.09
  -7  -3   1    3.39    0.24
  -7  -3   1    3.66    0.23
  -6  -3   1    2.52    0.18
  -6  -3   1    2.04    0.19
  -5  -3   1    0.28    0.07
  -5  -3   1    0.29    0.08
  -5  -3   1    0.22    0.05
  -4  -3   1    0.26    0.04
  -4  -3   1    0.15    0.06
  -4  -3   1    0.24    0.06
  -3  -3   1    1.03    0.10
  -3  -3   1    0.93    0.09
  -3  -3   1    1.01    0.05
  -2  -3   1    0.37    0.06
  -2  -3   1    0.46    0.06
   1   3  -1    1.94    0.09
  -1  -3   1    2.13    0.11
  -1  -3   1    2.34    0.12
   0   3  -1   45.83    1.29
   0  -3   1   45.16    1.22
   0  -3   1   47.06    1.28
  -1   3  -1    4.41    0.19
   1  -3   1    4.34    0.17
   1  -3   1    4.33    0.19
  -2   3  -1    4.00    0.21
   2  -3   1    4.17    0.20
   2  -3   1    3.93    0.16
  -3   3  -1    0.10    0.06
  -3   3  -1   -0.05    0.05
   3  -3   1    0.00    0.04
  -4   3  -1    1.07    0.14
  -4   3  -1    1.27    0.16
   4  -3   1    1.12    0.11
  -5   3  -1    0.36    0.10
  -5   3  -1    0.65    0.13
  -6   3  -1    0.73    0.14
  -6   3  -1    0.40    0.11
   9   2  -1    0.05    0.08
   8   2  -1    0.55    0.13
  -8  -2   1    0.53    0.13
  -7  -2   1    2.70    0.24
  -7  -2   1    2.02    0.19
  -6  -2   1    0.80    0.12
  -6  -2   1    0.77    0.12
  -6  -2   1    0.69    0.10
  -5  -2   1    4.15    0.22
  -5  -2   1    4.28    0.20
  -5  -2   1    4.29    0.23
  -4  -2   1    4.97    0.20
  -4  -2   1    5.07    0.23
  -4  -2   1    5.04    0.22
  -3  -2   1   27.87    0.78
  -3  -2   1   27.37    0.81
  -3  -2   1   28.01    0.79
  -2  -2   1   29.02    0.83
  -2  -2   1   31.00    0.85
  -2  -2   1   30.36    0.82
   1   2  -1   36.83    1.02
  -1  -2   1   38.05    0.99
  -1  -2   1   37.67    1.03
   0   2  -1  248.69    6.82
   0  -2   1  253.54    6.35
   0  -2   1  248.05    6.64
  -1   2  -1   11.98    0.39
   1  -2   1   12.03    0.38
   1  -2   1   12.19    0.34
  -2   2  -1   11.96    0.40
  -2   2  -1   11.65    0.41
   2  -2   1   11.85    0.35
  -3   2  -1    0.01    0.04
  -3   2  -1   -0.04    0.04
   3  -2   1    0.03    0.03
  -4   2  -1   12.12    0.47
  -4   2  -1   12.38    0.46
   4  -2   1   12.18    0.40
  -5   2  -1    0.52    0.11
  -5   2  -1    0.64    0.12
   5  -2   1    0.83    0.10
  -6   2  -1    0.31    0.10
  -6   2  -1    0.09    0.08
  -7   2  -1    0.03    0.08
  -7   2  -1    0.25    0.11
   8   1  -1    0.60    0.13
  -8  -1   1    0.46    0.12
   7   1  -1    1.33    0.16
  -7  -1   1    1.13    0.16
   6   1  -1    1.08    0.13
  -6  -1   1    1.05    0.14
  -5  -1   1   24.42    0.79
  -5  -1   1   24.86    0.76
  -4  -1   1    1.96    0.12
  -4  -1   1    1.74    0.12
  -4  -1   1    1.68    0.13
  -3  -1   1    8.12    0.28
  -3  -1   1    8.02    0.28
  -3  -1   1    8.45    0.30
  -2  -1   1   35.44    0.96
  -2  -1   1   33.51    0.93
  -2  -1   1   34.33    0.96
  -1  -1   1    9.24    0.27
  -1  -1   1    9.35    0.26
  -1  -1   1    9.44    0.28
   0   1  -1   79.44    2.12
   0  -1   1   77.71    2.00
   0  -1   1   77.46    2.08
  -1   1  -1  183.91    5.05
   1  -1   1  187.73    4.76
  -2   1  -1    5.41    0.21
  -2   1  -1    5.21    0.21
   2  -1   1    5.54    0.18
  -3   1  -1    3.83    0.19
  -3   1  -1    3.83    0.19
   3  -1   1    4.10    0.16
  -4   1  -1    1.07    0.13
  -4   1  -1    1.47    0.14
   4  -1   1    1.33    0.10
  -5   1  -1    2.09    0.17
  -5   1  -1    2.51    0.18
   5  -1   1    2.30    0.15
  -6   1  -1    0.61    0.12
  -6   1  -1    0.48    0.11
   6  -1   1    0.68    0.10
  -7   1  -1    0.27    0.10
  -8   1  -1    0.10    0.10
   8   0  -1    0.19    0.09
  -8   0   1    0.24    0.11
   7   0  -1    0.62    0.12
  -7   0   1    0.46    0.11
  -7   0   1    0.66    0.13
   6   0  -1    1.12    0.13
  -6   0   1    0.99    0.14
  -6   0   1    0.84    0.13
   5   0  -1   13.07    0.45
  -5   0   1   12.53    0.48
  -5   0   1   12.50    0.47
   4   0  -1   14.94    0.48
  -4   0   1   14.62    0.51
  -4   0   1   14.99    0.51
   3   0  -1   25.38    0.72
  -3   0   1   25.37    0.76
  -3   0   1   24.55    0.75
   2   0  -1    4.80    0.18
  -2   0   1    4.89    0.19
  -2   0   1    5.22    0.19
   1   0  -1   68.86    1.71
  -1   0   1   59.58    1.80
  -1   0   1   69.90    1.77
   0   0   1   61.69    1.68
   0   0   1   61.80    1.64
  -1   0  -1   56.88    1.45
  -1   0  -1   56.73    1.51
  -2   0  -1  160.07    4.30
  -2   0  -1  156.18    4.03
  -2   0  -1  158.61    4.19
  -3   0  -1   12.24    0.37
  -3   0  -1   12.31    0.41
  -3   0  -1   11.66    0.39
  -4   0  -1    2.85    0.16
  -4   0  -1    2.71    0.16
  -4   0  -1    2.67    0.14
  -5   0  -1    2.32    0.16
  -5   0  -1    2.32    0.17
   5   0   1    2.34    0.15
  -6   0  -1    1.23    0.15
  -6   0  -1    1.40    0.16
   6   0   1    1.17    0.13
  -7   0  -1    0.03    0.07
  -7   0  -1   -0.06    0.06
   7   0   1    0.07    0.06
  -8   0  -1    0.79    0.15
  -8   0  -1    0.70    0.14
  -8   1   1   -0.03    0.09
   7  -1  -1   -0.07    0.05
  -7   1   1    0.03    0.07
  -7   1   1   -0.06    0.07
   6  -1  -1    1.56    0.16
  -6   1   1    1.07    0.15
  -6   1   1    1.04    0.15
   5  -1  -1    2.00    0.15
  -5   1   1    2.17    0.17
  -5   1   1    1.64    0.17
   4  -1  -1   16.15    0.54
  -4   1   1   17.57    0.58
  -4   1   1   17.77    0.59
   3  -1  -1   62.28    1.66
  -3   1   1   63.01    1.73
  -3   1   1   60.67    1.76
   2  -1  -1    8.66    0.29
  -2   1   1    8.98    0.30
  -2   1   1    8.78    0.31
   1  -1  -1    0.83    0.06
  -1   1   1    0.76    0.07
  -1   1   1    1.06    0.08
   0  -1  -1   20.10    0.53
   0   1   1   19.31    0.53
   0   1   1   19.57    0.56
  -1  -1  -1    2.81    0.10
  -1  -1  -1    2.78    0.10
  -1  -1  -1    2.91    0.09
  -2  -1  -1  432.34   10.47
  -2  -1  -1  379.66   11.02
  -3  -1  -1   57.37    1.61
  -3  -1  -1   59.90    1.64
  -3  -1  -1   58.86    1.55
  -4  -1  -1    1.00    0.10
  -4  -1  -1    1.10    0.11
  -4  -1  -1    0.98    0.09
  -5  -1  -1    5.36    0.25
  -5  -1  -1    5.23    0.23
  -5  -1  -1    5.21    0.24
  -6  -1  -1    1.84    0.17
  -6  -1  -1    2.10    0.16
  -6  -1  -1    2.08    0.15
  -7  -1  -1    0.16    0.08
  -7  -1  -1    0.01    0.06
   7   1   1    0.14    0.07
  -8  -1  -1   -0.05    0.07
  -8  -1  -1    0.00    0.07
  -7   2   1   -0.04    0.07
  -7   2   1    0.15    0.11
   6  -2  -1    0.06    0.06
  -6   2   1    0.14    0.08
  -6   2   1    0.12    0.08
   5  -2  -1    2.66    0.17
  -5   2   1    1.85    0.18
  -5   2   1    2.58    0.20
   4  -2  -1    0.12    0.05
  -4   2   1   -0.01    0.05
  -4   2   1   -0.01    0.06
   3  -2  -1   18.60    0.57
  -3   2   1   18.92    0.63
  -3   2   1   18.64    0.61
   2  -2  -1   54.18    1.43
  -2   2   1   52.14    1.53
  -2   2   1   53.48    1.49
   1  -2  -1   36.12    0.98
  -1   2   1   36.18    1.05
  -1   2   1   37.01    1.02
   0  -2  -1    9.99    0.30
   0  -2  -1    9.77    0.30
   0   2   1   10.07    0.32
  -1  -2  -1  122.48    3.36
  -1  -2  -1  126.14    3.23
   1   2   1  129.86    3.42
  -2  -2  -1  289.43    7.28
  -2  -2  -1  280.94    7.54
  -2  -2  -1  275.74    7.71
  -3  -2  -1   64.40    1.80
  -3  -2  -1   65.62    1.72
  -4  -2  -1    9.55    0.33
  -4  -2  -1    9.38    0.32
  -4  -2  -1    8.94    0.33
  -5  -2  -1   12.89    0.44
  -5  -2  -1   12.13    0.44
  -5  -2  -1   12.39    0.42
  -6  -2  -1    2.04    0.16
  -6  -2  -1    1.94    0.14
  -6  -2  -1    2.06    0.15
  -7  -2  -1   -0.07    0.05
  -7  -2  -1    0.04    0.06
  -7  -2  -1    0.03    0.04
  -8  -2  -1   -0.08    0.06
  -8  -2  -1    0.04    0.07
  -9  -2  -1    0.92    0.17
  -6   3   1    0.09    0.09
  -6   3   1   -0.06    0.07
   5  -3  -1    0.27    0.08
  -5   3   1    0.17    0.09
  -5   3   1    0.06    0.07
   4  -3  -1    0.51    0.09
  -4   3   1    0.44    0.11
  -4   3   1    0.42    0.10
   3  -3  -1    0.60    0.09
  -3   3   1    0.81    0.11
  -3   3   1    0.62    0.11
   2  -3  -1   23.38    0.68
  -2   3   1   23.28    0.72
  -2   3   1   23.10    0.75
   1  -3  -1   39.63    1.06
  -1   3   1   38.73    1.14
  -1   3   1   37.38    1.09
   0  -3  -1   28.54    0.79
   0  -3  -1   28.47    0.80
   0   3   1   27.71    0.83
  -1  -3  -1    1.28    0.07
  -1  -3  -1    1.46    0.09
   1   3   1    1.34    0.09
  -2  -3  -1    0.27    0.05
  -2  -3  -1    0.28    0.04
   2   3   1    0.36    0.05
  -3  -3  -1    2.11    0.12
  -3  -3  -1    2.31    0.12
  -4  -3  -1  172.84    4.61
  -4  -3  -1  183.40    4.84
  -5  -3  -1   10.86    0.37
  -5  -3  -1    9.67    0.38
  -5  -3  -1   11.24    0.39
  -6  -3  -1    1.12    0.13
  -6  -3  -1    1.22    0.12
  -6  -3  -1    1.22    0.13
  -7  -3  -1   -0.01    0.05
  -7  -3  -1    0.19    0.08
  -8  -3  -1    0.86    0.13
  -8  -3  -1    0.71    0.13
  -9  -3  -1    0.02    0.07
  -9  -3  -1    0.00    0.08
  -6   4   1    0.10    0.11
  -6   4   1   -0.01    0.08
  -5   4   1    0.23    0.10
  -5   4   1    0.11    0.08
   4  -4  -1    0.98    0.12
  -4   4   1    0.61    0.12
  -4   4   1    0.90    0.15
   3  -4  -1   -0.01    0.04
  -3   4   1   -0.02    0.06
  -3   4   1   -0.05    0.06
   2  -4  -1    1.01    0.11
  -2   4   1    0.96    0.12
  -2   4   1    1.11    0.13
   1  -4  -1   12.83    0.43
   1  -4  -1   12.23    0.41
  -1   4   1   12.72    0.45
   0  -4  -1   55.54    1.47
   0  -4  -1   54.73    1.50
   0   4   1   52.87    1.55
  -1  -4  -1    9.32    0.30
  -1  -4  -1    9.20    0.32
   1   4   1    9.53    0.33
  -2  -4  -1    0.05    0.03
  -2  -4  -1    0.04    0.04
   2   4   1    0.03    0.04
  -3  -4  -1   15.20    0.49
  -3  -4  -1   16.15    0.48
   3   4   1   15.26    0.48
  -4  -4  -1  122.06    3.26
  -4  -4  -1  126.01    3.34
   4   4   1  125.04    3.40
  -5  -4  -1    8.97    0.36
  -5  -4  -1    9.26    0.32
  -6  -4  -1    4.59    0.23
  -6  -4  -1    4.04    0.23
  -7  -4  -1    0.67    0.11
  -7  -4  -1    0.52    0.10
  -8  -4  -1    0.82    0.14
  -8  -4  -1    0.83    0.14
  -9  -4  -1    0.00    0.07
  -9  -4  -1    0.01    0.08
  -5   5   1    0.26    0.12
   4  -5  -1    0.79    0.14
  -4   5   1    0.94    0.16
   3  -5  -1    0.04    0.06
   3  -5  -1    0.00    0.06
  -3   5   1   -0.07    0.06
   2  -5  -1    2.15    0.16
   2  -5  -1    2.03    0.15
  -2   5   1    1.94    0.19
   1  -5  -1    2.31    0.15
   1  -5  -1    2.15    0.15
  -1   5   1    2.28    0.17
   0  -5  -1    9.30    0.34
   0  -5  -1    9.22    0.33
   0   5   1    8.90    0.36
  -1  -5  -1    2.48    0.13
  -1  -5  -1    2.23    0.15
   1   5   1    2.26    0.15
  -2  -5  -1   10.27    0.36
  -2  -5  -1    9.96    0.33
   2   5   1    9.66    0.35
  -3  -5  -1    1.47    0.11
  -3  -5  -1    1.42    0.13
   3   5   1    1.50    0.11
  -4  -5  -1    0.25    0.07
  -4  -5  -1    0.31    0.06
   4   5   1    0.22    0.06
  -5  -5  -1    0.52    0.09
  -5  -5  -1    0.41    0.09
  -6  -5  -1   47.88    1.33
  -6  -5  -1   42.74    1.32
  -7  -5  -1    0.08    0.06
  -7  -5  -1    0.14    0.07
  -8  -5  -1    0.29    0.10
  -8  -5  -1    0.24    0.10
  -9  -5  -1   -0.02    0.09
  -9  -5  -1    0.05    0.08
   4  -6  -1    0.32    0.11
  -4   6   1    0.20    0.11
   3  -6  -1    1.08    0.15
  -3   6   1    0.78    0.15
   2  -6  -1    0.36    0.09
   2  -6  -1    0.25    0.08
  -2   6   1    0.23    0.10
   1  -6  -1    0.48    0.09
   1  -6  -1    0.74    0.11
  -1   6   1    0.78    0.12
   0  -6  -1    3.99    0.21
   0  -6  -1    3.99    0.21
   0   6   1    4.29    0.23
  -1  -6  -1    0.23    0.07
  -1  -6  -1    0.29    0.07
   1   6   1    0.35    0.08
  -2  -6  -1    7.48    0.31
  -2  -6  -1    7.83    0.29
   2   6   1    7.64    0.30
  -3  -6  -1    1.53    0.15
  -3  -6  -1    1.30    0.12
   3   6   1    1.40    0.12
  -4  -6  -1    0.90    0.11
  -4  -6  -1    0.71    0.11
  -5  -6  -1    0.10    0.06
  -5  -6  -1   -0.01    0.05
  -6  -6  -1   23.42    0.78
  -6  -6  -1   23.11    0.75
  -7  -6  -1   -0.03    0.06
  -8  -6  -1    2.07    0.21
  -9  -6  -1   -0.06    0.07
   4  -7  -1    0.12    0.10
   3  -7  -1    0.12    0.09
  -3   7   1    0.15    0.11
   2  -7  -1    0.74    0.12
  -2   7   1    0.59    0.14
   1  -7  -1    0.02    0.05
   1  -7  -1    0.04    0.03
  -1   7   1    0.11    0.08
   0  -7  -1    0.41    0.09
   0  -7  -1    0.28    0.08
   0   7   1    0.37    0.10
  -1  -7  -1    3.12    0.18
  -1  -7  -1    2.96    0.20
   1   7   1    2.81    0.19
  -2  -7  -1   -0.10    0.04
   2   7   1   -0.03    0.05
  -3  -7  -1    0.14    0.07
  -4  -7  -1    5.16    0.27
  -5  -7  -1    0.06    0.07
  -6  -7  -1    0.02    0.07
  -7  -7  -1    0.40    0.11
  -8  -7  -1    8.37    0.42
  -2   8   1    0.03    0.10
  -1   8   1    0.52    0.13
   0  -8  -1    0.12    0.08
   0   8   1    0.17    0.09
  -1  -8  -1    2.17    0.20
   1   8   1    2.17    0.18
  -2  -8  -1    0.87    0.13
  -3  -8  -1    0.27    0.08
  -4  -8  -1    0.98    0.14
  -5  -8  -1   -0.05    0.06
  -6  -8  -1   -0.01    0.07
  -7  -8  -1    0.19    0.10
  -1   9   1    0.22    0.11
  -1  -9  -1   -0.01    0.07
  -2  -9  -1    0.13    0.09
  -3  -9  -1    0.19    0.09
  -4  -9  -1   -0.02    0.07
  -5  -9  -1    0.11    0.09
  -6  -9  -1    0.20    0.10
  -7  -9  -1    0.05    0.08
  -2 -10  -1    0.14    0.10
  -3 -10  -1    0.35    0.12
  -4 -10  -1    0.34    0.12
  -5 -10  -1   -0.01    0.08
  -5 -10   2    0.45    0.13
  -4 -10   2    2.05    0.22
  -6  -9   2    0.69    0.14
  -5  -9   2    0.14    0.09
  -4  -9   2    0.14    0.08
  -3  -9   2    0.01    0.07
   0  -9   2    0.13    0.09
   1  -9   2   -0.09    0.07
  -7  -8   2   -0.02    0.08
  -6  -8   2    2.15    0.21
  -6  -8   2    1.92    0.21
  -5  -8   2    0.27    0.10
  -5  -8   2    0.35    0.10
  -4  -8   2    0.40    0.11
  -4  -8   2    0.75    0.12
  -3  -8   2    0.06    0.08
  -3  -8   2    0.07    0.07
  -2  -8   2    6.37    0.32
  -2  -8   2    6.52    0.30
  -1  -8   2    2.14    0.20
   0  -8   2    3.62    0.24
   1  -8   2    0.66    0.13
  -2   8  -2    0.00    0.09
   2  -8   2    0.12    0.08
  -8  -7   2    0.18    0.10
  -7  -7   2    0.12    0.08
  -7  -7   2    0.14    0.09
  -6  -7   2    0.01    0.07
  -6  -7   2    0.05    0.07
  -5  -7   2    0.02    0.07
  -5  -7   2    0.02    0.06
  -4  -7   2   10.65    0.43
  -4  -7   2   10.60    0.44
  -3  -7   2    0.79    0.13
  -3  -7   2    0.55    0.10
  -2  -7   2   -0.02    0.05
  -2  -7   2    0.01    0.06
  -1  -7   2    0.08    0.06
  -1  -7   2    0.00    0.05
   0   7  -2   17.87    0.63
   0  -7   2   17.93    0.64
  -1   7  -2    1.56    0.17
   1  -7   2    1.73    0.18
  -2   7  -2   -0.01    0.08
   2  -7   2    0.06    0.07
  -3   7  -2    0.10    0.10
   3  -7   2    0.00    0.07
  -8  -6   2    0.35    0.12
  -8  -6   2    0.13    0.09
  -7  -6   2    0.49    0.12
  -7  -6   2    0.75    0.14
  -6  -6   2    0.01    0.06
  -6  -6   2    0.01    0.06
  -5  -6   2    0.80    0.13
  -5  -6   2    0.91    0.13
  -4  -6   2    7.77    0.34
  -4  -6   2    7.43    0.33
  -3  -6   2    0.04    0.06
  -3  -6   2    0.08    0.06
  -2  -6   2    0.97    0.13
  -2  -6   2    0.68    0.10
   1   6  -2   -0.02    0.05
  -1  -6   2    0.07    0.05
  -1  -6   2    0.04    0.06
   0   6  -2   16.57    0.56
   0  -6   2   15.98    0.52
   0  -6   2   15.78    0.56
  -1   6  -2   12.23    0.47
   1  -6   2   11.53    0.46
  -2   6  -2   12.28    0.50
   2  -6   2   11.62    0.48
  -3   6  -2    0.65    0.14
   3  -6   2    0.90    0.14
  -4   6  -2    0.00    0.09
   4  -6   2    0.05    0.08
  -8  -5   2    0.53    0.13
  -8  -5   2    0.64    0.13
  -7  -5   2    0.89    0.15
  -7  -5   2    1.06    0.15
  -6  -5   2    0.32    0.09
  -6  -5   2    0.36    0.09
  -5  -5   2    1.16    0.14
  -5  -5   2    0.76    0.12
  -4  -5   2    0.20    0.08
  -4  -5   2    0.08    0.06
  -3  -5   2    3.76    0.19
  -3  -5   2    3.33    0.20
   2   5  -2   32.09    0.91
  -2  -5   2   31.82    0.92
  -2  -5   2   32.68    0.97
   1   5  -2    4.37    0.19
  -1  -5   2    4.31    0.19
  -1  -5   2    4.33    0.21
   0   5  -2    1.27    0.12
   0  -5   2    1.18    0.12
   0  -5   2    1.10    0.10
  -1   5  -2    2.29    0.17
   1  -5   2    2.76    0.14
   1  -5   2    2.22    0.17
  -2   5  -2   18.87    0.66
   2  -5   2   18.51    0.65
  -3   5  -2    3.81    0.26
   3  -5   2    3.98    0.25
  -4   5  -2    0.31    0.11
   4  -5   2    0.43    0.11
  -5   5  -2    0.01    0.08
   5  -5   2    0.15    0.09
  -8  -4   2    0.82    0.14
  -8  -4   2    0.94    0.16
  -7  -4   2    0.96    0.15
  -7  -4   2    0.92    0.14
  -6  -4   2    0.03    0.06
  -6  -4   2    0.00    0.05
  -5  -4   2    3.26    0.20
  -5  -4   2    3.59    0.21
  -4  -4   2    0.26    0.07
  -4  -4   2    0.24    0.07
  -3  -4   2   17.45    0.57
  -3  -4   2   18.94    0.59
   2   4  -2    1.90    0.07
  -2  -4   2    1.87    0.13
  -2  -4   2    2.10    0.13
   1   4  -2    0.18    0.04
  -1  -4   2    0.08    0.04
  -1  -4   2    0.13    0.05
   0   4  -2    5.94    0.24
   0  -4   2    6.37    0.26
   0  -4   2    6.25    0.22
  -1   4  -2   11.57    0.41
   1  -4   2   11.66    0.42
   1  -4   2   11.64    0.36
  -2   4  -2    4.01    0.22
   2  -4   2    3.96    0.17
   2  -4   2    3.97    0.22
  -3   4  -2   15.70    0.59
   3  -4   2   15.55    0.57
  -4   4  -2   19.11    0.71
   4  -4   2   18.20    0.68
  -5   4  -2    0.10    0.09
   5  -4   2    0.07    0.08
  -6   4  -2   -0.04    0.08
   6  -4   2    0.09    0.09
  -8  -3   2    0.18    0.10
  -7  -3   2    0.73    0.13
  -7  -3   2    0.82    0.13
  -6  -3   2    1.69    0.17
  -6  -3   2    2.10    0.20
  -5  -3   2    9.88    0.39
  -5  -3   2   10.50    0.41
  -4  -3   2    0.35    0.08
  -4  -3   2    0.30    0.04
  -4  -3   2    0.21    0.06
  -3  -3   2    9.38    0.33
  -3  -3   2    9.13    0.34
  -2  -3   2    3.30    0.16
  -2  -3   2    3.29    0.15
   1   3  -2   14.07    0.41
  -1  -3   2   13.86    0.42
  -1  -3   2   14.28    0.45
   0   3  -2   99.72    2.70
   0  -3   2   97.94    2.53
   0  -3   2   97.56    2.66
  -1   3  -2    3.46    0.17
   1  -3   2    3.20    0.13
   1  -3   2    3.37    0.17
  -2   3  -2    1.19    0.12
   2  -3   2    1.19    0.12
   2  -3   2    1.33    0.08
  -3   3  -2    3.51    0.21
   3  -3   2    3.28    0.20
   3  -3   2    3.44    0.15
  -4   3  -2   12.13    0.49
   4  -3   2   11.66    0.47
  -5   3  -2    7.71    0.38
  -6   3  -2    0.06    0.08
  -6   3  -2    0.04    0.08
   8   2  -2   -0.01    0.07
  -8  -2   2   -0.06    0.08
   7   2  -2    0.06    0.07
  -7  -2   2    0.07    0.07
  -6  -2   2    2.18    0.18
  -6  -2   2    2.01    0.16
  -5  -2   2    3.55    0.20
  -5  -2   2    2.97    0.19
  -5  -2   2    3.51    0.18
  -4  -2   2    7.11    0.25
  -4  -2   2    7.13    0.29
  -4  -2   2    6.89    0.29
  -3  -2   2    3.80    0.18
  -3  -2   2    3.69    0.18
  -3  -2   2    4.04    0.14
  -2  -2   2    9.56    0.31
  -2  -2   2    9.47    0.27
  -2  -2   2    9.58    0.33
   1   2  -2   31.70    0.84
  -1  -2   2   30.30    0.87
  -1  -2   2   30.63    0.83
   0   2  -2    0.03    0.03
   0  -2   2    0.09    0.02
   0  -2   2    0.11    0.04
  -1   2  -2   11.58    0.38
   1  -2   2   11.63    0.32
   1  -2   2   11.85    0.38
  -2   2  -2    0.09    0.04
   2  -2   2    0.10    0.03
   2  -2   2    0.06    0.04
  -3   2  -2    8.93    0.34
  -3   2  -2    8.51    0.35
   3  -2   2    8.81    0.28
  -4   2  -2    0.02    0.05
  -4   2  -2    0.02    0.05
   4  -2   2    0.02    0.04
  -5   2  -2   16.15    0.60
  -5   2  -2   15.60    0.58
  -6   2  -2    4.98    0.30
  -6   2  -2    4.72    0.29
  -7   2  -2    0.03    0.08
  -7   2  -2   -0.04    0.07
   8   1  -2   -0.08    0.06
  -8  -1   2   -0.07    0.07
   7   1  -2    0.13    0.07
  -7  -1   2    0.01    0.07
   6   1  -2   -0.08    0.04
  -6  -1   2    0.02    0.05
  -6  -1   2    0.02    0.06
   5   1  -2    7.51    0.32
  -5  -1   2    7.30    0.30
  -5  -1   2    7.16    0.33
  -4  -1   2   -0.03    0.03
  -4  -1   2    0.02    0.04
  -4  -1   2   -0.03    0.04
  -3  -1   2   28.62    0.87
  -3  -1   2   30.13    0.85
  -3  -1   2   31.09    0.87
  -2  -1   2    0.30    0.05
  -2  -1   2    0.37    0.04
  -2  -1   2    0.31    0.05
  -1  -1   2    7.91    0.25
  -1  -1   2    8.09    0.27
  -1  -1   2    8.20    0.24
   0   1  -2    5.26    0.17
   0  -1   2    5.35    0.18
   0  -1   2    5.26    0.16
  -1   1  -2   81.04    2.25
   1  -1   2   83.14    2.20
  -2   1  -2    5.77    0.22
  -2   1  -2    5.38    0.21
   2  -1   2    5.50    0.17
  -3   1  -2   11.22    0.40
  -3   1  -2   11.56    0.39
   3  -1   2   11.20    0.33
  -4   1  -2    2.95    0.18
  -4   1  -2    2.92    0.18
   4  -1   2    2.74    0.13
  -5   1  -2    5.53    0.28
  -5   1  -2    5.35    0.28
   5  -1   2    5.78    0.23
  -6   1  -2    0.07    0.07
  -6   1  -2    0.23    0.08
  -7   1  -2    2.84    0.22
  -7   1  -2    2.30    0.23
  -8   1  -2    0.13    0.10
  -8   1  -2    0.10    0.09
   8   0  -2    0.08    0.09
   7   0  -2   -0.04    0.05
  -7   0   2    0.06    0.07
  -7   0   2    0.08    0.08
   6   0  -2    0.03    0.05
  -6   0   2    0.05    0.06
  -6   0   2    0.01    0.06
   5   0  -2    0.67    0.10
  -5   0   2    0.62    0.10
  -5   0   2    0.75    0.12
   4   0  -2    1.57    0.12
  -4   0   2    1.38    0.13
  -4   0   2    1.38    0.14
   3   0  -2    3.57    0.17
  -3   0   2    3.61    0.18
  -3   0   2    3.75    0.17
   2   0  -2   38.81    1.04
  -2   0   2   36.59    1.09
  -2   0   2   39.44    1.08
   1   0  -2    3.09    0.12
  -1   0   2    2.92    0.12
   0   0   2    1.95    0.08
   0   0   2    2.03    0.09
  -1   0  -2   42.54    1.22
  -1   0  -2   44.27    1.13
   1   0   2   45.78    1.19
  -2   0  -2    2.88    0.14
  -2   0  -2    2.74    0.12
  -2   0  -2    2.86    0.10
  -3   0  -2    3.96    0.18
  -3   0  -2    4.29    0.15
  -3   0  -2    4.41    0.19
  -4   0  -2    1.53    0.12
  -4   0  -2    1.66    0.12
  -4   0  -2    1.55    0.10
  -5   0  -2    5.33    0.26
  -5   0  -2    5.62    0.26
   5   0   2    5.20    0.22
  -6   0  -2    4.41    0.25
  -6   0  -2    4.40    0.25
   6   0   2    3.92    0.21
  -7   0  -2    2.78    0.21
  -7   0  -2    2.59    0.21
  -8   0  -2    1.07    0.17
  -8   0  -2    0.98    0.17
  -8   1   2    0.52    0.14
   7  -1  -2    1.03    0.15
  -7   1   2    0.77    0.15
  -7   1   2    1.03    0.17
   6  -1  -2    0.21    0.08
  -6   1   2    0.27    0.09
  -6   1   2    0.47    0.11
   5  -1  -2    0.54    0.09
  -5   1   2    0.50    0.10
  -5   1   2    0.51    0.10
   4  -1  -2    6.17    0.27
  -4   1   2    7.02    0.30
  -4   1   2    6.93    0.30
   3  -1  -2    0.21    0.05
  -3   1   2    0.15    0.06
  -3   1   2    0.19    0.06
   2  -1  -2    5.18    0.20
  -2   1   2    4.99    0.21
  -2   1   2    5.44    0.22
   1  -1  -2   34.57    0.95
  -1   1   2   35.32    1.00
  -1   1   2   35.25    0.97
   0  -1  -2   14.17    0.39
   0   1   2   13.51    0.38
   0   1   2   13.89    0.42
  -1  -1  -2    1.57    0.07
   1   1   2    1.39    0.08
   1   1   2    1.47    0.05
  -2  -1  -2    2.06    0.09
  -2  -1  -2    2.12    0.11
  -3  -1  -2   13.14    0.41
  -3  -1  -2   13.02    0.43
  -3  -1  -2   13.59    0.39
  -4  -1  -2   16.12    0.53
  -4  -1  -2   15.90    0.51
  -4  -1  -2   16.20    0.48
  -5  -1  -2    7.44    0.28
  -5  -1  -2    7.16    0.31
  -5  -1  -2    7.30    0.30
  -6  -1  -2    5.53    0.25
  -6  -1  -2    5.97    0.29
  -6  -1  -2    5.91    0.29
  -7  -1  -2    0.27    0.09
  -7  -1  -2    0.11    0.07
  -8  -1  -2   -0.04    0.07
  -8  -1  -2   -0.03    0.07
   7  -2  -2    0.30    0.10
  -7   2   2    0.37    0.12
  -7   2   2    0.33    0.12
   6  -2  -2    0.07    0.06
  -6   2   2    0.19    0.09
  -6   2   2    0.28    0.10
   5  -2  -2    0.26    0.07
  -5   2   2    0.30    0.09
  -5   2   2    0.18    0.09
   4  -2  -2    3.58    0.20
  -4   2   2    4.07    0.23
  -4   2   2    4.27    0.24
   3  -2  -2    0.89    0.10
  -3   2   2    0.77    0.11
  -3   2   2    0.80    0.10
   2  -2  -2   26.02    0.76
  -2   2   2   26.29    0.82
  -2   2   2   26.44    0.78
   1  -2  -2   35.82    0.99
  -1   2   2   36.46    1.06
  -1   2   2   36.56    1.02
   0  -2  -2   55.25    1.47
   0   2   2   55.37    1.56
   0   2   2   56.17    1.49
  -1  -2  -2   41.95    1.12
   1   2   2   42.04    1.19
  -2  -2  -2   27.72    0.76
  -2  -2  -2   28.40    0.77
  -3  -2  -2   30.05    0.84
  -3  -2  -2   31.01    0.85
  -4  -2  -2    3.96    0.18
  -4  -2  -2    4.28    0.18
  -5  -2  -2    0.04    0.05
  -5  -2  -2    0.01    0.04
  -5  -2  -2    0.10    0.05
  -6  -2  -2    3.42    0.20
  -6  -2  -2    3.38    0.19
  -6  -2  -2    3.50    0.21
  -7  -2  -2    0.15    0.07
  -7  -2  -2    0.18    0.08
  -7  -2  -2    0.11    0.06
  -8  -2  -2    1.36    0.17
  -8  -2  -2    1.46    0.17
  -9  -2  -2    0.29    0.12
   6  -3  -2    0.68    0.12
  -6   3   2    0.74    0.15
  -6   3   2    0.66    0.14
   5  -3  -2    1.88    0.17
  -5   3   2    1.42    0.18
  -5   3   2    1.64    0.20
   4  -3  -2    5.19    0.25
  -4   3   2    5.29    0.28
  -4   3   2    5.63    0.30
   3  -3  -2    1.03    0.12
  -3   3   2    1.16    0.13
  -3   3   2    1.34    0.15
   2  -3  -2    6.31    0.25
  -2   3   2    6.01    0.26
  -2   3   2    6.02    0.28
   1  -3  -2   10.46    0.35
  -1   3   2   10.17    0.35
  -1   3   2   10.10    0.38
   0  -3  -2   12.97    0.41
   0   3   2   12.81    0.43
  -1  -3  -2    3.67    0.13
  -1  -3  -2    3.58    0.16
   1   3   2    3.89    0.17
  -2  -3  -2    0.47    0.06
  -2  -3  -2    0.66    0.05
   2   3   2    0.67    0.07
  -3  -3  -2    0.06    0.03
  -3  -3  -2   -0.03    0.03
   3   3   2    0.00    0.03
  -4  -3  -2   11.98    0.39
  -4  -3  -2   11.26    0.39
  -4  -3  -2   12.03    0.38
  -5  -3  -2    0.80    0.09
  -5  -3  -2    0.76    0.10
  -6  -3  -2   13.12    0.47
  -6  -3  -2   13.37    0.49
  -6  -3  -2   14.09    0.48
  -7  -3  -2    0.01    0.05
  -7  -3  -2    0.01    0.05
  -7  -3  -2    0.07    0.06
  -8  -3  -2    0.82    0.13
  -8  -3  -2    1.06    0.15
  -9  -3  -2   -0.15    0.06
  -6   4   2    0.05    0.09
   5  -4  -2    0.63    0.11
  -5   4   2    0.58    0.14
  -5   4   2    0.87    0.15
   4  -4  -2    0.54    0.10
  -4   4   2    0.40    0.10
  -4   4   2    0.44    0.11
   3  -4  -2    0.26    0.07
  -3   4   2    0.42    0.09
  -3   4   2    0.25    0.09
   2  -4  -2    5.35    0.24
  -2   4   2    5.40    0.27
  -2   4   2    5.16    0.25
   1  -4  -2    0.01    0.04
  -1   4   2    0.06    0.04
  -1   4   2    0.00    0.05
   0  -4  -2   16.39    0.51
   0  -4  -2   16.92    0.52
   0   4   2   16.64    0.56
  -1  -4  -2   64.70    1.74
  -1  -4  -2   64.38    1.74
   1   4   2   64.98    1.83
  -2  -4  -2    0.93    0.10
  -2  -4  -2    0.96    0.07
   2   4   2    1.24    0.10
  -3  -4  -2    6.38    0.25
  -3  -4  -2    5.73    0.21
   3   4   2    6.09    0.24
  -4  -4  -2    4.11    0.20
  -4  -4  -2    3.79    0.17
   4   4   2    4.02    0.18
  -5  -4  -2    0.83    0.09
  -5  -4  -2    0.78    0.11
  -5  -4  -2    0.87    0.10
  -6  -4  -2    0.08    0.06
  -6  -4  -2    0.15    0.07
  -6  -4  -2    0.12    0.06
  -7  -4  -2    0.71    0.11
  -7  -4  -2    0.91    0.13
  -8  -4  -2    1.46    0.17
  -8  -4  -2    0.92    0.14
  -9  -4  -2   -0.08    0.07
  -9  -4  -2    0.14    0.08
  -5   5   2    0.80    0.15
  -5   5   2    0.53    0.15
   4  -5  -2    0.88    0.13
  -4   5   2    0.50    0.13
  -4   5   2    0.56    0.12
   3  -5  -2    0.28    0.08
  -3   5   2    0.31    0.10
   2  -5  -2    2.40    0.17
   2  -5  -2    2.63    0.18
  -2   5   2    2.55    0.20
   1  -5  -2    0.31    0.08
   1  -5  -2    0.37    0.07
  -1   5   2    0.59    0.11
   0  -5  -2    3.53    0.19
   0  -5  -2    3.48    0.17
   0   5   2    3.50    0.21
  -1  -5  -2   37.26    1.02
  -1  -5  -2   36.58    1.04
   1   5   2   35.03    1.08
  -2  -5  -2    3.60    0.15
  -2  -5  -2    3.42    0.18
   2   5   2    3.44    0.18
  -3  -5  -2    2.37    0.16
  -3  -5  -2    2.56    0.13
   3   5   2    2.42    0.14
  -4  -5  -2    2.80    0.14
  -4  -5  -2    2.17    0.16
   4   5   2    2.72    0.15
  -5  -5  -2    1.37    0.12
  -5  -5  -2    1.13    0.13
   5   5   2    1.27    0.12
  -6  -5  -2   12.64    0.45
  -6  -5  -2   12.64    0.48
  -7  -5  -2    1.60    0.17
  -7  -5  -2    1.35    0.15
  -8  -5  -2    1.89    0.19
  -9  -5  -2    0.24    0.10
   4  -6  -2    0.11    0.09
  -4   6   2    0.04    0.10
   3  -6  -2    0.07    0.07
   3  -6  -2    0.15    0.08
  -3   6   2    0.07    0.09
   2  -6  -2    0.01    0.05
   2  -6  -2   -0.03    0.05
  -2   6   2   -0.02    0.06
   1  -6  -2    0.21    0.07
   1  -6  -2    0.25    0.07
  -1   6   2    0.30    0.10
   0  -6  -2    7.39    0.30
   0  -6  -2    6.96    0.31
   0   6   2    7.64    0.34
  -1  -6  -2    2.09    0.13
  -1  -6  -2    1.97    0.15
   1   6   2    2.15    0.16
  -2  -6  -2   13.58    0.48
  -2  -6  -2   13.44    0.43
   2   6   2   13.35    0.47
  -3  -6  -2    9.85    0.38
   3   6   2    9.14    0.36
  -4  -6  -2    0.21    0.07
   4   6   2    0.28    0.07
  -5  -6  -2    3.99    0.23
  -6  -6  -2    3.06    0.21
  -7  -6  -2    0.00    0.06
  -8  -6  -2    0.33    0.11
  -9  -6  -2    0.56    0.13
  -3   7   2    0.81    0.17
   2  -7  -2    0.06    0.07
  -2   7   2   -0.09    0.07
   1  -7  -2    0.66    0.12
  -1   7   2    0.64    0.13
   0  -7  -2    1.95    0.18
   0   7   2    1.85    0.18
  -1  -7  -2    0.58    0.10
   1   7   2    0.40    0.10
  -2  -7  -2    0.48    0.10
   2   7   2    0.37    0.09
  -3  -7  -2    7.83    0.35
   3   7   2    7.52    0.32
  -4  -7  -2    1.64    0.17
  -5  -7  -2    2.32    0.21
  -6  -7  -2    0.04    0.07
  -7  -7  -2   -0.03    0.07
  -8  -7  -2    3.94    0.27
  -2   8   2    0.02    0.10
   1  -8  -2    0.10    0.08
  -1   8   2   -0.03    0.08
   0  -8  -2    0.05    0.07
   0   8   2    0.11    0.09
  -1  -8  -2    0.30    0.09
   1   8   2    0.22    0.09
  -2  -8  -2    1.21    0.16
  -3  -8  -2    0.03    0.07
  -4  -8  -2    1.57    0.18
  -5  -8  -2    1.98    0.20
  -6  -8  -2    0.57    0.12
  -7  -8  -2    0.19    0.10
  -8  -8  -2    0.33    0.12
  -1   9   2    0.67    0.15
   0  -9  -2    0.07    0.08
   0   9   2    0.03    0.09
  -1  -9  -2    0.07    0.09
  -2  -9  -2    0.38    0.10
  -3  -9  -2    0.10    0.08
  -4  -9  -2    0.17    0.10
  -5  -9  -2    1.62    0.20
  -6  -9  -2    1.07    0.17
  -7  -9  -2    0.24    0.11
  -1 -10  -2    0.03    0.08
  -2 -10  -2    0.15    0.09
  -3 -10  -2   -0.02    0.08
  -4 -10  -2    0.28    0.11
  -5 -10  -2    0.09    0.09
  -5 -10   3   -0.05    0.08
  -6  -9   3    0.44    0.12
  -5  -9   3   -0.09    0.07
  -4  -9   3    0.18    0.09
  -4  -9   3    0.16    0.10
  -3  -9   3    0.10    0.09
  -3  -9   3    0.15    0.08
  -2  -9   3    0.74    0.15
  -1  -9   3    0.83    0.15
   0  -9   3    0.32    0.11
   1  -9   3    0.12    0.10
  -7  -8   3    0.39    0.12
  -7  -8   3    0.43    0.13
  -6  -8   3    0.21    0.10
  -6  -8   3    0.27    0.10
  -5  -8   3   -0.03    0.07
  -5  -8   3   -0.02    0.08
  -4  -8   3   -0.04    0.07
  -4  -8   3    0.11    0.07
  -3  -8   3    0.57    0.11
  -3  -8   3    0.49    0.12
  -2  -8   3    1.35    0.15
  -2  -8   3    1.22    0.17
  -1  -8   3    0.75    0.13
   0  -8   3    0.00    0.07
   1  -8   3    0.57    0.12
  -2   8  -3    0.07    0.09
   2  -8   3    0.17    0.09
  -8  -7   3    0.66    0.15
  -7  -7   3    0.29    0.11
  -7  -7   3    0.27    0.11
  -6  -7   3   -0.05    0.07
  -6  -7   3    0.09    0.09
  -5  -7   3    0.78    0.13
  -5  -7   3    0.85    0.14
  -4  -7   3    2.86    0.21
  -4  -7   3    3.00    0.20
  -3  -7   3    1.20    0.14
  -3  -7   3    1.15    0.15
  -2  -7   3    0.49    0.09
  -2  -7   3    0.54    0.11
  -1  -7   3   -0.03    0.06
  -1  -7   3   -0.03    0.04
   0  -7   3    2.76    0.20
  -1   7  -3    0.88    0.14
   1  -7   3    1.20    0.15
  -2   7  -3    0.48    0.12
   2  -7   3    0.57    0.12
  -3   7  -3    0.24    0.10
   3  -7   3    0.17    0.09
  -8  -6   3    0.50    0.13
  -7  -6   3   -0.03    0.07
  -7  -6   3    0.09    0.08
  -6  -6   3    0.28    0.09
  -6  -6   3    0.49    0.12
  -5  -6   3    2.76    0.20
  -5  -6   3    2.79    0.21
  -4  -6   3    2.03    0.18
  -4  -6   3    2.20    0.20
  -3  -6   3    1.43    0.15
  -3  -6   3    1.49    0.15
  -2  -6   3    3.02    0.17
  -2  -6   3    2.79    0.19
  -1  -6   3    3.33    0.18
  -1  -6   3    3.70    0.21
   0   6  -3    1.13    0.13
   0  -6   3    1.03    0.11
   0  -6   3    0.90    0.13
  -1   6  -3    0.05    0.07
   1  -6   3    0.14    0.07
  -2   6  -3    2.84    0.22
   2  -6   3    3.18    0.22
  -3   6  -3    0.98    0.16
   3  -6   3    1.03    0.15
  -4   6  -3    0.40    0.13
   4  -6   3    0.34    0.11
  -8  -5   3    0.12    0.09
  -8  -5   3    0.04    0.08
  -7  -5   3   -0.04    0.07
  -7  -5   3   -0.03    0.07
  -6  -5   3    0.95    0.14
  -6  -5   3    0.84    0.13
  -5  -5   3    3.16    0.21
  -5  -5   3    3.59    0.23
  -4  -5   3   -0.01    0.05
  -4  -5   3    0.08    0.06
  -3  -5   3    4.20    0.22
  -3  -5   3    4.43    0.24
  -2  -5   3   20.31    0.63
  -2  -5   3   20.82    0.68
   1   5  -3    3.11    0.15
  -1  -5   3    3.53    0.20
  -1  -5   3    3.25    0.16
   0   5  -3    4.78    0.22
   0  -5   3    4.76    0.24
   0  -5   3    4.98    0.20
  -1   5  -3    1.20    0.13
   1  -5   3    1.04    0.13
  -2   5  -3   11.90    0.46
   2  -5   3   10.90    0.45
  -3   5  -3    2.56    0.20
   3  -5   3    2.08    0.20
  -4   5  -3    0.16    0.09
   4  -5   3    0.01    0.07
  -5   5  -3    0.73    0.15
   5  -5   3    0.88    0.15
  -8  -4   3    0.06    0.09
  -8  -4   3   -0.05    0.08
  -7  -4   3    0.25    0.10
  -7  -4   3    0.09    0.08
  -6  -4   3    0.45    0.10
  -6  -4   3    0.51    0.11
  -5  -4   3    0.96    0.13
  -5  -4   3    0.73    0.12
  -4  -4   3    0.11    0.06
  -4  -4   3    0.13    0.07
  -3  -4   3    2.72    0.18
  -3  -4   3    3.34    0.17
  -2  -4   3   15.89    0.49
  -2  -4   3   15.18    0.52
   1   4  -3    0.58    0.06
  -1  -4   3    0.53    0.07
  -1  -4   3    0.67    0.09
   0   4  -3   29.10    0.87
   0  -4   3   29.36    0.81
   0  -4   3   29.87    0.89
  -1   4  -3   15.10    0.51
   1  -4   3   14.92    0.51
   1  -4   3   14.59    0.43
  -2   4  -3    5.64    0.27
   2  -4   3    5.23    0.26
  -3   4  -3    0.39    0.10
   3  -4   3    0.40    0.09
  -4   4  -3    9.49    0.43
   4  -4   3    9.84    0.43
  -5   4  -3    1.10    0.17
   5  -4   3    1.33    0.18
  -6   4  -3   -0.12    0.08
   6  -4   3    0.05    0.08
   8   3  -3    0.00    0.08
  -8  -3   3    0.12    0.09
  -7  -3   3    0.04    0.07
  -7  -3   3    0.07    0.07
  -6  -3   3    0.59    0.11
  -6  -3   3    0.77    0.13
  -5  -3   3    1.44    0.16
  -5  -3   3    1.02    0.13
  -4  -3   3    0.62    0.10
  -4  -3   3    0.68    0.10
  -3  -3   3    8.31    0.31
  -3  -3   3    8.24    0.33
  -2  -3   3    0.11    0.05
  -2  -3   3    0.07    0.04
   1   3  -3    4.55    0.16
  -1  -3   3    4.54    0.20
  -1  -3   3    4.44    0.17
   0   3  -3   55.27    1.58
   0  -3   3   58.41    1.59
   0  -3   3   56.87    1.48
  -1   3  -3   10.82    0.38
   1  -3   3   11.03    0.39
   1  -3   3   10.81    0.31
  -2   3  -3    2.88    0.17
   2  -3   3    2.58    0.11
   2  -3   3    2.87    0.17
  -3   3  -3    1.41    0.15
   3  -3   3    1.47    0.15
  -4   3  -3   11.08    0.46
  -5   3  -3    1.91    0.20
   5  -3   3    1.97    0.21
  -6   3  -3    1.34    0.18
   6  -3   3    1.19    0.17
   8   2  -3    0.68    0.14
  -8  -2   3    0.62    0.15
   7   2  -3    0.02    0.07
  -7  -2   3    0.06    0.07
  -6  -2   3    0.26    0.08
  -5  -2   3    0.97    0.12
  -5  -2   3    1.10    0.14
  -4  -2   3    5.91    0.27
  -4  -2   3    5.95    0.26
  -4  -2   3    5.38    0.22
  -3  -2   3    1.94    0.13
  -3  -2   3    2.09    0.10
  -3  -2   3    1.82    0.12
  -2  -2   3    2.80    0.10
  -2  -2   3    2.64    0.15
  -2  -2   3    2.78    0.14
  -1  -2   3    1.67    0.08
  -1  -2   3    1.62    0.09
  -1  -2   3    1.69    0.11
   0   2  -3   37.01    1.04
   0  -2   3   37.12    1.05
   0  -2   3   37.41    0.98
  -1   2  -3    7.36    0.27
   1  -2   3    7.71    0.28
   1  -2   3    7.74    0.21
  -2   2  -3   61.66    1.76
   2  -2   3   64.19    1.73
   2  -2   3   60.54    1.59
  -3   2  -3    6.61    0.29
   3  -2   3    6.55    0.21
   3  -2   3    6.36    0.28
  -4   2  -3    5.25    0.27
   4  -2   3    5.29    0.27
  -5   2  -3    0.99    0.14
  -5   2  -3    0.85    0.13
  -6   2  -3   15.18    0.61
  -6   2  -3   15.65    0.60
  -7   2  -3   -0.05    0.08
  -7   2  -3    0.04    0.08
   8   1  -3    1.03    0.16
   7   1  -3    0.37    0.11
  -7  -1   3    0.12    0.09
   6   1  -3    0.12    0.07
  -6  -1   3    0.18    0.08
   5   1  -3    0.85    0.12
  -5  -1   3    0.93    0.11
  -5  -1   3    0.90    0.13
   4   1  -3   26.57    0.80
  -4  -1   3   25.81    0.79
  -4  -1   3   26.26    0.82
  -3  -1   3    0.00    0.03
  -3  -1   3    0.06    0.04
  -3  -1   3    0.00    0.04
  -2  -1   3    6.83    0.23
  -2  -1   3    6.24    0.24
  -2  -1   3    6.41    0.24
  -1  -1   3   11.42    0.35
  -1  -1   3   11.56    0.34
  -1  -1   3   11.35    0.37
   0   1  -3    3.19    0.13
   0  -1   3    3.48    0.14
  -1   1  -3    3.05    0.14
   1  -1   3    3.11    0.14
  -2   1  -3   50.16    1.43
   2  -1   3   50.38    1.40
  -3   1  -3   12.14    0.42
   3  -1   3   11.49    0.33
  -4   1  -3    0.13    0.06
  -4   1  -3    0.13    0.06
   4  -1   3    0.09    0.04
  -5   1  -3    0.94    0.13
  -5   1  -3    0.58    0.11
  -6   1  -3    9.14    0.41
  -6   1  -3    8.70    0.40
  -7   1  -3    2.73    0.23
  -7   1  -3    2.78    0.22
  -8   1  -3    2.09    0.24
  -8   1  -3    1.85    0.23
   7   0  -3    0.31    0.10
  -7   0   3    0.24    0.10
   6   0  -3    0.68    0.12
  -6   0   3    0.55    0.11
  -6   0   3    0.48    0.11
   5   0  -3    0.08    0.06
  -5   0   3    0.15    0.07
  -5   0   3    0.18    0.07
   4   0  -3    2.78    0.17
  -4   0   3    3.15    0.19
  -4   0   3    2.74    0.17
   3   0  -3    4.80    0.22
  -3   0   3    5.34    0.23
  -3   0   3    4.83    0.21
   2   0  -3   12.72    0.41
  -2   0   3   12.80    0.41
   1   0  -3   21.24    0.60
  -1   0   3   21.75    0.62
   0   0   3   28.60    0.79
   0   0   3   28.51    0.82
  -1   0  -3   99.44    2.50
  -1   0  -3   96.60    2.68
   1   0   3   97.71    2.60
  -2   0  -3    0.14    0.04
  -2   0  -3    0.18    0.03
   2   0   3    0.17    0.04
  -3   0  -3    7.99    0.24
  -3   0  -3    7.88    0.28
  -3   0  -3    8.03    0.30
  -4   0  -3   37.32    1.00
  -4   0  -3   37.32    1.12
  -4   0  -3   37.10    1.09
  -5   0  -3    0.03    0.05
  -5   0  -3    0.06    0.06
  -5   0  -3    0.01    0.04
  -6   0  -3    2.13    0.18
  -6   0  -3    2.00    0.19
  -7   0  -3    2.56    0.21
  -7   0  -3    2.64    0.21
  -8   0  -3    6.73    0.37
  -8   0  -3    6.41    0.36
   7  -1  -3    1.92    0.21
  -7   1   3    1.82    0.22
  -7   1   3    1.83    0.21
   6  -1  -3    1.25    0.16
  -6   1   3    1.18    0.16
  -6   1   3    1.03    0.15
   5  -1  -3    0.03    0.06
  -5   1   3   -0.03    0.06
  -5   1   3   -0.01    0.06
   4  -1  -3    4.60    0.23
  -4   1   3    4.75    0.24
  -4   1   3    4.76    0.25
   3  -1  -3    1.89    0.13
  -3   1   3    1.80    0.13
  -3   1   3    2.06    0.14
   2  -1  -3   75.13    2.01
  -2   1   3   76.06    2.07
  -2   1   3   75.36    2.12
   1  -1  -3    0.34    0.05
  -1   1   3    0.39    0.05
  -1   1   3    0.75    0.08
   0  -1  -3   55.31    1.46
   0   1   3   55.83    1.56
   0   1   3   55.53    1.49
   1   1   3   11.17    0.36
   1   1   3   10.68    0.31
  -2  -1  -3    4.45    0.18
  -2  -1  -3    4.62    0.16
   2   1   3    4.66    0.16
  -3  -1  -3    2.25    0.12
  -3  -1  -3    2.68    0.14
  -3  -1  -3    2.74    0.11
  -4  -1  -3   28.46    0.79
  -4  -1  -3   28.50    0.87
  -4  -1  -3   28.48    0.84
  -5  -1  -3    0.12    0.06
  -5  -1  -3    0.11    0.06
  -5  -1  -3    0.11    0.05
  -6  -1  -3    1.32    0.13
  -6  -1  -3    1.33    0.15
  -6  -1  -3    1.53    0.16
  -7  -1  -3    0.04    0.06
  -7  -1  -3    0.08    0.07
  -8  -1  -3    2.79    0.23
  -8  -1  -3    2.59    0.21
  -9  -1  -3    2.06    0.23
   7  -2  -3    1.06    0.16
  -7   2   3    1.32    0.20
   6  -2  -3    0.14    0.08
  -6   2   3    0.03    0.07
  -6   2   3    0.12    0.09
   5  -2  -3    0.57    0.11
  -5   2   3    0.46    0.11
  -5   2   3    0.23    0.08
   4  -2  -3    0.85    0.11
  -4   2   3    1.05    0.14
  -4   2   3    0.84    0.12
   3  -2  -3    0.03    0.04
  -3   2   3    0.05    0.05
  -3   2   3    0.02    0.06
   2  -2  -3    0.05    0.04
  -2   2   3    0.04    0.04
  -2   2   3    0.11    0.06
   1  -2  -3    4.74    0.20
  -1   2   3    4.39    0.21
  -1   2   3    4.65    0.18
   0  -2  -3   12.93    0.40
   0   2   3   12.81    0.38
   0   2   3   13.68    0.44
  -1  -2  -3  143.02    3.65
   1   2   3  140.73    3.88
  -2  -2  -3    1.51    0.09
  -2  -2  -3    1.37    0.06
   2   2   3    1.51    0.10
  -3  -2  -3   23.17    0.68
  -3  -2  -3   25.05    0.73
  -3  -2  -3   23.93    0.68
  -4  -2  -3    0.00    0.01
  -4  -2  -3    0.04    0.03
  -4  -2  -3    0.04    0.04
  -5  -2  -3    7.35    0.29
  -5  -2  -3    5.91    0.26
  -6  -2  -3    4.43    0.23
  -6  -2  -3    4.11    0.23
  -6  -2  -3    4.61    0.21
  -7  -2  -3    0.88    0.13
  -7  -2  -3    0.98    0.12
  -7  -2  -3    0.70    0.12
  -8  -2  -3    0.21    0.09
  -8  -2  -3    0.14    0.09
  -9  -2  -3    1.76    0.21
   6  -3  -3    0.13    0.08
  -6   3   3    0.03    0.09
  -6   3   3    0.16    0.09
   5  -3  -3    4.66    0.26
  -5   3   3    4.45    0.29
  -5   3   3    5.10    0.29
   4  -3  -3    0.87    0.12
  -4   3   3    0.68    0.13
  -4   3   3    0.85    0.13
   3  -3  -3    2.08    0.15
  -3   3   3    1.83    0.17
  -3   3   3    2.33    0.18
   2  -3  -3    2.07    0.14
  -2   3   3    1.97    0.14
  -2   3   3    1.87    0.15
   1  -3  -3    5.23    0.23
  -1   3   3    5.21    0.25
  -1   3   3    5.33    0.21
   0  -3  -3  124.54    3.30
   0   3   3  128.71    3.38
   0   3   3  127.74    3.51
  -1  -3  -3   21.33    0.64
  -1  -3  -3   22.61    0.60
   1   3   3   22.23    0.69
  -2  -3  -3    0.51    0.07
   2   3   3    0.79    0.09
  -3  -3  -3    0.17    0.05
  -3  -3  -3    0.18    0.03
   3   3   3    0.13    0.05
  -4  -3  -3    0.73    0.09
  -4  -3  -3    1.31    0.09
  -4  -3  -3    1.19    0.11
  -5  -3  -3    9.16    0.33
  -5  -3  -3    8.94    0.34
  -6  -3  -3    1.07    0.12
  -7  -3  -3    0.54    0.10
  -7  -3  -3    0.43    0.09
  -8  -3  -3    0.69    0.12
  -8  -3  -3    0.55    0.12
  -9  -3  -3    0.85    0.15
   5  -4  -3    0.72    0.12
  -5   4   3    0.54    0.14
  -5   4   3    0.73    0.14
   4  -4  -3    0.61    0.11
  -4   4   3    0.80    0.15
  -4   4   3    0.67    0.12
   3  -4  -3    0.66    0.11
  -3   4   3    0.79    0.13
  -3   4   3    0.46    0.10
   2  -4  -3    0.17    0.06
  -2   4   3    0.35    0.08
  -2   4   3    0.31    0.09
   1  -4  -3    1.61    0.13
  -1   4   3    1.66    0.16
  -1   4   3    1.67    0.12
   0  -4  -3    1.43    0.09
   0  -4  -3    1.22    0.12
   0   4   3    1.33    0.13
  -1  -4  -3    5.08    0.17
  -1  -4  -3    4.99    0.22
   1   4   3    4.64    0.23
  -2  -4  -3    7.83    0.30
  -2  -4  -3    8.11    0.24
   2   4   3    7.75    0.31
  -3  -4  -3   13.68    0.39
  -3  -4  -3   13.82    0.45
   3   4   3   13.68    0.46
  -4  -4  -3    0.04    0.03
  -4  -4  -3    0.00    0.04
   4   4   3    0.00    0.05
  -5  -4  -3    8.96    0.35
  -5  -4  -3    9.08    0.34
  -5  -4  -3    8.98    0.32
  -6  -4  -3    0.45    0.09
  -6  -4  -3    0.45    0.09
  -6  -4  -3    0.40    0.08
  -7  -4  -3    0.37    0.09
  -7  -4  -3    0.55    0.10
  -8  -4  -3    0.22    0.08
  -8  -4  -3    0.29    0.08
  -5   5   3    0.22    0.11
   4  -5  -3    0.46    0.11
  -4   5   3    0.62    0.14
  -4   5   3    0.45    0.12
   3  -5  -3    6.13    0.31
  -3   5   3    6.83    0.33
  -3   5   3    6.45    0.35
   2  -5  -3    0.07    0.06
  -2   5   3    0.11    0.08
  -2   5   3    0.04    0.05
   1  -5  -3    0.75    0.11
   1  -5  -3    0.74    0.10
  -1   5   3    0.92    0.14
   0  -5  -3    0.06    0.04
   0  -5  -3    0.05    0.05
   0   5   3    0.09    0.07
  -1  -5  -3    7.96    0.28
  -1  -5  -3    8.52    0.33
   1   5   3    8.16    0.34
  -2  -5  -3   13.71    0.41
  -2  -5  -3   13.78    0.47
   2   5   3   14.18    0.49
  -3  -5  -3    1.99    0.14
   3   5   3    1.98    0.15
  -4  -5  -3    0.01    0.05
   4   5   3   -0.04    0.05
  -5  -5  -3    1.44    0.15
   5   5   3    1.63    0.14
  -6  -5  -3    0.14    0.07
  -7  -5  -3    0.70    0.12
  -8  -5  -3   -0.02    0.06
  -9  -5  -3    0.47    0.11
   4  -6  -3    0.13    0.08
   3  -6  -3   -0.01    0.06
   3  -6  -3    0.11    0.08
  -3   6   3    0.00    0.08
   2  -6  -3    1.46    0.16
   2  -6  -3    1.31    0.15
  -2   6   3    1.29    0.18
   1  -6  -3    0.48    0.10
  -1   6   3    0.39    0.10
   0  -6  -3    1.05    0.13
   0   6   3    1.09    0.14
  -1  -6  -3   -0.03    0.05
   1   6   3    0.02    0.07
  -2  -6  -3    0.08    0.06
   2   6   3    0.02    0.06
  -3  -6  -3    0.84    0.12
   3   6   3    0.94    0.12
  -4  -6  -3    1.11    0.14
   4   6   3    1.23    0.13
  -5  -6  -3    1.54    0.16
  -6  -6  -3    0.30    0.09
  -7  -6  -3    0.48    0.12
  -8  -6  -3    0.15    0.09
  -9  -6  -3    0.06    0.08
   3  -7  -3    0.05    0.07
   2  -7  -3    0.43    0.11
  -2   7   3    0.33    0.11
   1  -7  -3    4.12    0.25
  -1   7   3    4.39    0.28
   0  -7  -3    0.66    0.11
   0   7   3    0.84    0.14
  -1  -7  -3    0.02    0.06
   1   7   3    0.12    0.08
  -2  -7  -3    1.58    0.16
   2   7   3    1.46    0.16
  -3  -7  -3    0.22    0.08
   3   7   3    0.19    0.08
  -4  -7  -3    2.26    0.20
  -5  -7  -3    0.07    0.07
  -6  -7  -3    0.91    0.14
  -7  -7  -3    0.08    0.08
  -8  -7  -3    0.71    0.15
   2  -8  -3   -0.08    0.07
   1  -8  -3    0.02    0.07
  -1   8   3    0.07    0.10
   0  -8  -3    1.07    0.16
   0   8   3    0.93    0.15
  -1  -8  -3    0.10    0.08
   1   8   3    0.22    0.09
  -2  -8  -3    1.15    0.15
   2   8   3    1.44    0.17
  -3  -8  -3   -0.05    0.05
  -4  -8  -3    0.26    0.09
  -5  -8  -3    0.94    0.14
  -6  -8  -3    0.06    0.08
  -7  -8  -3   -0.01    0.08
  -8  -8  -3    0.08    0.10
   1  -9  -3    0.08    0.09
   0  -9  -3    0.16    0.09
   0   9   3    0.06    0.10
  -1  -9  -3    0.97    0.16
   1   9   3    0.93    0.15
  -2  -9  -3    0.16    0.09
  -3  -9  -3   -0.06    0.07
  -4  -9  -3    0.61    0.13
  -5  -9  -3   -0.02    0.07
  -6  -9  -3    0.24    0.10
  -7  -9  -3    0.21    0.11
  -2 -10  -3   -0.01    0.08
  -3 -10  -3    0.15    0.11
  -4 -10  -3    0.54    0.14
  -6  -9   4    0.08    0.10
  -5  -9   4    0.54    0.14
  -5  -9   4    0.18    0.10
  -4  -9   4    0.29    0.12
  -4  -9   4    0.02    0.08
  -3  -9   4    0.33    0.12
  -2  -9   4    0.17    0.10
  -1  -9   4    0.52    0.13
   0  -9   4    0.10    0.09
  -7  -8   4   -0.05    0.09
  -6  -8   4    0.18    0.09
  -6  -8   4    0.22    0.11
  -5  -8   4    0.49    0.12
  -5  -8   4    0.35    0.11
  -4  -8   4    0.01    0.07
  -4  -8   4    0.04    0.08
  -3  -8   4    0.04    0.06
  -3  -8   4    0.10    0.09
  -2  -8   4    0.01    0.08
  -1  -8   4    0.13    0.09
   0  -8   4    0.71    0.14
   1  -8   4    0.59    0.13
   2  -8   4   -0.03    0.08
  -7  -7   4    0.22    0.10
  -7  -7   4    0.42    0.13
  -6  -7   4    0.01    0.08
  -6  -7   4    0.01    0.07
  -5  -7   4    0.05    0.07
  -5  -7   4    0.16    0.09
  -4  -7   4    0.35    0.09
  -4  -7   4    0.18    0.09
  -3  -7   4    1.13    0.15
  -3  -7   4    1.01    0.13
  -2  -7   4    1.37    0.14
  -2  -7   4    1.21    0.16
  -1  -7   4    0.94    0.14
   0  -7   4    1.71    0.19
   1  -7   4    2.74    0.22
  -2   7  -4    0.50    0.12
   2  -7   4    0.39    0.11
  -3   7  -4    0.00    0.08
   3  -7   4    0.14    0.09
  -7  -6   4    1.38    0.19
  -7  -6   4    1.08    0.18
  -6  -6   4    0.00    0.06
  -6  -6   4    0.22    0.10
  -5  -6   4    0.06    0.06
  -5  -6   4    0.01    0.07
  -4  -6   4   -0.06    0.06
  -4  -6   4    0.05    0.06
  -3  -6   4    0.18    0.08
  -3  -6   4    0.27    0.08
  -2  -6   4    0.24    0.08
  -2  -6   4    0.09    0.06
  -1  -6   4   -0.02    0.06
  -1  -6   4   -0.06    0.04
   0   6  -4    0.00    0.05
   0  -6   4    0.04    0.06
  -1   6  -4    0.44    0.09
   1  -6   4    0.49    0.10
  -2   6  -4    0.44    0.10
   2  -6   4    0.61    0.11
  -3   6  -4    0.24    0.09
   3  -6   4    0.33    0.11
  -4   6  -4    0.27    0.11
   4  -6   4    0.20    0.10
  -7  -5   4    0.22    0.10
  -7  -5   4    0.30    0.10
  -6  -5   4    4.35    0.26
  -6  -5   4    4.26    0.28
  -5  -5   4    2.14    0.21
  -5  -5   4    1.91    0.18
  -4  -5   4    3.56    0.23
  -4  -5   4    3.44    0.20
  -3  -5   4    0.26    0.07
  -3  -5   4    0.41    0.10
  -2  -5   4    1.01    0.11
  -2  -5   4    1.19    0.14
  -1  -5   4    2.17    0.13
  -1  -5   4    1.94    0.15
   0   5  -4    4.78    0.22
   0  -5   4    5.24    0.26
   0  -5   4    4.77    0.20
  -1   5  -4    0.15    0.07
   1  -5   4    0.09    0.07
  -2   5  -4    2.70    0.19
   2  -5   4    2.82    0.20
  -3   5  -4    4.06    0.26
   3  -5   4    4.39    0.26
  -4   5  -4    0.59    0.13
   4  -5   4    0.35    0.10
  -5   5  -4   -0.03    0.08
   5  -5   4    0.01    0.07
  -8  -4   4    0.56    0.14
  -7  -4   4    0.06    0.08
  -7  -4   4    0.11    0.08
  -6  -4   4    2.43    0.22
  -6  -4   4    2.46    0.23
  -5  -4   4    7.19    0.34
  -5  -4   4    7.12    0.33
  -4  -4   4    4.30    0.23
  -4  -4   4    4.41    0.25
  -3  -4   4    4.48    0.24
  -3  -4   4    4.00    0.20
  -2  -4   4    0.23    0.07
  -2  -4   4    0.29    0.06
   1   4  -4    0.54    0.06
  -1  -4   4    0.44    0.06
  -1  -4   4    0.49    0.09
   0   4  -4    0.57    0.08
   0  -4   4    0.61    0.09
   0  -4   4    0.44    0.06
  -1   4  -4    4.75    0.22
   1  -4   4    4.52    0.23
   1  -4   4    4.50    0.16
  -2   4  -4    0.71    0.11
   2  -4   4    0.82    0.11
  -3   4  -4    0.42    0.10
   3  -4   4    0.67    0.12
  -4   4  -4    0.02    0.06
   4  -4   4    0.02    0.06
  -5   4  -4    0.00    0.07
   5  -4   4    0.05    0.07
  -6   4  -4    0.87    0.16
   6  -4   4    0.76    0.15
   7   3  -4    0.62    0.14
  -7  -3   4    0.77    0.14
  -6  -3   4    0.45    0.11
  -6  -3   4    0.62    0.11
  -5  -3   4    0.54    0.11
  -5  -3   4    0.56    0.10
  -4  -3   4   34.53    1.03
  -4  -3   4   35.76    1.08
  -3  -3   4    0.37    0.07
  -3  -3   4    0.38    0.08
  -2  -3   4   23.58    0.74
  -2  -3   4   23.35    0.69
  -2  -3   4   23.37    0.66
   1   3  -4    2.45    0.11
  -1  -3   4    2.40    0.12
  -1  -3   4    2.23    0.15
   0   3  -4    0.53    0.06
   0  -3   4    0.53    0.05
   0  -3   4    0.51    0.08
  -1   3  -4    1.39    0.11
   1  -3   4    1.55    0.13
   1  -3   4    1.44    0.07
  -2   3  -4    1.65    0.13
   2  -3   4    1.27    0.13
  -3   3  -4   -0.02    0.05
   3  -3   4   -0.04    0.05
  -4   3  -4    1.71    0.17
   4  -3   4    1.34    0.15
  -5   3  -4    3.34    0.24
   5  -3   4    3.34    0.24
  -6   3  -4    0.11    0.09
   6  -3   4    0.17    0.09
   7   2  -4    0.08    0.08
  -7  -2   4    0.07    0.09
   6   2  -4    0.69    0.13
  -6  -2   4    0.61    0.12
  -5  -2   4    0.13    0.08
  -4  -2   4    9.84    0.33
  -4  -2   4    9.43    0.38
  -4  -2   4    9.33    0.37
  -3  -2   4    7.66    0.26
  -3  -2   4    7.50    0.30
  -3  -2   4    7.61    0.31
  -2  -2   4    6.72    0.27
  -2  -2   4    6.73    0.23
  -2  -2   4    6.62    0.25
  -1  -2   4   13.64    0.46
  -1  -2   4   14.14    0.42
  -1  -2   4   13.80    0.42
   0   2  -4    8.46    0.28
   0  -2   4    8.18    0.30
   0  -2   4    8.62    0.26
  -1   2  -4   37.27    1.10
   1  -2   4   37.63    1.09
   1  -2   4   39.21    0.98
  -2   2  -4   27.29    0.83
   2  -2   4   26.58    0.81
  -3   2  -4    9.92    0.39
   3  -2   4    9.88    0.38
  -4   2  -4    2.63    0.19
   4  -2   4    2.67    0.18
  -5   2  -4   -0.01    0.06
   5  -2   4    0.02    0.06
  -6   2  -4    0.76    0.14
   6  -2   4    0.76    0.13
  -7   2  -4    0.06    0.09
   7  -2   4   -0.02    0.07
   7   1  -4    0.13    0.08
  -7  -1   4    0.06    0.08
   6   1  -4    0.29    0.10
  -6  -1   4    0.24    0.09
   5   1  -4    1.80    0.18
  -5  -1   4    2.37    0.19
  -5  -1   4    2.26    0.16
   4   1  -4    0.95    0.12
  -4  -1   4    0.85    0.10
  -4  -1   4    0.87    0.12
   3   1  -4    2.98    0.17
  -3  -1   4    3.12    0.15
  -3  -1   4    3.15    0.18
   2   1  -4   52.76    1.47
  -2  -1   4   55.87    1.53
  -2  -1   4   54.55    1.52
   1   1  -4   11.29    0.36
  -1  -1   4   11.27    0.38
  -1  -1   4   11.91    0.37
   0   1  -4  127.43    3.24
   0   1  -4  124.17    3.44
   0  -1   4  127.59    3.38
  -1   1  -4   60.68    1.69
  -1   1  -4   60.36    1.55
   1  -1   4   60.44    1.66
  -2   1  -4   25.54    0.78
   2  -1   4   25.56    0.75
  -3   1  -4    0.39    0.07
   3  -1   4    0.41    0.03
   3  -1   4    0.37    0.07
  -4   1  -4    0.86    0.11
   4  -1   4    0.78    0.11
  -5   1  -4    1.82    0.18
  -6   1  -4    1.10    0.15
  -6   1  -4    0.94    0.14
  -7   1  -4    1.38    0.19
  -7   1  -4    1.74    0.20
  -8   1  -4   -0.11    0.07
  -8   1  -4   -0.05    0.08
   7   0  -4    0.47    0.12
  -7   0   4    0.54    0.13
   6   0  -4    0.28    0.09
  -6   0   4    0.10    0.08
  -6   0   4    0.06    0.06
   5   0  -4    0.11    0.06
  -5   0   4    0.01    0.04
  -5   0   4    0.08    0.07
   4   0  -4    0.71    0.10
  -4   0   4    1.15    0.13
  -4   0   4    0.43    0.08
   3   0  -4    1.50    0.12
  -3   0   4    1.71    0.13
   2   0  -4    0.54    0.08
  -2   0   4    0.45    0.07
   1   0  -4   21.97    0.62
  -1   0   4   21.69    0.63
  -1   0   4   20.23    0.64
   0   0   4   42.07    1.19
   0   0   4   41.46    1.15
  -1   0  -4   91.66    2.56
  -1   0  -4   93.41    2.38
   1   0   4   93.35    2.48
  -2   0  -4    4.36    0.19
  -2   0  -4    4.22    0.13
   2   0   4    4.11    0.17
  -3   0  -4   11.27    0.33
  -3   0  -4   11.63    0.41
   3   0   4   11.90    0.39
  -4   0  -4   23.69    0.76
  -4   0  -4   23.18    0.72
  -4   0  -4   23.37    0.65
  -5   0  -4   12.21    0.48
  -5   0  -4   13.22    0.47
  -6   0  -4    0.19    0.08
  -6   0  -4    0.13    0.07
  -7   0  -4    0.08    0.07
  -7   0  -4    0.02    0.07
  -8   0  -4    1.60    0.20
  -8   0  -4    1.00    0.16
   7  -1  -4    0.54    0.13
  -7   1   4    0.59    0.14
   6  -1  -4    1.07    0.15
  -6   1   4    0.98    0.16
  -6   1   4    0.76    0.14
   5  -1  -4    1.23    0.15
  -5   1   4    1.30    0.15
  -5   1   4    1.22    0.16
   4  -1  -4    0.35    0.08
  -4   1   4    0.57    0.11
  -4   1   4    0.44    0.09
   3  -1  -4    7.46    0.31
  -3   1   4    7.70    0.32
  -3   1   4    7.61    0.32
   2  -1  -4    0.48    0.08
  -2   1   4    0.36    0.06
  -2   1   4    0.42    0.08
   1  -1  -4    2.61    0.14
  -1   1   4    2.56    0.15
  -1   1   4    2.48    0.13
   0  -1  -4   50.95    1.34
   0   1   4   50.63    1.44
   0   1   4   49.64    1.36
   1   1   4   82.07    2.17
   1   1   4   81.36    2.27
  -2  -1  -4    9.44    0.28
  -2  -1  -4    8.90    0.32
   2   1   4    9.22    0.28
  -3  -1  -4    9.13    0.28
  -3  -1  -4    8.96    0.33
   3   1   4    9.05    0.30
  -4  -1  -4    9.11    0.30
  -4  -1  -4    8.97    0.35
  -5  -1  -4    2.78    0.14
  -5  -1  -4    2.61    0.17
  -5  -1  -4    2.65    0.18
  -6  -1  -4    0.96    0.14
  -6  -1  -4    0.83    0.12
  -7  -1  -4    0.96    0.14
  -7  -1  -4    0.69    0.13
  -8  -1  -4    0.13    0.10
  -8  -1  -4    0.23    0.10
  -9  -1  -4    0.06    0.10
  -9  -1  -4    0.28    0.11
   6  -2  -4    0.09    0.08
  -6   2   4   -0.02    0.07
  -6   2   4    0.04    0.08
   5  -2  -4    0.91    0.14
  -5   2   4    0.77    0.13
  -5   2   4    0.67    0.13
   4  -2  -4    3.72    0.22
  -4   2   4    3.52    0.22
  -4   2   4    3.36    0.22
   3  -2  -4    0.07    0.05
  -3   2   4    0.02    0.06
  -3   2   4    0.05    0.05
   2  -2  -4    0.06    0.04
  -2   2   4    0.10    0.06
  -2   2   4    0.05    0.05
   1  -2  -4    0.47    0.07
  -1   2   4    0.33    0.06
  -1   2   4    0.24    0.07
   0  -2  -4    3.34    0.16
   0   2   4    3.20    0.13
   0   2   4    3.41    0.18
  -1  -2  -4    2.96    0.14
   1   2   4    2.93    0.10
   1   2   4    3.03    0.16
  -2  -2  -4    1.45    0.09
   2   2   4    1.42    0.06
   2   2   4    1.25    0.10
  -3  -2  -4   19.48    0.56
  -3  -2  -4   20.49    0.63
  -4  -2  -4    0.73    0.09
  -4  -2  -4    0.63    0.07
  -4  -2  -4    0.68    0.07
  -5  -2  -4    4.66    0.21
  -5  -2  -4    4.13    0.22
  -5  -2  -4    4.47    0.20
  -6  -2  -4   19.33    0.61
  -6  -2  -4   20.13    0.65
  -6  -2  -4   19.31    0.67
  -7  -2  -4    1.43    0.17
  -7  -2  -4    1.65    0.17
  -8  -2  -4    0.00    0.08
  -8  -2  -4    0.09    0.08
  -9  -2  -4    0.02    0.09
  -9  -2  -4    0.12    0.10
   6  -3  -4    0.16    0.08
  -6   3   4    0.22    0.10
  -6   3   4    0.17    0.11
   5  -3  -4    0.03    0.06
  -5   3   4    0.00    0.07
  -5   3   4    0.03    0.08
   4  -3  -4    6.37    0.30
  -4   3   4    6.07    0.33
  -4   3   4    5.95    0.31
   3  -3  -4    1.05    0.13
  -3   3   4    1.05    0.13
  -3   3   4    1.17    0.15
   2  -3  -4    5.78    0.26
  -2   3   4    6.11    0.30
  -2   3   4    5.97    0.26
   1  -3  -4    7.03    0.29
  -1   3   4    7.35    0.27
  -1   3   4    7.07    0.31
   0  -3  -4    0.65    0.08
   0   3   4    0.61    0.10
   0   3   4    0.65    0.06
  -1  -3  -4    9.09    0.32
   1   3   4    9.37    0.36
   1   3   4    9.24    0.26
  -2  -3  -4    0.04    0.03
   2   3   4    0.02    0.04
  -3  -3  -4    5.11    0.16
  -3  -3  -4    5.00    0.21
   3   3   4    5.18    0.23
  -4  -3  -4    0.30    0.05
  -4  -3  -4    0.36    0.07
  -4  -3  -4    0.26    0.06
  -5  -3  -4    1.93    0.13
  -5  -3  -4    2.05    0.13
  -5  -3  -4    1.88    0.15
  -6  -3  -4    7.62    0.31
  -6  -3  -4    6.94    0.32
  -7  -3  -4   -0.01    0.03
  -7  -3  -4    0.06    0.06
  -7  -3  -4    0.05    0.04
  -8  -3  -4    0.43    0.10
  -8  -3  -4    0.65    0.12
   5  -4  -4    0.00    0.06
  -5   4   4   -0.04    0.08
  -5   4   4   -0.01    0.08
   4  -4  -4    0.02    0.06
  -4   4   4    0.06    0.08
  -4   4   4    0.13    0.08
   3  -4  -4    0.07    0.07
  -3   4   4    0.09    0.08
  -3   4   4    0.14    0.07
   2  -4  -4    5.48    0.27
  -2   4   4    5.25    0.29
  -2   4   4    5.39    0.25
   1  -4  -4    0.20    0.07
  -1   4   4    0.23    0.08
  -1   4   4    0.33    0.07
   0  -4  -4    0.33    0.08
   0   4   4    0.49    0.09
   0   4   4    0.43    0.06
  -1  -4  -4    0.34    0.07
  -1  -4  -4    0.36    0.04
   1   4   4    0.32    0.08
  -2  -4  -4   24.71    0.74
   2   4   4   24.55    0.78
  -3  -4  -4    0.27    0.06
   3   4   4    0.14    0.06
  -4  -4  -4    5.45    0.24
  -4  -4  -4    5.10    0.18
   4   4   4    4.97    0.24
  -7  -4  -4    0.04    0.06
  -7  -4  -4    0.15    0.07
  -8  -4  -4    2.99    0.21
   5  -5  -4    0.23    0.10
  -5   5   4    0.02    0.09
   4  -5  -4    0.55    0.11
  -4   5   4    0.67    0.15
  -4   5   4    0.66    0.13
   3  -5  -4    1.77    0.18
  -3   5   4    1.74    0.21
  -3   5   4    1.60    0.17
   2  -5  -4    3.34    0.21
  -2   5   4    3.50    0.21
  -2   5   4    3.22    0.24
   1  -5  -4    0.20    0.07
  -1   5   4    0.23    0.09
  -1   5   4    0.06    0.06
   0  -5  -4    6.38    0.29
   0   5   4    7.13    0.33
  -1  -5  -4    1.58    0.15
   1   5   4    1.70    0.17
  -2  -5  -4    6.18    0.27
   2   5   4    6.08    0.29
  -3  -5  -4    1.01    0.12
   3   5   4    1.03    0.13
  -4  -5  -4    1.13    0.13
   4   5   4    1.25    0.13
  -5  -5  -4    0.04    0.05
   5   5   4    0.16    0.07
  -6  -5  -4    1.27    0.15
   6   5   4    1.41    0.15
  -7  -5  -4    0.26    0.08
  -8  -5  -4    0.37    0.10
  -9  -5  -4    0.02    0.07
   4  -6  -4   -0.06    0.08
   3  -6  -4    0.37    0.11
  -3   6   4    0.21    0.11
  -2   6   4    0.00    0.07
   1  -6  -4    0.85    0.13
  -1   6   4    0.81    0.14
   0  -6  -4    3.05    0.20
   0   6   4    3.98    0.24
  -1  -6  -4    0.51    0.10
   1   6   4    0.44    0.10
  -2  -6  -4    0.54    0.10
   2   6   4    0.47    0.11
  -3  -6  -4    0.15    0.07
   3   6   4    0.17    0.08
  -4  -6  -4    9.69    0.40
   4   6   4    9.34    0.39
  -5  -6  -4    0.66    0.12
   5   6   4    0.88    0.13
  -6  -6  -4    2.52    0.19
  -7  -6  -4    0.25    0.09
  -8  -6  -4    0.41    0.12
  -9  -6  -4    0.01    0.08
   3  -7  -4    0.07    0.08
   2  -7  -4    0.15    0.09
  -2   7   4    0.13    0.10
   1  -7  -4    1.80    0.19
  -1   7   4    1.67    0.21
   0  -7  -4    0.68    0.13
   0   7   4    0.58    0.13
  -1  -7  -4    0.13    0.07
   1   7   4    0.26    0.09
  -2  -7  -4    0.67    0.12
   2   7   4    0.84    0.13
  -3  -7  -4    0.03    0.06
   3   7   4    0.04    0.07
  -4  -7  -4    3.98    0.24
   4   7   4    4.10    0.24
  -5  -7  -4   -0.02    0.06
  -6  -7  -4    0.34    0.10
  -7  -7  -4    0.18    0.09
  -8  -7  -4    0.24    0.11
  -9  -7  -4    0.08    0.09
   2  -8  -4    0.00    0.08
   1  -8  -4    0.03    0.08
  -1   8   4    0.06    0.09
   0  -8  -4    0.10    0.08
   0   8   4    0.12    0.10
  -1  -8  -4    2.30    0.22
   1   8   4    2.61    0.21
  -2  -8  -4    0.24    0.10
   2   8   4    0.06    0.08
  -3  -8  -4    0.06    0.08
   3   8   4   -0.03    0.07
  -4  -8  -4    0.49    0.12
  -5  -8  -4    0.18    0.09
  -6  -8  -4    1.28    0.17
  -7  -8  -4    0.19    0.10
  -8  -8  -4    0.18    0.11
   0  -9  -4    0.13    0.09
   0   9   4    0.27    0.12
  -1  -9  -4    1.06    0.17
   1   9   4    1.35    0.19
  -2  -9  -4    0.22    0.10
  -3  -9  -4    0.08    0.08
  -4  -9  -4    0.04    0.09
  -5  -9  -4    0.03    0.08
  -6  -9  -4    0.63    0.14
  -5  -9   5    0.07    0.10
  -5  -9   5   -0.04    0.07
  -4  -9   5   -0.04    0.08
  -3  -9   5    0.08    0.09
  -2  -9   5    0.04    0.09
  -1  -9   5    0.08    0.11
   0  -9   5    0.04    0.10
  -6  -8   5    0.18    0.10
  -6  -8   5    0.24    0.11
  -5  -8   5    0.15    0.09
  -5  -8   5    0.13    0.11
  -4  -8   5    0.33    0.12
  -4  -8   5    0.19    0.09
  -3  -8   5   -0.04    0.07
  -2  -8   5    0.02    0.08
  -1  -8   5    0.31    0.11
   0  -8   5   -0.02    0.07
   1  -8   5    0.10    0.09
  -7  -7   5    0.20    0.12
  -6  -7   5    0.17    0.11
  -6  -7   5    0.36    0.11
  -5  -7   5    0.43    0.13
  -5  -7   5    0.35    0.10
  -4  -7   5    1.35    0.18
  -4  -7   5    1.29    0.16
  -3  -7   5    0.76    0.13
  -3  -7   5    0.71    0.12
  -2  -7   5    0.20    0.09
  -1  -7   5    0.08    0.08
   0  -7   5    2.02    0.21
   1  -7   5    0.06    0.07
   2  -7   5    0.54    0.13
  -3   7  -5    0.09    0.10
   3  -7   5    0.12    0.09
  -7  -6   5    0.60    0.14
  -7  -6   5    0.80    0.16
  -6  -6   5   -0.01    0.08
  -6  -6   5   -0.06    0.06
  -5  -6   5    0.02    0.07
  -5  -6   5    0.05    0.09
  -4  -6   5    2.65    0.21
  -4  -6   5    2.80    0.19
  -3  -6   5    0.16    0.09
  -3  -6   5    0.23    0.07
  -2  -6   5    1.25    0.13
  -2  -6   5    1.17    0.15
  -1  -6   5    0.30    0.09
   0  -6   5    0.06    0.07
  -1   6  -5    2.07    0.16
   1  -6   5    1.76    0.19
  -2   6  -5   -0.04    0.07
   2  -6   5    0.01    0.07
  -3   6  -5    0.56    0.13
   3  -6   5    0.34    0.10
  -4   6  -5    0.45    0.14
   4  -6   5    0.46    0.13
  -7  -5   5    2.08    0.22
  -7  -5   5    2.20    0.24
  -6  -5   5    0.24    0.09
  -6  -5   5    0.38    0.11
  -5  -5   5    1.59    0.18
  -5  -5   5    1.26    0.16
  -4  -5   5    6.91    0.31
  -4  -5   5    7.01    0.34
  -3  -5   5   -0.01    0.05
  -3  -5   5   -0.05    0.06
  -2  -5   5    6.15    0.26
  -2  -5   5    6.57    0.32
  -1  -5   5    3.25    0.21
  -1  -5   5    3.73    0.17
   0   5  -5    3.62    0.19
   0  -5   5    4.04    0.23
  -1   5  -5    1.47    0.15
   1  -5   5    1.47    0.16
  -2   5  -5    3.51    0.22
   2  -5   5    3.89    0.24
  -3   5  -5    0.06    0.08
   3  -5   5    0.09    0.07
  -4   5  -5    0.27    0.10
   4  -5   5    0.16    0.08
  -5   5  -5    0.15    0.10
   5  -5   5    0.05    0.09
  -7  -4   5    0.52    0.14
  -6  -4   5    0.69    0.13
  -6  -4   5    0.95    0.14
  -5  -4   5    3.73    0.24
  -5  -4   5    3.51    0.22
  -4  -4   5    0.04    0.07
  -4  -4   5   -0.05    0.05
  -3  -4   5    1.37    0.16
  -3  -4   5    1.30    0.13
  -2  -4   5    0.77    0.10
  -2  -4   5    1.01    0.13
   1   4  -5    0.40    0.06
  -1  -4   5    0.39    0.06
  -1  -4   5    0.47    0.09
   0   4  -5    7.63    0.29
   0  -4   5    7.32    0.32
   0  -4   5    7.48    0.25
  -1   4  -5    9.18    0.36
   1  -4   5    9.41    0.38
  -2   4  -5    1.49    0.15
   2  -4   5    1.42    0.15
  -3   4  -5    2.41    0.19
   3  -4   5    2.38    0.18
  -4   4  -5    0.10    0.08
   4  -4   5    0.05    0.06
  -5   4  -5    1.37    0.19
   5  -4   5    1.35    0.18
  -6   4  -5   -0.13    0.07
   6  -4   5    0.05    0.07
   7   3  -5    2.18    0.24
  -7  -3   5    2.52    0.25
   6   3  -5    0.13    0.08
  -6  -3   5    0.15    0.08
  -5  -3   5    7.25    0.35
  -5  -3   5    6.98    0.33
  -4  -3   5    6.46    0.31
  -4  -3   5    6.50    0.30
  -3  -3   5   26.31    0.84
  -3  -3   5   26.63    0.80
  -2  -3   5   11.65    0.38
  -2  -3   5   12.91    0.41
  -2  -3   5   12.48    0.46
  -1  -3   5    0.10    0.06
  -1  -3   5    0.01    0.03
   0   3  -5   35.50    1.03
   0  -3   5   35.05    1.05
   0  -3   5   36.42    0.96
  -1   3  -5   31.28    0.93
   1  -3   5   30.69    0.80
   1  -3   5   30.01    0.93
  -2   3  -5    0.33    0.08
   2  -3   5    0.15    0.06
  -3   3  -5    1.03    0.13
   3  -3   5    1.27    0.14
  -4   3  -5    4.67    0.28
   4  -3   5    5.13    0.28
  -5   3  -5    1.11    0.16
   5  -3   5    1.04    0.15
  -6   3  -5    0.20    0.11
   6  -3   5    0.21    0.10
   7   2  -5   10.21    0.47
  -7  -2   5    9.39    0.47
   6   2  -5    0.29    0.10
  -6  -2   5    0.17    0.09
   5   2  -5    0.47    0.10
  -5  -2   5    0.50    0.11
   4   2  -5    5.24    0.26
  -4  -2   5    5.12    0.27
  -3  -2   5   11.57    0.38
  -3  -2   5   11.29    0.43
  -2  -2   5   11.65    0.43
  -2  -2   5   12.21    0.38
  -2  -2   5   11.45    0.39
  -1  -2   5    2.09    0.14
  -1  -2   5    1.99    0.11
  -1  -2   5    1.99    0.11
   0   2  -5   -0.03    0.03
   0  -2   5    0.01    0.04
  -1   2  -5   10.66    0.37
  -1   2  -5   10.41    0.29
   1  -2   5   10.95    0.38
  -2   2  -5    0.27    0.07
   2  -2   5    0.29    0.07
  -3   2  -5    3.46    0.20
   3  -2   5    3.81    0.20
  -4   2  -5    2.07    0.19
   4  -2   5    1.95    0.16
  -5   2  -5    3.13    0.22
   5  -2   5    3.71    0.23
  -6   2  -5    0.07    0.08
   6  -2   5   -0.06    0.05
  -7   2  -5    0.83    0.16
   7  -2   5    0.61    0.14
   7   1  -5    5.87    0.35
   6   1  -5    1.72    0.19
  -6  -1   5    1.80    0.20
   5   1  -5    6.32    0.32
  -5  -1   5    6.30    0.32
   4   1  -5    6.24    0.30
  -4  -1   5    6.67    0.27
  -4  -1   5    6.08    0.30
   3   1  -5   12.86    0.46
  -3  -1   5   13.08    0.47
  -3  -1   5   12.88    0.44
   2   1  -5   70.87    1.92
  -2  -1   5   73.15    2.00
  -2  -1   5   70.44    1.99
   1   1  -5   93.96    2.47
  -1  -1   5   94.80    2.61
  -1  -1   5   94.79    2.57
   0   1  -5   20.50    0.58
   0  -1   5   20.68    0.63
  -1   1  -5   21.43    0.66
  -1   1  -5   21.18    0.57
   1  -1   5   21.22    0.64
  -2   1  -5    5.07    0.23
   2  -1   5    5.03    0.22
  -3   1  -5   13.76    0.49
   3  -1   5   13.72    0.47
  -4   1  -5    0.06    0.06
   4  -1   5    0.04    0.05
  -5   1  -5    2.17    0.18
   5  -1   5    1.62    0.17
  -6   1  -5    0.31    0.10
   6  -1   5    0.41    0.10
  -7   1  -5    0.79    0.15
   7  -1   5    0.99    0.16
   8  -1   5   -0.07    0.07
   7   0  -5    0.07    0.08
  -7   0   5    0.01    0.08
   6   0  -5    0.72    0.13
  -6   0   5    0.67    0.14
   5   0  -5   16.58    0.61
  -5   0   5   17.18    0.63
   4   0  -5    6.76    0.31
  -4   0   5    6.79    0.32
   3   0  -5    0.73    0.10
  -3   0   5    0.70    0.10
   2   0  -5   10.81    0.38
  -2   0   5   10.74    0.39
   1   0  -5    5.31    0.21
  -1   0   5    5.33    0.23
  -1   0   5    5.13    0.22
   0   0   5   19.66    0.59
   0   0   5   19.93    0.62
  -1   0  -5    3.80    0.18
  -1   0  -5    3.96    0.15
   1   0   5    4.06    0.16
  -2   0  -5   23.91    0.75
  -2   0  -5   24.28    0.65
   2   0   5   24.44    0.71
  -3   0  -5    0.19    0.03
  -3   0  -5    0.18    0.06
   3   0   5    0.19    0.05
  -4   0  -5    0.85    0.11
   4   0   5    0.72    0.10
  -5   0  -5    0.99    0.13
   5   0   5    1.36    0.14
  -6   0  -5    4.61    0.27
  -7   0  -5    0.12    0.09
  -7   0  -5   -0.01    0.06
  -8   0  -5    0.21    0.10
  -8   0  -5    0.04    0.09
   6  -1  -5    0.77    0.14
  -6   1   5    0.49    0.12
  -6   1   5    0.72    0.13
   5  -1  -5    6.15    0.31
  -5   1   5    5.23    0.30
  -5   1   5    5.42    0.30
   4  -1  -5   12.26    0.48
  -4   1   5   13.11    0.50
  -4   1   5   13.25    0.50
   3  -1  -5    2.28    0.16
  -3   1   5    2.43    0.17
  -3   1   5    2.41    0.17
   2  -1  -5   20.85    0.66
  -2   1   5   21.02    0.67
  -2   1   5   22.36    0.70
   1  -1  -5    3.72    0.18
  -1   1   5    3.60    0.20
  -1   1   5    3.70    0.17
   0  -1  -5  142.11    3.70
   0   1   5  145.27    3.80
   0   1   5  141.62    3.94
   1   1   5  109.73    3.06
   1   1   5  111.36    2.94
  -2  -1  -5   13.95    0.47
  -2  -1  -5   14.32    0.42
   2   1   5   14.09    0.42
  -3  -1  -5    1.52    0.09
  -3  -1  -5    1.20    0.12
   3   1   5    1.75    0.10
  -4  -1  -5    0.06    0.05
  -4  -1  -5    0.06    0.03
   4   1   5    0.09    0.05
  -5  -1  -5    2.63    0.18
  -5  -1  -5    2.13    0.15
  -6  -1  -5    0.97    0.13
  -6  -1  -5    1.11    0.14
  -7  -1  -5    0.05    0.07
  -7  -1  -5    0.09    0.07
  -8  -1  -5    0.08    0.08
  -8  -1  -5    0.01    0.07
  -9  -1  -5    0.75    0.16
   6  -2  -5   -0.02    0.07
  -6   2   5    0.00    0.07
  -6   2   5    0.12    0.09
   5  -2  -5    0.22    0.08
  -5   2   5    0.11    0.08
  -5   2   5    0.11    0.08
   4  -2  -5    1.71    0.17
  -4   2   5    0.77    0.12
  -4   2   5    0.94    0.14
   3  -2  -5    6.21    0.29
  -3   2   5    5.90    0.30
  -3   2   5    5.67    0.28
   2  -2  -5    8.17    0.32
  -2   2   5    7.80    0.34
  -2   2   5    7.94    0.31
   1  -2  -5    5.34    0.24
  -1   2   5    5.77    0.23
  -1   2   5    5.53    0.26
   0  -2  -5    3.75    0.18
   0   2   5    3.76    0.20
   0   2   5    3.88    0.15
  -1  -2  -5    4.95    0.20
   1   2   5    4.90    0.16
   1   2   5    4.80    0.23
  -2  -2  -5   24.77    0.79
   2   2   5   30.05    0.77
   2   2   5   29.97    0.87
  -3  -2  -5    3.18    0.15
  -3  -2  -5    2.92    0.17
   3   2   5    3.07    0.12
  -4  -2  -5   16.62    0.57
  -4  -2  -5   17.16    0.51
  -5  -2  -5    0.30    0.08
  -5  -2  -5    0.14    0.05
  -5  -2  -5    0.12    0.06
  -6  -2  -5   -0.09    0.05
  -6  -2  -5    0.00    0.05
  -7  -2  -5    0.75    0.12
  -7  -2  -5    0.53    0.12
  -8  -2  -5    0.57    0.12
  -8  -2  -5    0.42    0.11
  -9  -2  -5   -0.02    0.09
  -9  -2  -5    0.13    0.10
   5  -3  -5    0.30    0.10
  -5   3   5    0.12    0.10
   4  -3  -5    2.07    0.20
  -4   3   5    2.19    0.22
  -4   3   5    2.40    0.19
   3  -3  -5    0.07    0.06
  -3   3   5    0.10    0.08
  -3   3   5    0.13    0.06
   2  -3  -5    8.43    0.36
  -2   3   5    9.17    0.39
  -2   3   5    9.21    0.35
   1  -3  -5    0.02    0.05
  -1   3   5    0.02    0.04
  -1   3   5    0.01    0.06
   0  -3  -5   22.92    0.70
   0   3   5   22.66    0.75
   0   3   5   22.87    0.66
  -1  -3  -5    1.36    0.12
   1   3   5    1.46    0.07
   1   3   5    1.37    0.14
  -2  -3  -5   50.60    1.36
   2   3   5   48.73    1.45
  -3  -3  -5   10.18    0.35
   3   3   5    9.95    0.38
   3   3   5   10.12    0.28
  -4  -3  -5   16.76    0.55
  -4  -3  -5   19.10    0.60
  -5  -3  -5    1.22    0.12
  -5  -3  -5    1.18    0.13
  -5  -3  -5    1.37    0.10
  -6  -3  -5    1.19    0.12
  -6  -3  -5    1.03    0.13
  -6  -3  -5    1.38    0.14
  -7  -3  -5    0.44    0.10
  -8  -3  -5   -0.02    0.07
   5  -4  -5    0.10    0.08
  -5   4   5   -0.02    0.10
  -5   4   5   -0.02    0.08
   4  -4  -5    0.36    0.10
  -4   4   5    0.28    0.11
  -4   4   5    0.47    0.11
   3  -4  -5    1.11    0.14
  -3   4   5    1.15    0.17
  -3   4   5    1.20    0.14
   2  -4  -5    0.71    0.12
  -2   4   5    0.88    0.14
  -2   4   5    1.00    0.12
   1  -4  -5    1.92    0.15
  -1   4   5    1.62    0.12
  -1   4   5    1.93    0.19
   0  -4  -5    5.56    0.26
   0   4   5    5.73    0.29
   0   4   5    5.64    0.22
  -1  -4  -5    9.08    0.35
   1   4   5    9.89    0.39
  -2  -4  -5    0.05    0.05
   2   4   5    0.03    0.06
  -3  -4  -5    1.46    0.13
   3   4   5    1.16    0.13
  -4  -4  -5   18.54    0.59
   4   4   5   17.64    0.61
  -5  -4  -5    2.91    0.18
  -6  -4  -5    6.38    0.29
  -6  -4  -5    5.37    0.26
  -7  -4  -5    1.27    0.15
  -7  -4  -5    1.45    0.16
  -8  -4  -5    0.52    0.11
   4  -5  -5    0.11    0.08
  -4   5   5    0.11    0.10
   3  -5  -5    1.10    0.15
  -3   5   5    0.83    0.16
   2  -5  -5   -0.02    0.06
  -2   5   5   -0.01    0.08
   1  -5  -5    1.89    0.18
  -1   5   5    2.08    0.21
   0  -5  -5    1.48    0.15
   0   5   5    1.48    0.17
  -1  -5  -5    3.03    0.19
   1   5   5    2.98    0.21
  -2  -5  -5    1.27    0.14
   2   5   5    1.40    0.15
  -3  -5  -5    0.61    0.10
   3   5   5    0.77    0.12
  -4  -5  -5    6.33    0.29
   4   5   5    6.03    0.29
  -5  -5  -5    0.02    0.06
   5   5   5    0.15    0.07
  -6  -5  -5    3.51    0.21
   6   5   5    3.38    0.22
  -7  -5  -5    2.02    0.19
  -8  -5  -5   -0.06    0.06
   3  -6  -5    0.08    0.08
  -3   6   5    0.07    0.10
   2  -6  -5    0.13    0.08
  -2   6   5    0.00    0.08
   1  -6  -5   -0.04    0.06
  -1   6   5   -0.01    0.08
   0  -6  -5    1.63    0.17
   0   6   5    1.41    0.17
  -1  -6  -5    0.41    0.10
   1   6   5    0.34    0.10
  -2  -6  -5    0.00    0.05
   2   6   5    0.07    0.08
  -3  -6  -5    1.49    0.16
   3   6   5    1.10    0.15
  -4  -6  -5    0.01    0.06
   4   6   5    0.02    0.07
  -5  -6  -5    0.34    0.09
   5   6   5    0.18    0.08
  -6  -6  -5    2.05    0.20
   6   6   5    1.72    0.17
  -7  -6  -5    1.15    0.15
  -8  -6  -5    1.01    0.16
  -9  -6  -5    0.30    0.11
   2  -7  -5    0.08    0.08
  -2   7   5    0.26    0.12
   1  -7  -5   -0.02    0.07
  -1   7   5    0.03    0.09
   0  -7  -5    0.01    0.06
   0   7   5   -0.10    0.07
  -1  -7  -5    1.83    0.19
   1   7   5    2.03    0.21
  -2  -7  -5    1.37    0.16
   2   7   5    1.41    0.17
  -3  -7  -5    0.25    0.09
   3   7   5    0.22    0.09
  -4  -7  -5    0.08    0.07
   4   7   5    0.06    0.07
  -5  -7  -5    1.02    0.14
   5   7   5    0.88    0.14
  -6  -7  -5    0.09    0.07
  -7  -7  -5   -0.01    0.08
  -8  -7  -5    0.10    0.09
  -9  -7  -5    0.33    0.12
   1  -8  -5   -0.06    0.07
  -1   8   5    0.12    0.10
   0  -8  -5    0.05    0.08
   0   8   5    0.11    0.10
  -1  -8  -5   -0.03    0.06
   1   8   5   -0.05    0.08
  -2  -8  -5    2.02    0.21
   2   8   5    1.79    0.20
  -3  -8  -5    0.00    0.07
   3   8   5   -0.10    0.07
  -4  -8  -5   -0.04    0.06
  -5  -8  -5    0.63    0.13
  -6  -8  -5    0.42    0.11
  -7  -8  -5    0.09    0.09
  -8  -8  -5    0.07    0.10
  -1  -9  -5    0.03    0.08
   1   9   5   -0.05    0.09
  -2  -9  -5    0.04    0.07
   2   9   5    0.09    0.09
  -3  -9  -5   -0.08    0.07
  -4  -9  -5    0.68    0.14
  -5  -9  -5    0.02    0.08
  -6  -9  -5    0.12    0.10
  -3  -9   6   -0.04    0.09
  -2  -9   6    1.13    0.19
  -5  -8   6    0.10    0.11
  -5  -8   6    0.12    0.09
  -4  -8   6    0.70    0.16
  -3  -8   6   -0.02    0.07
  -2  -8   6    1.10    0.18
  -1  -8   6    0.07    0.09
   0  -8   6   -0.07    0.08
   1  -8   6    0.62    0.14
  -6  -7   6    0.39    0.13
  -6  -7   6    0.44    0.13
  -5  -7   6    0.45    0.12
  -5  -7   6    0.38    0.13
  -4  -7   6   -0.03    0.07
  -4  -7   6   -0.02    0.08
  -3  -7   6    0.91    0.15
  -2  -7   6    0.62    0.14
  -1  -7   6    0.45    0.12
   0  -7   6    3.30    0.25
   1  -7   6    0.03    0.08
   2  -7   6    0.07    0.09
  -6  -6   6    0.07    0.08
  -6  -6   6    0.06    0.09
  -5  -6   6    0.07    0.09
  -5  -6   6   -0.01    0.06
  -4  -6   6    0.26    0.10
  -4  -6   6    0.05    0.07
  -3  -6   6    2.09    0.22
  -3  -6   6    1.99    0.18
  -2  -6   6    0.27    0.10
  -1  -6   6   -0.04    0.06
   0  -6   6    2.14    0.21
   1  -6   6    0.71    0.13
  -2   6  -6    0.18    0.08
   2  -6   6   -0.06    0.06
  -3   6  -6    1.18    0.17
   3  -6   6    0.94    0.15
  -4   6  -6    0.06    0.09
  -6  -5   6    0.11    0.09
  -6  -5   6    0.10    0.09
  -5  -5   6    1.62    0.19
  -5  -5   6    1.74    0.19
  -4  -5   6   -0.03    0.06
  -4  -5   6   -0.01    0.06
  -3  -5   6    0.01    0.05
  -3  -5   6    0.08    0.08
  -2  -5   6    0.97    0.14
  -2  -5   6    0.94    0.11
  -1  -5   6    0.47    0.11
   0  -5   6    0.62    0.11
  -1   5  -6    4.14    0.23
   1  -5   6    4.25    0.25
  -2   5  -6    0.48    0.10
   2  -5   6    0.51    0.11
  -3   5  -6    0.28    0.09
   3  -5   6    0.21    0.09
  -4   5  -6    0.94    0.16
   4  -5   6    0.67    0.14
  -5   5  -6   -0.05    0.08
   7   4  -6    1.07    0.18
  -7  -4   6    0.79    0.16
  -6  -4   6    0.19    0.10
  -5  -4   6    0.28    0.09
  -5  -4   6    0.09    0.08
  -4  -4   6    2.66    0.18
  -4  -4   6    2.29    0.22
  -3  -4   6    0.12    0.08
  -3  -4   6    0.20    0.07
  -2  -4   6    5.51    0.24
  -2  -4   6    4.96    0.27
  -1  -4   6    3.32    0.16
  -1  -4   6    3.48    0.22
   0   4  -6   -0.07    0.04
   0  -4   6    0.00    0.06
  -1   4  -6    0.13    0.06
   1  -4   6    0.20    0.07
  -2   4  -6    0.26    0.08
   2  -4   6    0.40    0.09
  -3   4  -6    0.02    0.06
   3  -4   6    0.05    0.07
  -4   4  -6    0.56    0.12
   4  -4   6    0.45    0.11
  -5   4  -6    1.15    0.17
   5  -4   6    1.31    0.18
   7   3  -6    0.26    0.11
  -7  -3   6    0.32    0.12
   6   3  -6    2.16    0.22
  -6  -3   6    1.93    0.21
   5   3  -6    0.33    0.10
  -5  -3   6    0.38    0.10
  -4  -3   6    2.25    0.21
  -3  -3   6    0.54    0.11
  -3  -3   6    0.60    0.10
  -2  -3   6    8.66    0.36
  -2  -3   6    8.21    0.32
  -1  -3   6    0.34    0.09
  -1  -3   6    0.39    0.06
  -1  -3   6    0.29    0.06
   0   3  -6    3.30    0.17
   0  -3   6    3.02    0.14
   0  -3   6    3.26    0.19
  -1   3  -6    2.68    0.17
   1  -3   6    2.69    0.18
  -2   3  -6    2.03    0.16
   2  -3   6    1.92    0.16
  -3   3  -6    1.61    0.17
   3  -3   6    1.59    0.16
  -4   3  -6    0.05    0.07
   4  -3   6    0.05    0.06
  -5   3  -6    0.50    0.12
   5  -3   6    0.77    0.13
  -6   3  -6    0.03    0.09
   6  -3   6    0.03    0.08
   7   2  -6    5.38    0.33
  -7  -2   6    5.03    0.33
   6   2  -6    2.26    0.23
  -6  -2   6    2.39    0.24
   5   2  -6    2.82    0.21
  -5  -2   6    2.92    0.22
   4   2  -6    4.17    0.24
  -4  -2   6    3.99    0.24
   3   2  -6    3.77    0.21
  -3  -2   6    3.90    0.23
   2   2  -6    3.11    0.17
  -2  -2   6    2.98    0.19
  -2  -2   6    2.82    0.16
   1   2  -6    6.39    0.25
  -1  -2   6    6.56    0.28
  -1  -2   6    6.95    0.26
   0   2  -6   30.57    0.89
   0   2  -6   30.07    0.83
   0  -2   6   29.34    0.90
  -1   2  -6    4.38    0.15
  -1   2  -6    4.84    0.22
   1  -2   6    4.54    0.22
  -2   2  -6   11.58    0.43
   2  -2   6   11.92    0.42
  -3   2  -6    0.91    0.12
   3  -2   6    0.99    0.12
  -4   2  -6    1.22    0.15
   4  -2   6    1.17    0.14
  -5   2  -6    0.00    0.07
   5  -2   6   -0.03    0.05
  -6   2  -6    2.37    0.24
   6  -2   6    2.87    0.22
  -7   2  -6    0.05    0.10
   7  -2   6    0.09    0.09
   6   1  -6    0.15    0.08
  -6  -1   6    0.11    0.09
   5   1  -6    2.06    0.20
  -5  -1   6    2.00    0.21
   4   1  -6   10.87    0.45
  -4  -1   6   12.26    0.47
   3   1  -6    2.74    0.18
  -3  -1   6    2.78    0.16
  -3  -1   6    2.54    0.18
   2   1  -6    0.86    0.11
  -2  -1   6    1.07    0.12
  -2  -1   6    1.02    0.11
   1   1  -6    2.63    0.14
  -1  -1   6    2.61    0.16
  -1  -1   6    2.56    0.15
   0   1  -6   23.83    0.69
   0  -1   6   24.93    0.74
  -1   1  -6    4.26    0.21
  -1   1  -6    4.57    0.16
   1  -1   6    4.79    0.21
  -2   1  -6   11.57    0.42
   2  -1   6   11.63    0.40
  -3   1  -6    0.15    0.06
   3  -1   6    0.13    0.06
  -4   1  -6    5.76    0.29
   4  -1   6    5.64    0.27
  -5   1  -6    0.21    0.09
   5  -1   6    0.21    0.08
  -6   1  -6    1.62    0.19
   6  -1   6    1.53    0.18
  -7   1  -6   -0.07    0.07
   7  -1   6    0.05    0.08
   6   0  -6    0.19    0.09
  -6   0   6    0.12    0.09
   5   0  -6   18.90    0.68
  -5   0   6   19.03    0.70
   4   0  -6    8.72    0.37
  -4   0   6    7.48    0.34
  -4   0   6    8.31    0.37
   3   0  -6    0.34    0.08
  -3   0   6    0.30    0.08
  -3   0   6    0.08    0.05
   2   0  -6    2.16    0.15
  -2   0   6    2.16    0.15
   1   0  -6   27.46    0.80
  -1   0   6   26.78    0.84
  -1   0   6   27.73    0.82
   0   0   6    2.58    0.16
   0   0   6    2.88    0.15
  -1   0  -6   52.04    1.37
   1   0   6   52.04    1.44
   1   0   6   51.54    1.50
  -2   0  -6   26.71    0.82
  -2   0  -6   26.00    0.71
   2   0   6   26.58    0.78
  -3   0  -6    0.00    0.02
  -3   0  -6   -0.02    0.05
   3   0   6    0.03    0.04
  -4   0  -6   16.72    0.59
   4   0   6   16.24    0.55
  -5   0  -6    2.32    0.19
   5   0   6    2.66    0.17
  -6   0  -6    1.47    0.17
   6   0   6    1.25    0.15
  -7   0  -6    1.25    0.17
   7   0   6    1.26    0.17
  -8   0  -6    0.77    0.16
   8   0   6    0.83    0.15
   6  -1  -6   -0.02    0.07
  -6   1   6   -0.01    0.07
   5  -1  -6    2.16    0.22
  -5   1   6    2.20    0.21
  -5   1   6    2.16    0.22
   4  -1  -6    0.04    0.07
  -4   1   6    0.18    0.08
  -4   1   6    0.06    0.07
   3  -1  -6   24.19    0.76
  -3   1   6   23.27    0.79
  -3   1   6   23.28    0.76
   2  -1  -6    4.37    0.22
  -2   1   6    4.21    0.23
  -2   1   6    4.22    0.21
   1  -1  -6    7.90    0.31
  -1   1   6    8.54    0.35
  -1   1   6    8.49    0.31
   0  -1  -6    0.04    0.04
   0   1   6    0.04    0.04
   0   1   6    0.10    0.06
  -1  -1  -6   31.68    0.97
   1   1   6   36.96    1.07
   1   1   6   37.95    0.99
  -2  -1  -6   13.90    0.42
   2   1   6   14.27    0.43
  -3  -1  -6    3.00    0.19
  -3  -1  -6    3.10    0.14
   3   1   6    3.20    0.15
  -4  -1  -6   13.22    0.40
  -4  -1  -6   13.42    0.50
   4   1   6   13.62    0.45
  -5  -1  -6    1.59    0.17
   5   1   6    1.70    0.13
  -6  -1  -6    4.75    0.28
   6   1   6    4.73    0.25
  -7  -1  -6    0.56    0.12
  -8  -1  -6    0.37    0.12
  -6   2   6   -0.05    0.07
  -6   2   6    0.07    0.09
   5  -2  -6   -0.03    0.06
  -5   2   6    0.00    0.07
  -5   2   6   -0.04    0.07
   4  -2  -6    0.19    0.08
  -4   2   6    0.10    0.07
  -4   2   6    0.08    0.07
   3  -2  -6   55.28    1.57
  -3   2   6   54.05    1.59
  -3   2   6   55.12    1.66
   2  -2  -6    0.02    0.06
  -2   2   6    0.05    0.07
  -2   2   6   -0.05    0.05
   1  -2  -6    2.99    0.18
  -1   2   6    2.88    0.16
  -1   2   6    2.85    0.19
   0  -2  -6    0.54    0.08
   0   2   6    0.47    0.09
   0   2   6    0.43    0.06
  -1  -2  -6   51.50    1.38
   1   2   6   50.85    1.49
   1   2   6   49.54    1.37
   2   2   6   56.88    1.53
   2   2   6   56.92    1.65
  -3  -2  -6   18.19    0.54
   3   2   6   18.05    0.52
  -4  -2  -6    6.33    0.29
  -4  -2  -6    6.15    0.24
   4   2   6    6.12    0.23
  -5  -2  -6    2.07    0.17
  -5  -2  -6    1.97    0.13
   5   2   6    1.97    0.14
  -6  -2  -6    5.70    0.30
  -7  -2  -6    2.24    0.17
  -7  -2  -6    3.00    0.22
  -8  -2  -6   -0.05    0.07
  -9  -2  -6    0.51    0.14
   5  -3  -6    0.12    0.08
  -5   3   6    0.12    0.09
  -5   3   6    0.21    0.11
   4  -3  -6    0.08    0.07
  -4   3   6    0.16    0.09
  -4   3   6    0.22    0.09
   3  -3  -6    5.71    0.30
  -3   3   6    5.66    0.32
  -3   3   6    5.92    0.29
   2  -3  -6    1.35    0.15
  -2   3   6    1.25    0.13
  -2   3   6    1.62    0.18
   1  -3  -6   29.95    0.93
  -1   3   6   31.23    0.91
  -1   3   6   31.14    1.00
   0  -3  -6    0.42    0.08
   0   3   6    0.49    0.11
   0   3   6    0.43    0.06
  -1  -3  -6   21.43    0.66
   1   3   6   21.20    0.60
   1   3   6   21.97    0.73
  -2  -3  -6   19.13    0.59
   2   3   6   18.37    0.64
  -3  -3  -6   24.22    0.71
   3   3   6   23.48    0.77
  -4  -3  -6    1.40    0.11
   4   3   6    1.63    0.16
  -5  -3  -6    0.95    0.11
  -5  -3  -6    1.17    0.14
  -6  -3  -6    1.52    0.17
  -6  -3  -6    1.53    0.14
  -7  -3  -6    2.37    0.20
  -8  -3  -6    0.75    0.14
  -9  -3  -6    0.28    0.12
  -5   4   6    0.47    0.13
   4  -4  -6   -0.05    0.06
  -4   4   6    0.07    0.09
  -4   4   6   -0.01    0.06
   3  -4  -6    0.03    0.07
  -3   4   6    0.15    0.07
  -3   4   6    0.22    0.10
   2  -4  -6    1.29    0.15
  -2   4   6    1.19    0.17
  -2   4   6    1.29    0.14
   1  -4  -6   32.27    0.99
  -1   4   6   32.84    1.06
   0  -4  -6    2.62    0.18
   0   4   6    2.86    0.21
  -1  -4  -6    8.68    0.35
   1   4   6    8.64    0.38
  -2  -4  -6    7.85    0.31
   2   4   6    7.05    0.34
  -3  -4  -6    4.71    0.23
   3   4   6    4.85    0.26
  -4  -4  -6   21.82    0.68
   4   4   6   21.62    0.73
  -5  -4  -6    7.94    0.33
   5   4   6    8.00    0.36
  -6  -4  -6    0.25    0.09
  -7  -4  -6    0.66    0.11
  -7  -4  -6    0.60    0.12
  -8  -4  -6    0.97    0.15
   4  -5  -6    0.11    0.09
   3  -5  -6    0.25    0.09
  -3   5   6    0.17    0.11
   2  -5  -6    0.38    0.10
  -2   5   6    0.30    0.11
   1  -5  -6    2.27    0.20
  -1   5   6    1.79    0.20
   0  -5  -6    0.92    0.13
   0   5   6    0.83    0.14
  -1  -5  -6   28.45    0.89
   1   5   6   28.66    0.95
  -2  -5  -6    8.52    0.36
   2   5   6    8.94    0.40
  -3  -5  -6    1.06    0.13
   3   5   6    1.45    0.17
  -4  -5  -6    6.70    0.30
   4   5   6    6.62    0.32
  -5  -5  -6   11.13    0.43
   5   5   6   10.45    0.44
  -6  -5  -6    2.12    0.19
   6   5   6    2.21    0.20
  -7  -5  -6    0.17    0.08
   7   5   6    0.21    0.09
   3  -6  -6    0.15    0.09
   2  -6  -6    0.06    0.07
  -2   6   6    0.33    0.12
   1  -6  -6    0.67    0.13
  -1   6   6    1.12    0.17
   0  -6  -6    0.10    0.07
   0   6   6    0.06    0.09
  -1  -6  -6   11.34    0.45
   1   6   6   10.95    0.48
  -2  -6  -6    8.88    0.39
   2   6   6    9.00    0.41
  -3  -6  -6    0.16    0.07
   3   6   6    0.30    0.10
  -4  -6  -6    1.15    0.14
   4   6   6    1.41    0.17
  -5  -6  -6    1.57    0.17
   5   6   6    1.72    0.18
  -6  -6  -6    8.48    0.39
   6   6   6    9.04    0.40
  -7  -6  -6    0.72    0.13
  -8  -6  -6    0.30    0.10
   2  -7  -6   -0.01    0.07
   1  -7  -6    0.05    0.08
  -1   7   6    0.04    0.09
   0  -7  -6    0.78    0.13
   0   7   6    0.84    0.15
  -1  -7  -6    0.39    0.11
   1   7   6    0.17    0.10
  -2  -7  -6    0.79    0.13
   2   7   6    0.84    0.15
  -3  -7  -6    3.60    0.24
   3   7   6    3.65    0.25
  -4  -7  -6    3.45    0.24
   4   7   6    3.48    0.24
  -5  -7  -6    0.03    0.06
   5   7   6    0.04    0.09
  -6  -7  -6    2.74    0.22
  -7  -7  -6    0.60    0.13
  -8  -7  -6    0.73    0.14
  -9  -7  -6    0.01    0.09
   0  -8  -6   -0.04    0.08
   0   8   6    0.04    0.09
  -1  -8  -6    0.25    0.10
   1   8   6    0.14    0.10
  -2  -8  -6   -0.02    0.06
   2   8   6   -0.03    0.08
  -3  -8  -6    0.66    0.13
   3   8   6    0.75    0.14
  -4  -8  -6    1.51    0.19
   4   8   6    1.50    0.19
  -5  -8  -6    0.00    0.07
  -6  -8  -6    0.47    0.12
  -7  -8  -6    0.08    0.09
  -8  -8  -6    0.83    0.16
   1   9   6   -0.06    0.09
  -2  -9  -6    0.27    0.11
   2   9   6    0.38    0.13
  -3  -9  -6    0.00    0.08
   3   9   6   -0.05    0.08
  -4  -9  -6    0.08    0.08
  -5  -9  -6    0.32    0.11
  -6  -9  -6    0.89    0.16
  -4  -8   7    0.04    0.10
  -3  -8   7   -0.09    0.09
  -2  -8   7    1.88    0.23
  -1  -8   7    0.10    0.10
   0  -8   7    0.15    0.10
  -5  -7   7    3.66    0.29
  -5  -7   7    3.26    0.24
  -4  -7   7    1.17    0.16
  -4  -7   7    1.03    0.18
  -3  -7   7   -0.08    0.08
  -2  -7   7    3.50    0.27
  -1  -7   7    0.45    0.13
   0  -7   7    1.57    0.20
   1  -7   7    0.51    0.13
   2  -7   7    0.16    0.10
  -6  -6   7    0.15    0.09
  -6  -6   7    0.06    0.10
  -5  -6   7    0.84    0.14
  -5  -6   7    0.75    0.15
  -4  -6   7   10.38    0.49
  -4  -6   7   11.37    0.45
  -3  -6   7    4.16    0.24
  -3  -6   7    4.23    0.29
  -2  -6   7   -0.09    0.06
  -1  -6   7    0.07    0.08
   0  -6   7    3.04    0.23
   1  -6   7    0.05    0.08
   2  -6   7    0.85    0.15
  -3   6  -7   -0.02    0.08
   3  -6   7    0.05    0.08
  -4   6  -7    0.37    0.12
  -6  -5   7    0.31    0.13
  -6  -5   7    0.38    0.11
  -5  -5   7    0.09    0.07
  -5  -5   7    0.04    0.09
  -4  -5   7    5.78    0.33
  -4  -5   7    5.51    0.29
  -3  -5   7    2.72    0.18
  -3  -5   7    2.42    0.23
  -2  -5   7    4.35    0.22
  -2  -5   7    4.22    0.26
  -1  -5   7    1.73    0.19
   0  -5   7    8.66    0.39
  -1   5  -7    0.57    0.10
   1  -5   7    0.35    0.10
  -2   5  -7    8.75    0.38
   2  -5   7    7.94    0.39
  -3   5  -7    0.06    0.08
   3  -5   7    0.28    0.10
  -4   5  -7    0.05    0.08
   4  -5   7   -0.02    0.07
  -5   5  -7    0.06    0.09
   6   4  -7    0.11    0.09
  -6  -4   7    0.08    0.09
  -5  -4   7   -0.02    0.06
  -4  -4   7    2.09    0.20
  -4  -4   7    2.25    0.22
  -3  -4   7    0.36    0.10
  -3  -4   7    0.48    0.09
  -2  -4   7   21.89    0.76
  -2  -4   7   22.19    0.68
  -1  -4   7    4.16    0.19
  -1  -4   7    3.96    0.24
   0   4  -7    1.34    0.13
   0  -4   7    1.24    0.15
  -1   4  -7    0.11    0.07
   1  -4   7    0.09    0.08
  -2   4  -7    4.25    0.24
   2  -4   7    4.76    0.27
  -3   4  -7    0.10    0.07
   3  -4   7   -0.01    0.06
  -4   4  -7    2.30    0.23
   4  -4   7    2.32    0.23
  -5   4  -7   -0.02    0.07
   5  -4   7    0.12    0.08
   6   3  -7    0.17    0.09
  -6  -3   7    0.32    0.12
   5   3  -7    0.53    0.12
  -5  -3   7    0.48    0.12
   4   3  -7    4.09    0.24
  -4  -3   7    3.51    0.24
   3   3  -7    8.03    0.35
  -3  -3   7    8.23    0.38
   2   3  -7    1.93    0.14
  -2  -3   7    2.79    0.20
   1   3  -7    0.02    0.04
  -1  -3   7    0.13    0.08
   0   3  -7    4.16    0.21
   0  -3   7    4.53    0.25
  -1   3  -7   11.41    0.43
   1  -3   7   11.53    0.44
  -2   3  -7    8.77    0.37
   2  -3   7    8.33    0.36
  -3   3  -7    0.11    0.08
   3  -3   7    0.16    0.08
  -4   3  -7    7.71    0.37
   4  -3   7    7.18    0.35
  -5   3  -7   -0.03    0.07
   5  -3   7   -0.01    0.06
  -6   3  -7    0.46    0.13
   6  -3   7    0.39    0.11
   6   2  -7    0.12    0.08
  -6  -2   7    0.08    0.10
   5   2  -7    0.31    0.10
  -5  -2   7    0.08    0.09
   4   2  -7    3.41    0.22
  -4  -2   7    3.56    0.24
   3   2  -7    1.87    0.17
  -3  -2   7    1.99    0.18
   2   2  -7    1.16    0.12
  -2  -2   7    1.25    0.12
  -2  -2   7    0.89    0.12
   1   2  -7    6.52    0.26
  -1  -2   7    6.75    0.28
  -1  -2   7    6.78    0.30
   0   2  -7   21.85    0.63
   0  -2   7   22.08    0.70
   0  -2   7   21.07    0.69
  -1   2  -7    0.59    0.10
   1  -2   7    0.50    0.09
  -2   2  -7    0.99    0.12
   2  -2   7    0.91    0.12
  -3   2  -7   -0.02    0.06
   3  -2   7    0.03    0.06
  -4   2  -7    4.12    0.25
   4  -2   7    3.77    0.23
  -5   2  -7    0.80    0.14
   5  -2   7    0.63    0.12
  -6   2  -7    1.62    0.20
   6  -2   7    1.77    0.20
   7  -2   7    0.34    0.11
   6   1  -7    0.04    0.08
  -6  -1   7    0.04    0.08
   5   1  -7    1.57    0.19
  -5  -1   7    1.66    0.20
   4   1  -7    2.92    0.20
  -4  -1   7    2.54    0.20
   3   1  -7   12.92    0.47
  -3  -1   7   12.56    0.48
  -3  -1   7   12.72    0.46
   2   1  -7    0.04    0.05
  -2  -1   7    0.04    0.06
  -2  -1   7    0.12    0.07
   1   1  -7   16.61    0.53
  -1  -1   7   16.49    0.56
  -1  -1   7   16.31    0.56
   0   1  -7    0.01    0.03
   0  -1   7    0.03    0.03
   0  -1   7    0.05    0.05
  -1   1  -7    5.17    0.19
  -1   1  -7    5.30    0.24
   1  -1   7    5.58    0.24
  -2   1  -7    3.37    0.20
   2  -1   7    3.57    0.19
  -3   1  -7    7.34    0.33
   3  -1   7    7.34    0.30
  -4   1  -7    2.48    0.19
   4  -1   7    2.92    0.19
  -5   1  -7    1.82    0.19
   5  -1   7    1.48    0.16
  -6   1  -7    2.54    0.24
   6  -1   7    2.13    0.21
  -7   1  -7    0.19    0.11
   7  -1   7    0.18    0.09
   6   0  -7    0.13    0.09
  -6   0   7    0.07    0.09
   5   0  -7    0.80    0.14
  -5   0   7    0.86    0.15
   4   0  -7    0.81    0.13
  -4   0   7    0.86    0.14
  -4   0   7    0.86    0.13
   3   0  -7    9.58    0.38
  -3   0   7    9.24    0.38
  -3   0   7    7.95    0.36
   2   0  -7    0.72    0.11
  -2   0   7    0.68    0.10
   1   0  -7    2.32    0.15
  -1   0   7    2.38    0.17
  -1   0   7    2.50    0.16
   0   0   7    1.96    0.15
   0   0   7    2.00    0.14
  -1   0  -7   34.11    0.94
   1   0   7   33.37    1.03
   1   0   7   34.52    0.99
  -2   0  -7    2.85    0.18
  -2   0  -7    2.73    0.12
   2   0   7    2.97    0.16
  -3   0  -7    2.93    0.19
   3   0   7    3.26    0.17
  -4   0  -7    0.42    0.10
   4   0   7    0.47    0.09
  -5   0  -7    1.29    0.16
   5   0   7    1.37    0.14
  -6   0  -7    0.42    0.11
   6   0   7    0.36    0.09
  -7   0  -7    1.34    0.19
   7   0   7    1.08    0.16
  -8   0  -7    0.27    0.11
   8   0   7    0.27    0.11
  -6   1   7    0.48    0.14
   5  -1  -7    0.38    0.11
  -5   1   7    0.68    0.13
  -5   1   7    0.43    0.12
  -4   1   7    0.24    0.09
  -4   1   7    0.15    0.08
   3  -1  -7    9.81    0.41
  -3   1   7   10.25    0.42
  -3   1   7    9.75    0.41
   2  -1  -7   23.69    0.75
  -2   1   7   23.85    0.75
  -2   1   7   23.52    0.79
   1  -1  -7    9.58    0.37
  -1   1   7   10.06    0.36
  -1   1   7    9.81    0.40
   0  -1  -7    0.31    0.07
   0   1   7    0.21    0.06
   0   1   7    0.15    0.07
  -1  -1  -7   22.90    0.66
   1   1   7   21.39    0.73
   1   1   7   22.89    0.67
  -2  -1  -7   18.75    0.54
   2   1   7   17.52    0.55
   2   1   7   18.01    0.62
  -3  -1  -7    0.10    0.06
  -3  -1  -7    0.10    0.04
   3   1   7   -0.01    0.04
  -4  -1  -7    3.42    0.22
   4   1   7    3.92    0.19
  -5  -1  -7    4.72    0.28
   5   1   7    5.26    0.24
  -6  -1  -7    0.24    0.09
   6   1   7    0.17    0.07
  -7  -1  -7    1.24    0.17
   7   1   7    0.64    0.12
  -8  -1  -7    0.08    0.10
   8   1   7    0.16    0.09
   5  -2  -7    1.06    0.16
  -5   2   7    0.81    0.15
  -5   2   7    1.20    0.17
   4  -2  -7    0.80    0.13
  -4   2   7    0.68    0.13
  -4   2   7    0.90    0.15
   3  -2  -7    2.67    0.20
  -3   2   7    2.86    0.20
  -3   2   7    3.08    0.23
   2  -2  -7    0.32    0.09
  -2   2   7    0.25    0.08
  -2   2   7    0.41    0.11
   1  -2  -7   10.62    0.41
  -1   2   7   10.63    0.44
  -1   2   7   10.58    0.38
   0  -2  -7   -0.02    0.04
   0   2   7    0.01    0.04
   0   2   7   -0.06    0.06
  -1  -2  -7    7.99    0.30
   1   2   7    7.78    0.35
   1   2   7    7.81    0.27
   2   2   7    4.77    0.25
   2   2   7    4.98    0.18
  -3  -2  -7    0.28    0.06
   3   2   7    0.34    0.05
   3   2   7    0.43    0.09
  -4  -2  -7    9.04    0.40
  -4  -2  -7   10.54    0.34
   4   2   7    9.50    0.33
  -5  -2  -7    5.83    0.30
  -6  -2  -7    2.04    0.20
  -7  -2  -7    0.24    0.10
  -8  -2  -7    0.00    0.08
  -5   3   7    0.29    0.12
  -5   3   7    0.31    0.11
   4  -3  -7    1.16    0.16
  -4   3   7    0.75    0.14
  -4   3   7    1.12    0.17
   3  -3  -7    0.86    0.13
  -3   3   7    0.75    0.12
  -3   3   7    0.68    0.14
   2  -3  -7    1.11    0.14
  -2   3   7    1.03    0.13
  -2   3   7    1.28    0.17
   1  -3  -7   39.09    1.16
  -1   3   7   38.99    1.13
  -1   3   7   38.96    1.24
   0  -3  -7   14.90    0.52
   0   3   7   14.30    0.56
  -1  -3  -7    7.50    0.31
   1   3   7    7.46    0.35
  -2  -3  -7    9.77    0.36
   2   3   7    9.92    0.41
  -3  -3  -7    0.12    0.05
   3   3   7    0.17    0.07
  -4  -3  -7    2.93    0.17
   4   3   7    2.96    0.21
  -5  -3  -7   -0.03    0.06
  -5  -3  -7    0.06    0.05
  -6  -3  -7    5.79    0.31
  -7  -3  -7    0.32    0.11
  -8  -3  -7    0.57    0.14
  -9  -3  -7    0.15    0.11
   4  -4  -7    1.12    0.17
  -4   4   7    0.98    0.17
   3  -4  -7    0.52    0.12
  -3   4   7    0.32    0.12
   2  -4  -7    2.04    0.20
  -2   4   7    1.86    0.21
   1  -4  -7   12.17    0.48
  -1   4   7   12.07    0.51
   0  -4  -7    0.30    0.09
   0   4   7    0.49    0.13
  -1  -4  -7    2.26    0.16
   1   4   7    2.26    0.21
  -2  -4  -7    9.05    0.36
   2   4   7    9.67    0.42
  -3  -4  -7    0.93    0.12
   3   4   7    1.05    0.14
  -4  -4  -7    0.04    0.06
   4   4   7    0.02    0.07
  -5  -4  -7    0.12    0.05
   5   4   7    0.68    0.12
  -6  -4  -7    8.88    0.36
  -7  -4  -7    0.10    0.08
  -8  -4  -7    0.96    0.15
   3  -5  -7    1.15    0.17
  -3   5   7    1.85    0.23
   2  -5  -7    0.40    0.10
  -2   5   7    0.81    0.16
   1  -5  -7    0.12    0.07
  -1   5   7    0.21    0.10
   0  -5  -7    1.34    0.16
   0   5   7    1.53    0.18
  -1  -5  -7   30.71    0.95
   1   5   7   30.04    1.02
  -2  -5  -7    6.19    0.29
   2   5   7    4.90    0.30
  -3  -5  -7    0.01    0.06
   3   5   7    0.06    0.09
  -4  -5  -7    1.28    0.15
   4   5   7    1.26    0.17
  -5  -5  -7    1.32    0.16
   5   5   7    1.41    0.17
  -6  -5  -7    0.49    0.11
   6   5   7    0.62    0.12
  -7  -5  -7    0.67    0.12
   7   5   7    0.77    0.14
   2  -6  -7    0.26    0.10
  -2   6   7    0.31    0.13
   1  -6  -7   -0.01    0.07
  -1   6   7    0.08    0.10
   0  -6  -7    0.82    0.13
   0   6   7    0.72    0.14
  -1  -6  -7   13.32    0.51
   1   6   7   11.85    0.53
  -2  -6  -7   -0.01    0.06
   2   6   7    0.11    0.09
  -3  -6  -7    1.67    0.17
   3   6   7    1.65    0.19
  -4  -6  -7    1.99    0.20
   4   6   7    1.75    0.20
  -5  -6  -7    1.38    0.16
   5   6   7    1.39    0.18
  -6  -6  -7    0.07    0.07
   6   6   7    0.19    0.09
  -7  -6  -7    2.43    0.23
   7   6   7    2.48    0.24
   1  -7  -7    1.04    0.16
  -1   7   7    1.55    0.22
   0  -7  -7    0.21    0.09
   0   7   7    0.11    0.11
  -1  -7  -7    0.06    0.07
   1   7   7   -0.14    0.07
  -2  -7  -7    0.50    0.12
   2   7   7    0.44    0.13
  -3  -7  -7   15.11    0.59
   3   7   7   15.66    0.63
  -4  -7  -7    0.04    0.07
   4   7   7    0.28    0.11
  -5  -7  -7    0.67    0.13
   5   7   7    0.69    0.15
  -6  -7  -7    0.27    0.10
   6   7   7    0.15    0.10
  -7  -7  -7    1.38    0.18
  -8  -7  -7    0.11    0.09
  -1  -8  -7    0.00    0.07
   1   8   7    0.13    0.11
  -2  -8  -7   -0.02    0.07
   2   8   7    0.11    0.10
  -3  -8  -7    5.17    0.31
   3   8   7    4.68    0.31
  -4  -8  -7    0.18    0.09
   4   8   7    0.31    0.12
  -5  -8  -7    1.63    0.20
   5   8   7    2.05    0.23
  -6  -8  -7    0.11    0.09
  -7  -8  -7    0.82    0.16
   2   9   7   -0.09    0.09
   3   9   7   -0.05    0.10
  -4  -9  -7    0.07    0.09
  -5  -7   8    1.83    0.21
  -4  -7   8    0.36    0.13
  -3  -7   8    0.58    0.15
  -2  -7   8    0.43    0.13
  -1  -7   8    0.04    0.09
   0  -7   8   -0.02    0.08
   1  -7   8   -0.05    0.08
  -5  -6   8    1.12    0.19
  -5  -6   8    1.28    0.17
  -4  -6   8    1.53    0.21
  -4  -6   8    1.59    0.18
  -3  -6   8    5.75    0.35
  -2  -6   8    1.62    0.20
  -1  -6   8    0.29    0.11
   0  -6   8    1.60    0.20
   1  -6   8    0.47    0.12
   2  -6   8    0.02    0.09
   3  -6   8    0.05    0.09
  -4   6  -8    0.81    0.16
   6   5  -8    0.09    0.09
  -5  -5   8    0.07    0.09
  -4  -5   8   -0.03    0.08
  -4  -5   8    0.14    0.08
  -3  -5   8   12.45    0.54
  -3  -5   8   13.12    0.48
  -2  -5   8    5.03    0.30
  -1  -5   8    5.72    0.32
   0  -5   8    1.42    0.18
   1  -5   8    2.56    0.24
  -2   5  -8    0.55    0.11
   2  -5   8    0.51    0.12
  -3   5  -8    0.49    0.12
   3  -5   8    0.49    0.12
  -4   5  -8    0.74    0.15
   4  -5   8    1.09    0.17
   6   4  -8    0.14    0.10
   5   4  -8    0.26    0.10
  -5  -4   8    0.26    0.11
   4   4  -8    0.84    0.13
  -4  -4   8    0.64    0.13
   3   4  -8    5.10    0.27
  -3  -4   8    5.23    0.31
   2   4  -8   10.33    0.40
  -2  -4   8   10.66    0.46
  -1  -4   8   17.08    0.64
   0  -4   8    2.40    0.20
  -1   4  -8    0.00    0.06
   1  -4   8    0.17    0.08
  -2   4  -8    5.70    0.29
   2  -4   8    5.04    0.29
  -3   4  -8    0.42    0.11
   3  -4   8    0.52    0.12
  -4   4  -8    0.21    0.10
   4  -4   8    0.20    0.09
  -5   4  -8    0.13    0.10
   5  -4   8    0.26    0.10
   6   3  -8    0.99    0.17
  -6  -3   8    1.24    0.19
   5   3  -8    2.63    0.25
  -5  -3   8    2.38    0.24
   4   3  -8    0.02    0.07
  -4  -3   8   -0.03    0.07
   3   3  -8    1.84    0.18
  -3  -3   8    2.08    0.20
   1   3  -8   21.90    0.66
  -1  -3   8   21.40    0.73
   0  -3   8   22.63    0.76
  -1   3  -8   25.17    0.80
   1  -3   8   23.87    0.80
  -2   3  -8    1.80    0.18
   2  -3   8    1.72    0.17
  -3   3  -8    3.81    0.24
   3  -3   8    3.79    0.24
  -4   3  -8    2.02    0.20
   4  -3   8    1.78    0.19
  -5   3  -8    1.33    0.18
   5  -3   8    1.38    0.18
  -6   3  -8    0.04    0.08
   6  -3   8    0.10    0.09
   6   2  -8    0.71    0.15
  -6  -2   8    0.65    0.15
   5   2  -8    0.99    0.15
  -5  -2   8    0.99    0.16
   4   2  -8    0.11    0.07
  -4  -2   8    0.03    0.07
   3   2  -8    1.29    0.15
  -3  -2   8    1.54    0.17
   2   2  -8    0.00    0.05
  -2  -2   8   -0.01    0.06
   1   2  -8    2.24    0.14
  -1  -2   8    2.20    0.17
  -1  -2   8    2.31    0.17
   0   2  -8   13.28    0.42
   0  -2   8   13.30    0.47
   0  -2   8   12.88    0.49
  -1   2  -8   42.85    1.26
   1  -2   8   41.09    1.24
  -2   2  -8    0.51    0.10
   2  -2   8    0.52    0.10
  -3   2  -8    0.45    0.11
   3  -2   8    0.79    0.12
  -4   2  -8    3.88    0.26
   4  -2   8    4.32    0.25
  -5   2  -8    0.50    0.12
   5  -2   8    0.71    0.13
  -6   2  -8    1.18    0.18
   6  -2   8    1.13    0.17
   7  -2   8    0.18    0.10
  -6  -1   8    0.70    0.15
   5   1  -8   -0.02    0.07
  -5  -1   8    0.08    0.09
   4   1  -8    3.57    0.24
  -4  -1   8    3.67    0.25
   3   1  -8    0.94    0.13
  -3  -1   8    1.16    0.15
   2   1  -8    8.87    0.36
  -2  -1   8    8.87    0.37
  -2  -1   8    8.86    0.38
   1   1  -8    0.20    0.06
  -1  -1   8    0.20    0.07
  -1  -1   8    0.29    0.09
   0   1  -8    5.91    0.24
   0  -1   8    5.50    0.26
   1  -1   8   25.71    0.81
   1  -1   8   26.46    0.84
  -2   1  -8   78.42    2.25
   2  -1   8   78.48    2.19
  -3   1  -8    4.58    0.26
   3  -1   8    4.47    0.24
  -4   1  -8    5.66    0.30
   4  -1   8    5.62    0.28
  -5   1  -8    2.38    0.23
   5  -1   8    2.64    0.19
  -6   1  -8    5.23    0.33
   6  -1   8    5.36    0.30
  -7   1  -8    0.28    0.12
   7  -1   8    0.13    0.09
   5   0  -8    0.62    0.13
  -5   0   8    0.69    0.15
   4   0  -8    2.77    0.21
  -4   0   8    2.31    0.22
   3   0  -8    3.01    0.20
  -3   0   8    2.62    0.19
  -3   0   8    2.59    0.19
   2   0  -8    0.53    0.10
  -2   0   8    0.39    0.09
   1   0  -8    0.36    0.08
  -1   0   8    0.25    0.09
  -1   0   8    0.39    0.09
   0   0  -8    0.16    0.05
   0   0   8    0.11    0.08
   0   0   8    0.10    0.06
  -1   0  -8    3.07    0.15
   1   0   8    3.54    0.20
   1   0   8    2.84    0.17
   2   0   8   32.36    0.95
  -3   0  -8   12.37    0.47
   3   0   8   11.72    0.42
  -4   0  -8    1.05    0.15
   4   0   8    0.95    0.12
  -5   0  -8    0.01    0.07
   5   0   8    0.00    0.05
  -6   0  -8    3.91    0.27
   6   0   8    4.07    0.24
  -7   0  -8    0.07    0.09
   7   0   8    0.06    0.07
   8   0   8    1.11    0.17
   5  -1  -8    0.03    0.07
  -5   1   8    0.08    0.08
   4  -1  -8    1.08    0.16
  -4   1   8    1.56    0.18
  -4   1   8    1.52    0.18
   3  -1  -8    1.49    0.17
  -3   1   8    1.55    0.17
  -3   1   8    1.48    0.18
   2  -1  -8    3.66    0.22
  -2   1   8    3.43    0.23
  -2   1   8    3.42    0.21
   1  -1  -8    7.03    0.30
  -1   1   8    6.99    0.29
  -1   1   8    6.88    0.34
   0  -1  -8   17.19    0.54
   0   1   8   16.13    0.53
   0   1   8   16.01    0.60
  -1  -1  -8    0.02    0.04
   1   1   8    0.01    0.05
   1   1   8    0.03    0.06
  -2  -1  -8   19.35    0.57
   2   1   8   18.61    0.58
   2   1   8   18.97    0.66
  -3  -1  -8    0.01    0.06
   3   1   8    0.02    0.05
  -4  -1  -8   28.86    0.96
   4   1   8   30.14    0.88
  -5  -1  -8   -0.05    0.07
   5   1   8   -0.01    0.05
  -6  -1  -8    6.47    0.34
   6   1   8    6.06    0.29
  -7  -1  -8    0.00    0.09
  -8  -1  -8    2.22    0.25
  -5   2   8    0.05    0.09
  -5   2   8    0.03    0.08
   4  -2  -8    1.41    0.18
  -4   2   8    1.23    0.17
  -4   2   8    1.52    0.19
   3  -2  -8    0.42    0.10
  -3   2   8    0.56    0.11
  -3   2   8    0.85    0.15
   2  -2  -8    7.37    0.34
  -2   2   8    7.16    0.32
  -2   2   8    7.25    0.36
   1  -2  -8    5.08    0.26
  -1   2   8    5.04    0.24
  -1   2   8    5.00    0.29
   0  -2  -8    2.15    0.18
   0   2   8    1.67    0.18
   0   2   8    1.84    0.13
  -1  -2  -8    0.96    0.11
   1   2   8    0.76    0.13
  -2  -2  -8    3.81    0.19
   2   2   8    3.75    0.23
  -3  -2  -8    2.41    0.15
   3   2   8    2.46    0.19
  -4  -2  -8    8.95    0.39
  -5  -2  -8    1.60    0.17
  -6  -2  -8    2.75    0.22
  -7  -2  -8    0.81    0.15
  -8  -2  -8    0.69    0.15
   4  -3  -8    0.27    0.10
  -4   3   8    0.05    0.10
   3  -3  -8    1.99    0.21
  -3   3   8    2.15    0.24
   2  -3  -8    0.00    0.05
  -2   3   8   -0.10    0.07
   1  -3  -8    0.60    0.11
  -1   3   8    0.70    0.14
   0  -3  -8    0.14    0.07
   0   3   8    0.12    0.09
  -1  -3  -8   19.68    0.65
   1   3   8   20.16    0.72
  -2  -3  -8   11.72    0.43
   2   3   8   12.20    0.49
  -4  -3  -8    2.64    0.17
   4   3   8    2.74    0.21
  -6  -3  -8    5.09    0.30
  -7  -3  -8    1.92    0.21
  -8  -3  -8    0.46    0.13
   3  -4  -8    0.79    0.14
  -3   4   8    0.62    0.15
   2  -4  -8    0.11    0.08
  -2   4   8    0.19    0.10
   1  -4  -8    0.66    0.12
  -1   4   8    0.70    0.14
   0  -4  -8    9.67    0.41
   0   4   8    9.78    0.45
  -1  -4  -8    2.93    0.20
   1   4   8    2.84    0.23
  -2  -4  -8    0.76    0.11
   2   4   8    0.74    0.14
  -3  -4  -8    0.66    0.11
   3   4   8    0.36    0.11
  -4  -4  -8    2.05    0.15
   4   4   8    1.56    0.18
  -5  -4  -8    3.44    0.20
   5   4   8    2.57    0.21
   6   4   8    1.34    0.18
  -7  -4  -8    0.48    0.12
  -8  -4  -8    0.01    0.09
  -9  -4  -8    0.06    0.11
   2  -5  -8    0.54    0.12
  -2   5   8    0.74    0.16
   1  -5  -8    0.98    0.15
  -1   5   8    0.94    0.16
   0  -5  -8   -0.03    0.05
   0   5   8   -0.01    0.07
  -1  -5  -8    1.28    0.15
   1   5   8    1.03    0.17
  -2  -5  -8    2.74    0.20
   2   5   8    3.01    0.23
  -3  -5  -8    8.85    0.38
   3   5   8    8.98    0.43
  -4  -5  -8    0.63    0.11
   4   5   8    0.83    0.15
  -5  -5  -8    2.00    0.19
   5   5   8    2.54    0.21
  -6  -5  -8    0.15    0.08
   6   5   8    0.18    0.09
   7   5   8    1.05    0.16
   8   5   8    0.02    0.09
   1  -6  -8    0.07    0.08
  -1   6   8    0.20    0.11
   0  -6  -8   -0.04    0.06
   0   6   8    0.01    0.08
  -1  -6  -8    0.02    0.07
   1   6   8   -0.01    0.09
  -2  -6  -8    2.17    0.21
   2   6   8    2.54    0.25
  -3  -6  -8    2.36    0.22
   3   6   8    1.95    0.22
  -4  -6  -8    0.55    0.11
   4   6   8    0.65    0.14
  -5  -6  -8    1.26    0.16
   5   6   8    0.92    0.16
  -6  -6  -8    0.09    0.08
   6   6   8    0.23    0.10
  -7  -6  -8    0.92    0.15
   7   6   8    0.68    0.14
   0  -7  -8    0.49    0.13
   0   7   8    0.48    0.14
  -1  -7  -8    0.92    0.15
   1   7   8    1.38    0.20
  -2  -7  -8    0.13    0.08
   2   7   8    0.24    0.12
  -3  -7  -8    6.30    0.34
   3   7   8    5.88    0.35
  -4  -7  -8    0.42    0.11
   4   7   8    0.47    0.14
  -5  -7  -8    1.54    0.19
   5   7   8    1.41    0.20
  -6  -7  -8    0.11    0.08
   6   7   8    0.10    0.10
  -7  -7  -8    0.16    0.10
   1   8   8    0.07    0.11
  -2  -8  -8    0.62    0.14
   2   8   8    0.72    0.16
  -3  -8  -8    0.39    0.12
   3   8   8    0.46    0.15
  -4  -8  -8    0.79    0.15
   4   8   8    0.74    0.16
  -5  -8  -8    0.98    0.16
   5   8   8    1.01    0.18
  -6  -8  -8    0.74    0.15
  -7  -8  -8    0.11    0.10
   3   9   8    0.16    0.13
   4   9   8    0.00    0.11
  -2  -7   9    0.20    0.12
  -1  -7   9    0.42    0.13
   5   6  -9    0.09    0.09
  -4  -6   9    1.57    0.22
  -3  -6   9    0.00    0.08
  -2  -6   9    0.36    0.12
  -1  -6   9    0.28    0.12
   1  -6   9    0.75    0.15
   2  -6   9    0.06    0.09
   5   5  -9    0.13    0.09
   4   5  -9    0.10    0.08
  -4  -5   9    0.00    0.09
  -3  -5   9    1.66    0.21
  -2  -5   9    0.66    0.14
  -1  -5   9    0.03    0.08
   0  -5   9    2.66    0.25
   1  -5   9    2.99    0.23
   2  -5   9    0.02    0.08
  -3   5  -9    0.36    0.11
   3  -5   9    0.24    0.11
  -4   5  -9    0.09    0.10
   5   4  -9    0.44    0.12
  -5  -4   9    0.33    0.12
   4   4  -9    2.60    0.24
  -4  -4   9    2.44    0.24
   3   4  -9    0.01    0.06
  -3  -4   9    0.01    0.08
  -2  -4   9    1.90    0.21
  -1  -4   9    2.00    0.21
   0  -4   9    0.18    0.09
   1  -4   9    1.20    0.16
  -2   4  -9    0.46    0.11
   2  -4   9    0.37    0.10
  -3   4  -9    0.03    0.08
   3  -4   9    0.06    0.07
  -4   4  -9    0.05    0.09
   4  -4   9    0.13    0.09
  -5   4  -9    0.14    0.11
   5   3  -9    1.78    0.21
  -5  -3   9    1.96    0.23
   4   3  -9    2.30    0.22
  -4  -3   9    2.43    0.24
   3   3  -9    0.16    0.08
  -3  -3   9    0.04    0.08
   2   3  -9    0.94    0.12
  -2  -3   9    0.95    0.14
  -1  -3   9    7.46    0.36
   0  -3   9    3.38    0.23
  -1   3  -9    0.40    0.09
   1  -3   9    0.37    0.10
  -2   3  -9   19.59    0.69
   2  -3   9   19.03    0.68
  -3   3  -9    1.72    0.19
   3  -3   9    1.49    0.18
  -4   3  -9    0.01    0.08
   4  -3   9    0.10    0.08
  -5   3  -9    0.22    0.10
   5  -3   9    0.14    0.09
   5   2  -9    0.15    0.09
  -5  -2   9   -0.05    0.08
   4   2  -9    0.30    0.10
  -4  -2   9    0.47    0.12
   3   2  -9    4.43    0.26
  -3  -2   9    4.27    0.27
   2   2  -9    6.73    0.30
  -2  -2   9    6.36    0.32
   1   2  -9    0.63    0.09
  -1  -2   9    0.58    0.11
   0  -2   9    4.46    0.24
   0  -2   9    4.36    0.25
   1  -2   9    6.34    0.31
  -2   2  -9    1.28    0.15
   2  -2   9    0.82    0.13
  -3   2  -9    0.35    0.10
   3  -2   9    0.40    0.10
  -4   2  -9   -0.02    0.07
   4  -2   9    0.07    0.06
  -5   2  -9    0.12    0.10
   5  -2   9    0.19    0.08
  -6   2  -9    0.03    0.08
   6  -2   9    0.05    0.08
   5   1  -9    0.03    0.08
  -5  -1   9    0.01    0.08
   4   1  -9    0.74    0.13
  -4  -1   9    0.57    0.13
   3   1  -9   10.89    0.45
  -3  -1   9   10.66    0.46
   2   1  -9    4.47    0.25
  -2  -1   9    4.66    0.26
  -1  -1   9    0.67    0.11
  -1  -1   9    0.65    0.12
   0   1  -9    2.01    0.14
   0  -1   9    2.07    0.18
   1  -1   9   11.80    0.46
   1  -1   9   11.62    0.44
  -2   1  -9    2.98    0.20
   2  -1   9    2.46    0.17
  -3   1  -9   14.59    0.56
   3  -1   9   14.67    0.52
  -4   1  -9   13.88    0.56
   4  -1   9   13.58    0.51
  -5   1  -9   -0.03    0.08
   5  -1   9    0.08    0.06
  -6   1  -9   -0.01    0.08
   6  -1   9    0.01    0.07
   7  -1   9    0.29    0.11
   5   0  -9    0.04    0.09
  -5   0   9    0.07    0.10
   4   0  -9    2.10    0.22
  -4   0   9    2.36    0.23
   3   0  -9    1.52    0.17
  -3   0   9    1.56    0.18
   2   0  -9    0.04    0.06
  -2   0   9   -0.04    0.03
  -2   0   9    0.00    0.06
   1   0  -9    8.34    0.35
  -1   0   9    8.68    0.36
  -1   0   9    9.46    0.40
   0   0  -9    2.53    0.16
   0   0   9    2.62    0.17
   0   0   9    2.49    0.20
  -1   0  -9    0.85    0.09
   1   0   9    0.75    0.10
   1   0   9    0.72    0.12
   2   0   9    2.52    0.17
   2   0   9    2.36    0.19
  -3   0  -9   18.70    0.67
   3   0   9   18.81    0.62
  -4   0  -9    0.29    0.10
   4   0   9    0.50    0.09
  -5   0  -9    1.09    0.16
   5   0   9    1.22    0.14
  -6   0  -9    0.04    0.09
   6   0   9    0.03    0.06
  -7   0  -9    0.86    0.17
  -5   1   9    0.22    0.11
   4  -1  -9    0.85    0.15
  -4   1   9    0.70    0.14
   3  -1  -9    1.88    0.20
  -3   1   9    1.70    0.20
  -3   1   9    1.93    0.20
   2  -1  -9    0.50    0.10
  -2   1   9    0.78    0.12
  -2   1   9    0.59    0.13
   1  -1  -9   22.29    0.72
  -1   1   9   22.41    0.78
  -1   1   9   21.89    0.72
   0  -1  -9    2.29    0.16
   0   1   9    2.71    0.16
   0   1   9    2.33    0.20
  -1  -1  -9    4.84    0.22
   1   1   9    4.47    0.22
   1   1   9    4.88    0.28
  -2  -1  -9    3.20    0.16
   2   1   9    3.06    0.17
   2   1   9    2.68    0.20
   3   1   9   15.35    0.59
  -4  -1  -9    9.05    0.41
  -5  -1  -9   16.78    0.65
  -6  -1  -9    2.83    0.23
  -7  -1  -9    1.17    0.18
   4  -2  -9    0.09    0.08
  -4   2   9   -0.06    0.08
   3  -2  -9    2.30    0.23
  -3   2   9    2.47    0.25
   2  -2  -9    0.02    0.06
  -2   2   9    0.09    0.08
   1  -2  -9    0.47    0.10
  -1   2   9    0.43    0.12
   0  -2  -9    0.23    0.08
   0   2   9    0.19    0.10
  -1  -2  -9    3.66    0.20
   1   2   9    3.88    0.26
   2   2   9    0.25    0.09
  -3  -2  -9    0.64    0.09
   3   2   9    0.66    0.12
   4   2   9    2.34    0.19
  -5  -2  -9   12.99    0.54
  -6  -2  -9    2.02    0.22
  -7  -2  -9    1.57    0.21
  -8  -2  -9    0.44    0.14
  -4   3   9    0.18    0.12
   3  -3  -9    0.48    0.12
  -3   3   9    0.33    0.13
   2  -3  -9    0.45    0.11
  -2   3   9    0.27    0.12
   1  -3  -9    1.51    0.17
  -1   3   9    1.41    0.18
   0  -3  -9    4.80    0.26
   0   3   9    4.38    0.28
  -1  -3  -9   21.12    0.69
   1   3   9   20.35    0.76
  -2  -3  -9    0.94    0.12
   2   3   9    0.50    0.13
  -3  -3  -9    3.48    0.20
   3   3   9    3.42    0.23
   4   3   9    0.56    0.12
   5   3   9    6.41    0.35
  -6  -3  -9    7.70    0.38
  -7  -3  -9    7.45    0.40
  -8  -3  -9    0.08    0.11
  -3   4   9    0.25    0.12
   2  -4  -9    0.69    0.13
  -2   4   9    0.51    0.15
   1  -4  -9    1.34    0.17
  -1   4   9    1.32    0.19
   0  -4  -9   -0.03    0.05
   0   4   9   -0.07    0.08
  -1  -4  -9    1.49    0.16
   1   4   9    1.10    0.17
  -2  -4  -9    0.54    0.10
   2   4   9    0.38    0.11
  -3  -4  -9    0.07    0.06
   3   4   9   -0.04    0.07
   4   4   9    0.73    0.13
   5   4   9    0.53    0.12
   6   4   9    1.66    0.20
   7   4   9    3.56    0.28
  -8  -4  -9    1.82    0.22
   2  -5  -9    0.33    0.11
  -2   5   9    0.21    0.12
   1  -5  -9   -0.03    0.06
  -1   5   9    0.04    0.10
   0  -5  -9    0.44    0.11
   0   5   9    0.52    0.14
  -1  -5  -9    1.84    0.19
   1   5   9    1.78    0.22
  -2  -5  -9    9.70    0.41
   2   5   9    8.81    0.45
  -3  -5  -9    1.53    0.17
   3   5   9    1.21    0.18
  -4  -5  -9    0.57    0.11
   4   5   9    0.55    0.13
  -5  -5  -9    1.29    0.15
   5   5   9    1.46    0.18
   6   5   9    0.63    0.14
   7   5   9    0.56    0.14
   8   5   9    3.31    0.27
   0  -6  -9    0.23    0.10
   0   6   9    0.17    0.12
  -1  -6  -9    0.78    0.14
   1   6   9    0.95    0.17
  -2  -6  -9    2.05    0.21
   2   6   9    2.57    0.26
  -3  -6  -9    0.38    0.10
   3   6   9    0.31    0.12
  -4  -6  -9    0.22    0.09
   4   6   9    0.04    0.09
  -5  -6  -9    0.02    0.07
   5   6   9    0.05    0.09
  -6  -6  -9    1.22    0.17
   6   6   9    1.57    0.21
   7   6   9    0.03    0.09
   8   6   9    0.48    0.14
  -1  -7  -9   -0.03    0.07
   1   7   9    0.00    0.09
  -2  -7  -9    0.65    0.14
   2   7   9    0.92    0.18
  -3  -7  -9    0.00    0.07
   3   7   9    0.14    0.12
  -4  -7  -9    1.58    0.19
   4   7   9    2.01    0.24
  -5  -7  -9    0.16    0.09
   5   7   9    0.15    0.12
  -6  -7  -9    0.33    0.12
   6   7   9    0.52    0.14
  -7  -7  -9    0.03    0.08
   7   7   9   -0.04    0.10
  -3  -8  -9   -0.06    0.08
   3   8   9    0.16    0.12
  -4  -8  -9    0.66    0.15
   4   8   9    0.63    0.17
  -5  -8  -9    0.59    0.14
   5   8   9    0.92    0.18
  -6  -8  -9   -0.05    0.09
   6   8   9   -0.10    0.10
  -2  -6  10    0.64    0.16
  -1  -6  10    0.16    0.11
   0  -6  10    0.23    0.11
   1  -6  10    0.03    0.09
  -3  -5  10    0.18    0.11
  -2  -5  10    2.22    0.25
  -1  -5  10    0.87    0.16
   0  -5  10    0.18    0.11
   1  -5  10   -0.03    0.08
   2  -5  10    0.88    0.16
   3  -5  10    0.39    0.13
  -4   5 -10    0.66    0.16
   5   4 -10    0.12    0.10
   4   4 -10    0.32    0.11
  -4  -4  10    0.38    0.13
  -3  -4  10    0.48    0.13
  -2  -4  10    5.06    0.32
  -1  -4  10    0.02    0.08
   0  -4  10    1.04    0.16
   1  -4  10   -0.03    0.08
   2  -4  10    0.88    0.15
  -3   4 -10    0.48    0.12
   3  -4  10    0.32    0.11
  -4   4 -10    0.22    0.11
   4  -4  10    0.13    0.10
   5   3 -10   -0.01    0.08
   4   3 -10    1.04    0.16
  -4  -3  10    0.95    0.17
   3   3 -10    0.76    0.13
  -3  -3  10    0.77    0.15
  -2  -3  10    0.01    0.08
  -1  -3  10    0.00    0.08
   0  -3  10    4.58    0.28
   1  -3  10    1.32    0.17
  -2   3 -10   -0.05    0.06
   2  -3  10   -0.05    0.07
  -3   3 -10    1.08    0.16
   3  -3  10    1.33    0.17
  -4   3 -10    1.01    0.17
   4  -3  10    1.03    0.16
  -5   3 -10    0.37    0.12
   5  -3  10    0.53    0.12
   4   2 -10    1.78    0.20
  -4  -2  10    1.75    0.21
   3   2 -10    0.58    0.12
  -3  -2  10    0.41    0.12
   2   2 -10    0.16    0.07
  -2  -2  10    0.10    0.09
  -1  -2  10    3.94    0.25
   0  -2  10    6.69    0.33
   0  -2  10    6.83    0.32
   1  -2  10    0.14    0.07
   1  -2  10    0.07    0.07
  -2   2 -10    1.27    0.16
   2  -2  10    1.44    0.16
  -3   2 -10    0.90    0.14
   3  -2  10    0.75    0.13
  -4   2 -10    0.05    0.08
   4  -2  10    0.02    0.07
  -5   2 -10    1.41    0.19
   5  -2  10    1.23    0.17
   6  -2  10    0.20    0.10
   4   1 -10   -0.04    0.07
  -4  -1  10    0.06    0.08
   3   1 -10    0.27    0.09
  -3  -1  10    0.17    0.09
   2   1 -10    0.03    0.05
  -2  -1  10    0.05    0.07
   1   1 -10    0.38    0.08
  -1  -1  10    0.71    0.12
  -1  -1  10    0.62    0.12
   0  -1  10    2.04    0.18
   0  -1  10    0.89    0.13
   1  -1  10    0.05    0.06
   1  -1  10    0.13    0.07
   2  -1  10    4.79    0.28
   2  -1  10    4.71    0.25
  -3   1 -10    0.39    0.11
   3  -1  10    0.28    0.09
  -4   1 -10    0.70    0.15
   4  -1  10    0.60    0.11
  -5   1 -10    2.79    0.27
   5  -1  10    2.53    0.20
  -6   1 -10    0.47    0.13
   6  -1  10    0.45    0.11
   4   0 -10    0.03    0.08
  -4   0  10    0.31    0.11
   3   0 -10    4.18    0.27
  -3   0  10    3.79    0.25
   2   0 -10    0.17    0.07
  -2   0  10   -0.03    0.04
  -2   0  10    0.02    0.07
   1   0 -10    0.00    0.05
  -1   0  10    0.00    0.08
  -1   0  10    0.02    0.06
   0   0 -10    4.41    0.22
   0   0  10    4.09    0.26
   0   0  10    4.15    0.23
   1   0  10    8.46    0.35
   1   0  10    8.61    0.39
   2   0  10    0.50    0.10
   2   0  10    0.68    0.12
   3   0  10    1.45    0.14
  -4   0 -10    1.12    0.16
  -5   0 -10    0.61    0.14
  -6   0 -10    0.70    0.15
   4  -1 -10   -0.08    0.07
   3  -1 -10    1.53    0.19
  -3   1  10    1.65    0.19
  -3   1  10    2.15    0.23
   2  -1 -10    1.92    0.19
  -2   1  10    1.77    0.20
   1  -1 -10    0.00    0.06
  -1   1  10    0.00    0.08
   0  -1 -10    0.33    0.08
   0   1  10    0.20    0.09
  -1  -1 -10    0.85    0.11
   1   1  10    0.71    0.14
   2   1  10   10.34    0.45
   3   1  10    0.67    0.12
  -5  -1 -10    0.00    0.08
  -6  -1 -10    1.52    0.20
  -7  -1 -10    0.94    0.18
   3  -2 -10    2.31    0.23
  -3   2  10    2.44    0.25
   2  -2 -10    4.20    0.27
  -2   2  10    4.53    0.30
   1  -2 -10    1.55    0.17
  -1   2  10    1.40    0.19
   0  -2 -10    0.44    0.09
   0   2  10    0.29    0.11
  -1  -2 -10    0.72    0.11
   1   2  10    0.92    0.15
  -2  -2 -10   17.07    0.56
   2   2  10   17.11    0.66
   3   2  10    0.13    0.08
   4   2  10    0.00    0.07
  -6  -2 -10    0.27    0.12
  -7  -2 -10    0.04    0.09
  -3   3  10    0.66    0.17
   2  -3 -10    0.28    0.10
  -2   3  10    0.34    0.12
   1  -3 -10    0.17    0.08
  -1   3  10    0.02    0.09
   0  -3 -10    1.71    0.18
   0   3  10    2.11    0.23
  -1  -3 -10    0.07    0.06
   1   3  10    0.00    0.09
  -2  -3 -10    4.67    0.24
   2   3  10    4.78    0.30
  -3  -3 -10    0.94    0.12
   3   3  10    0.83    0.14
   4   3  10    2.82    0.23
   5   3  10    0.09    0.08
   6   3  10    1.04    0.17
  -7  -3 -10    1.09    0.18
   2  -4 -10    1.04    0.17
  -2   4  10    1.13    0.20
   1  -4 -10    0.04    0.07
  -1   4  10    0.07    0.10
   0  -4 -10    3.74    0.25
   0   4  10    3.24    0.27
  -1  -4 -10    0.82    0.13
   1   4  10    0.91    0.16
  -2  -4 -10    1.62    0.17
   2   4  10    1.49    0.20
  -3  -4 -10    9.32    0.38
   3   4  10    8.60    0.44
  -4  -4 -10    2.72    0.19
   4   4  10    2.60    0.25
   5   4  10    0.16    0.10
   6   4  10    0.53    0.13
   7   4  10    1.95    0.24
   1  -5 -10    0.17    0.10
  -1   5  10    0.11    0.12
   0  -5 -10    0.01    0.07
   0   5  10   -0.05    0.09
  -1  -5 -10   -0.04    0.06
   1   5  10    0.18    0.11
  -2  -5 -10    2.20    0.21
   2   5  10    2.68    0.27
  -3  -5 -10    2.37    0.21
   3   5  10    1.88    0.23
  -4  -5 -10    0.60    0.12
   4   5  10    0.43    0.13
   5   5  10    0.49    0.14
   6   5  10    1.93    0.23
   7   5  10    0.78    0.16
   0  -6 -10    0.08    0.09
  -1  -6 -10   -0.03    0.07
   1   6  10    0.16    0.12
  -2  -6 -10    1.54    0.19
   2   6  10    1.54    0.22
  -3  -6 -10    0.46    0.11
   3   6  10    0.42    0.13
  -4  -6 -10   -0.06    0.07
   4   6  10    0.01    0.10
  -5  -6 -10    2.90    0.22
   5   6  10    2.94    0.29
   6   6  10    0.58    0.15
   7   6  10    0.56    0.15
  -2  -7 -10   -0.10    0.07
   2   7  10    0.00    0.11
  -3  -7 -10    0.48    0.13
   3   7  10    0.43    0.15
  -4  -7 -10    0.00    0.08
   4   7  10    0.12    0.12
  -5  -7 -10    1.01    0.16
   5   7  10    0.63    0.16
  -6  -7 -10    0.12    0.10
   6   7  10    0.05    0.12
   7   7  10    0.61    0.17
  -2  -5  11   -0.05    0.09
  -1  -5  11    0.01    0.09
   0  -5  11    0.35    0.13
   1  -5  11    2.02    0.24
  -3  -4  11    1.33    0.20
  -2  -4  11    0.19    0.11
  -1  -4  11    0.98    0.17
   0  -4  11   -0.01    0.09
   1  -4  11    1.25    0.18
   2  -4  11    0.30    0.12
   3  -4  11    0.70    0.15
  -4   4 -11    0.16    0.12
   4   3 -11    0.06    0.09
  -3  -3  11    1.87    0.22
  -2  -3  11    0.50    0.13
  -1  -3  11    1.82    0.21
   0  -3  11    1.21    0.17
   1  -3  11    0.16    0.09
  -2   3 -11    1.62    0.19
   2  -3  11    1.76    0.20
  -3   3 -11    1.26    0.18
   3  -3  11    1.28    0.18
  -4   3 -11    0.09    0.10
   4  -3  11    0.06    0.09
   5  -3  11    0.03    0.09
   4   2 -11    0.18    0.10
  -4  -2  11    0.19    0.11
   3   2 -11    3.49    0.24
  -3  -2  11    3.80    0.27
  -2  -2  11    2.36    0.23
  -1  -2  11    1.34    0.17
   0  -2  11    1.50    0.18
   1  -2  11    3.74    0.25
   2  -2  11    2.15    0.21
   2  -2  11    2.30    0.22
  -3   2 -11    0.12    0.09
   3  -2  11    0.03    0.08
  -4   2 -11    0.59    0.14
   4  -2  11    0.31    0.10
  -5   2 -11    0.59    0.15
   5  -2  11    0.47    0.12
   6  -2  11    0.05    0.09
   4   1 -11    0.06    0.08
  -4  -1  11    0.07    0.10
   3   1 -11    1.40    0.18
  -3  -1  11    1.59    0.20
   2   1 -11    3.18    0.22
  -2  -1  11    3.58    0.25
  -1  -1  11    0.31    0.10
   0  -1  11    1.17    0.15
   0  -1  11    0.28    0.08
   1  -1  11    1.60    0.18
   1  -1  11    1.62    0.17
   2  -1  11   12.60    0.52
   2  -1  11   12.50    0.49
   3  -1  11    0.25    0.09
  -4   1 -11    0.70    0.14
   4  -1  11    0.80    0.13
  -5   1 -11    0.32    0.13
  -4   0  11    0.48    0.13
   3   0 -11    0.16    0.09
  -3   0  11    0.15    0.09
   2   0 -11    3.38    0.23
  -2   0  11    3.04    0.22
   1   0 -11    1.68    0.17
  -1   0  11    1.77    0.21
  -1   0  11    1.56    0.17
   0   0  11    4.36    0.28
   1   0  11    1.06    0.16
   2   0  11   10.45    0.46
   3   0  11    0.35    0.11
  -4   0 -11    2.67    0.25
  -5   0 -11    0.12    0.10
  -6   0 -11    0.81    0.17
   3  -1 -11    0.10    0.09
   2  -1 -11    0.46    0.11
  -2   1  11    0.28    0.12
   1  -1 -11    0.04    0.06
  -1   1  11    0.06    0.09
   0  -1 -11    3.26    0.21
   0   1  11    3.50    0.26
   1   1  11    0.22    0.10
   2   1  11    2.61    0.22
   3   1  11    1.50    0.18
   4   1  11    6.98    0.38
  -5  -1 -11   -0.11    0.08
  -6  -1 -11    0.94    0.18
  -3   2  11    2.33    0.27
   2  -2 -11    0.62    0.13
  -2   2  11    0.55    0.14
   1  -2 -11    1.01    0.15
  -1   2  11    0.84    0.16
   0  -2 -11    2.13    0.20
   0   2  11    2.31    0.24
  -1  -2 -11    0.62    0.11
   1   2  11    0.62    0.14
   2   2  11    8.03    0.41
   3   2  11    2.20    0.22
   4   2  11    2.72    0.26
   5   2  11    0.09    0.09
   2  -3 -11    0.03    0.08
  -2   3  11   -0.04    0.10
   1  -3 -11    1.75    0.20
  -1   3  11    1.92    0.24
   0  -3 -11    0.07    0.07
   0   3  11    0.06    0.10
  -1  -3 -11    0.18    0.07
   1   3  11    0.15    0.10
  -2  -3 -11    3.62    0.22
   2   3  11    3.40    0.27
   3   3  11    0.42    0.12
   4   3  11    0.42    0.12
   5   3  11    0.73    0.14
   6   3  11    4.44    0.32
   7   3  11    0.13    0.10
   1  -4 -11    4.86    0.31
  -1   4  11    5.00    0.34
   0  -4 -11    0.09    0.08
   0   4  11    0.18    0.12
  -1  -4 -11    1.91    0.20
   1   4  11    2.04    0.24
  -2  -4 -11    1.05    0.15
   2   4  11    0.79    0.17
  -3  -4 -11    0.25    0.09
   3   4  11    0.15    0.11
   4   4  11    0.20    0.11
   5   4  11    1.56    0.21
   6   4  11    0.36    0.13
   0  -5 -11    0.07    0.08
   0   5  11    0.04    0.11
  -1  -5 -11    1.48    0.19
   1   5  11    1.42    0.22
  -2  -5 -11    0.72    0.13
   2   5  11    0.45    0.15
  -3  -5 -11    0.91    0.14
   3   5  11    0.83    0.17
  -4  -5 -11    0.13    0.08
   4   5  11    0.20    0.11
   5   5  11    0.04    0.10
   6   5  11    0.60    0.15
  -1  -6 -11    3.55    0.27
  -2  -6 -11    0.23    0.10
   2   6  11    0.06    0.11
  -3  -6 -11    1.75    0.20
   3   6  11    1.43    0.22
  -4  -6 -11    0.01    0.07
   4   6  11    0.04    0.10
   5   6  11    0.04    0.11
   6   6  11    0.06    0.10
  -4  -7 -11    0.62    0.14
  -5  -7 -11    0.26    0.11
  -2  -4  12    1.83    0.23
   0  -4  12    1.87    0.23
   1  -4  12    0.34    0.13
   2  -4  12   -0.01    0.10
  -2  -3  12    1.45    0.20
  -1  -3  12    0.05    0.10
   0  -3  12    1.38    0.19
   1  -3  12    0.31    0.12
   2  -3  12    0.41    0.12
  -3   3 -12    1.75    0.22
   3  -3  12    1.80    0.21
  -4   3 -12    0.17    0.11
   4  -3  12    0.33    0.12
  -3  -2  12    0.65    0.15
  -2  -2  12    0.77    0.15
  -1  -2  12    0.22    0.10
   0  -2  12    1.81    0.21
   1  -2  12   -0.08    0.07
   2  -2  12    6.22    0.34
   2  -2  12    6.16    0.34
   3  -2  12    0.03    0.08
  -4   2 -12   -0.06    0.09
   4  -2  12    0.03    0.08
   3   1 -12    0.40    0.12
  -3  -1  12    0.43    0.13
  -2  -1  12    0.02    0.08
  -1  -1  12    1.13    0.16
   1  -1  12    0.19    0.10
   2  -1  12    2.62    0.22
   3  -1  12    0.66    0.14
  -4   1 -12    0.12    0.10
  -5   1 -12    1.39    0.20
   3   0 -12    3.40    0.26
   2   0 -12    0.20    0.09
   0   0  12    0.12    0.10
   1   0  12    1.11    0.17
   2   0  12    2.08    0.22
   3   0  12    4.35    0.29
   4   0  12    0.70    0.15
  -5   0 -12    0.09    0.10
   2  -1 -12   -0.02    0.08
   1  -1 -12    1.44    0.17
  -1   1  12    1.84    0.23
   0   1  12    0.40    0.12
   1   1  12    2.38    0.25
   2   1  12    0.14    0.10
   3   1  12    3.75    0.27
   4   1  12    0.04    0.09
   5   1  12    1.00    0.18
   2  -2 -12    2.07    0.23
  -2   2  12    1.87    0.24
   1  -2 -12    2.28    0.23
  -1   2  12    2.74    0.28
   0  -2 -12    0.22    0.09
   0   2  12    0.20    0.12
   1   2  12    5.05    0.34
   2   2  12    0.15    0.11
   3   2  12    3.22    0.26
   4   2  12    0.01    0.08
   5   2  12    2.81    0.28
   1  -3 -12    0.31    0.11
  -1   3  12    0.13    0.13
   0  -3 -12    0.34    0.10
   0   3  12    0.06    0.11
  -1  -3 -12    1.43    0.17
   1   3  12    1.28    0.20
   2   3  12    1.51    0.22
   3   3  12    2.80    0.28
   4   3  12    0.75    0.15
   5   3  12    1.28    0.20
   0  -4 -12    1.75    0.21
   0   4  12    1.73    0.24
  -1  -4 -12    0.65    0.13
   1   4  12    0.76    0.17
  -2  -4 -12    1.04    0.15
   2   4  12    1.24    0.20
   3   4  12    2.07    0.25
   4   4  12    1.18    0.20
   5   4  12    0.95    0.18
  -1  -5 -12    0.00    0.08
  -2  -5 -12    0.91    0.15
   2   5  12    0.60    0.16
  -3  -5 -12    0.02    0.08
   3   5  12    0.24    0.12
   4   5  12    1.56    0.23
   5   5  12    1.19    0.20
  -3  -6 -12   -0.06    0.07
  -4  -6 -12    0.17    0.10
  -1  -3  13    3.14    0.29
   0  -3  13    0.00    0.09
   1  -3  13    0.03    0.10
   2  -3  13    0.05    0.10
   3  -3  13    0.15    0.11
  -2  -2  13   -0.04    0.09
  -1  -2  13    3.40    0.27
   0  -2  13    0.33    0.12
   3  -2  13    1.52    0.21
   2  -1  13    0.47    0.13
   3  -1  13    0.81    0.16
   4  -1  13    0.43    0.14
   1   0  13    3.03    0.29
   2   0  13    2.12    0.23
   3   0  13    3.48    0.27
   4   0  13    1.33    0.20
   0   1  13    1.13    0.19
   1   1  13   -0.11    0.08
   2   1  13    1.53    0.21
   3   1  13    0.86    0.17
   4   1  13    1.04    0.18
   1  -2 -13    0.31    0.12
  -1   2  13    0.37    0.14
   0   2  13    4.81    0.35
   1   2  13    0.16    0.13
   2   2  13    2.05    0.25
   3   2  13    0.11    0.10
   4   2  13    1.96    0.24
   0  -3 -13    0.11    0.09
   1   3  13    0.18    0.13
   2   3  13    1.20    0.20
   3   3  13    1.20    0.21
   4   3  13    0.33    0.14
  -1  -4 -13    1.11    0.17
  -2  -5 -13   -0.13    0.08
   3  -1  14    0.38    0.13
   2   0  14    1.34    0.21
   3   0  14    2.58    0.27
   1   1  14    1.77    0.24
   2   1  14    1.37    0.22
   0   0   0    0.00    0.00
;
_shelx_hkl_checksum              32033
loop_
_space_group_symop_operation_xyz
'x, y, z'
'-x, -y, -z'
loop_
_atom_site_label
_atom_site_type_symbol
_atom_site_fract_x
_atom_site_fract_y
_atom_site_fract_z
_atom_site_U_iso_or_equiv
_atom_site_adp_type
_atom_site_occupancy
_atom_site_site_symmetry_order
_atom_site_calc_flag
_atom_site_refinement_flags_posn
_atom_site_refinement_flags_adp
C1 C 0.0964(3) 0.1559(3) 0.58933(18) 0.0419(5) Uani 1 1 d . U
C2 C 0.0067(3) 0.2772(3) 0.5124(2) 0.0510(5) Uani 1 1 d . U
H2 H -0.0908 0.3816 0.5423 0.061 Uiso 1 1 calc R U
C3 C 0.0620(3) 0.2437(3) 0.3888(2) 0.0526(5) Uani 1 1 d . U
H3 H 0.0008 0.3276 0.3378 0.063 Uiso 1 1 calc R U
C4 C 0.2019(3) 0.0929(3) 0.34132(18) 0.0466(5) Uani 1 1 d . U
C5 C 0.2999(3) -0.0380(3) 0.41714(18) 0.0423(5) Uani 1 1 d . U
C6 C 0.2471(3) -0.0035(3) 0.54205(18) 0.0412(5) Uani 1 1 d . U
C7 C 0.4483(3) -0.1980(3) 0.3774(2) 0.0527(6) Uani 1 1 d . U
H7 H 0.4873 -0.2271 0.2963 0.063 Uiso 1 1 calc R U
C8 C 0.5346(3) -0.3101(3) 0.4587(2) 0.0573(6) Uani 1 1 d . U
H8 H 0.6331 -0.4163 0.4335 0.069 Uiso 1 1 calc R U
C9 C 0.4741(3) -0.2643(3) 0.5797(2) 0.0559(6) Uani 1 1 d . U
H9 H 0.5363 -0.3419 0.6336 0.067 Uiso 1 1 calc R U
C10 C 0.4751(4) 0.0499(3) 0.14041(19) 0.0607(6) Uani 1 1 d . U
C11 C -0.0863(4) 0.3103(3) 0.7827(2) 0.0586(6) Uani 1 1 d . U
C12 C -0.0941(5) 0.2897(3) 0.9155(2) 0.0749(8) Uani 1 1 d . U
H12A H -0.1319 0.1948 0.9422 0.090 Uiso 1 1 calc R U
H12B H 0.0350 0.2604 0.9299 0.090 Uiso 1 1 calc R U
C13 C -0.2297(5) 0.4439(5) 0.9872(3) 0.1011(11) Uani 1 1 d . U
H13A H -0.3571 0.4763 0.9693 0.121 Uiso 1 1 calc R U
H13B H -0.1879 0.5371 0.9627 0.121 Uiso 1 1 calc R U
C14 C -0.2478(5) 0.4244(5) 1.1206(3) 0.0964(10) Uani 1 1 d . U
H14A H -0.2640 0.3195 1.1440 0.145 Uiso 1 1 calc R U
H14B H -0.3584 0.5198 1.1609 0.145 Uiso 1 1 calc R U
H14C H -0.1325 0.4215 1.1420 0.145 Uiso 1 1 calc R U
N1 N 0.6302(4) 0.0390(4) 0.1064(2) 0.0880(8) Uani 1 1 d . U
N2 N 0.3341(3) -0.1178(2) 0.62230(16) 0.0480(5) Uani 1 1 d . U
N3 N 0.0548(3) 0.1758(2) 0.71380(15) 0.0503(5) Uani 1 1 d . U
H3A H 0.1412 0.0830 0.7475 0.060 Uiso 1 1 d R U
O1 O -0.1975(3) 0.4356(2) 0.74022(17) 0.0914(7) Uani 1 1 d . U
S1 S 0.24688(9) 0.05669(9) 0.18352(5) 0.0642(3) Uani 1 1 d . U
loop_
_atom_site_aniso_label
_atom_site_aniso_U_11
_atom_site_aniso_U_22
_atom_site_aniso_U_33
_atom_site_aniso_U_23
_atom_site_aniso_U_13
_atom_site_aniso_U_12
C1 0.0449(10) 0.0482(11) 0.0350(10) 0.0028(8) -0.0081(8) -0.0213(8)
C2 0.0514(11) 0.0513(12) 0.0442(12) 0.0030(9) -0.0087(9) -0.0149(9)
C3 0.0537(12) 0.0601(13) 0.0418(11) 0.0111(9) -0.0127(9) -0.0205(10)
C4 0.0498(11) 0.0606(12) 0.0342(10) 0.0030(9) -0.0092(8) -0.0270(10)
C5 0.0449(10) 0.0496(11) 0.0387(10) 0.0009(8) -0.0074(8) -0.0258(9)
C6 0.0464(10) 0.0465(11) 0.0366(10) 0.0050(8) -0.0089(8) -0.0249(9)
C7 0.0585(12) 0.0539(13) 0.0453(12) -0.0052(10) -0.0042(9) -0.0241(10)
C8 0.0589(13) 0.0442(12) 0.0626(15) -0.0020(10) -0.0066(11) -0.0166(10)
C9 0.0603(13) 0.0464(12) 0.0610(14) 0.0108(10) -0.0175(11) -0.0203(10)
C10 0.0676(15) 0.0824(17) 0.0321(11) -0.0029(11) -0.0084(10) -0.0300(13)
C11 0.0708(14) 0.0531(13) 0.0451(13) -0.0040(10) -0.0051(10) -0.0202(11)
C12 0.0998(19) 0.0710(16) 0.0420(13) -0.0066(12) -0.0040(13) -0.0257(14)
C13 0.092(2) 0.119(2) 0.0589(18) -0.0251(17) -0.0072(15) -0.0068(18)
C14 0.097(2) 0.116(3) 0.0544(17) -0.0237(17) 0.0010(15) -0.0233(19)
N1 0.0748(15) 0.141(2) 0.0490(14) -0.0099(14) -0.0027(11) -0.0466(15)
N2 0.0543(10) 0.0482(10) 0.0438(10) 0.0078(8) -0.0141(8) -0.0217(8)
N3 0.0572(10) 0.0530(10) 0.0350(9) 0.0006(8) -0.0071(8) -0.0173(8)
O1 0.1059(15) 0.0731(13) 0.0518(11) -0.0045(9) -0.0100(10) 0.0070(11)
S1 0.0648(4) 0.0976(6) 0.0346(4) -0.0007(3) -0.0123(3) -0.0352(4)
loop_
_atom_type_symbol
_atom_type_description
_atom_type_scat_dispersion_real
_atom_type_scat_dispersion_imag
_atom_type_scat_source
C C 0.0033 0.0016 'International Tables Vol C Tables 4.2.6.8 and 6.1.1.4'
H H 0.0000 0.0000 'International Tables Vol C Tables 4.2.6.8 and 6.1.1.4'
N N 0.0061 0.0033 'International Tables Vol C Tables 4.2.6.8 and 6.1.1.4'
O O 0.0106 0.0060 'International Tables Vol C Tables 4.2.6.8 and 6.1.1.4'
S S 0.1246 0.1234 'International Tables Vol C Tables 4.2.6.8 and 6.1.1.4'
loop_
_geom_angle_atom_site_label_1
_geom_angle_atom_site_label_2
_geom_angle_atom_site_label_3
_geom_angle
C2 C1 N3 125.00(19)
C2 C1 C6 119.43(18)
N3 C1 C6 115.56(17)
C1 C2 C3 120.0(2)
C1 C2 H2 120.0
C3 C2 H2 120.0
C4 C3 C2 122.0(2)
C4 C3 H3 119.0
C2 C3 H3 119.0
C3 C4 C5 120.39(19)
C3 C4 S1 118.25(17)
C5 C4 S1 121.19(16)
C4 C5 C7 125.12(19)
C4 C5 C6 117.81(18)
C7 C5 C6 117.05(19)
N2 C6 C5 122.70(18)
N2 C6 C1 116.98(18)
C5 C6 C1 120.33(18)
C8 C7 C5 119.5(2)
C8 C7 H7 120.3
C5 C7 H7 120.3
C7 C8 C9 119.4(2)
C7 C8 H8 120.3
C9 C8 H8 120.3
N2 C9 C8 123.9(2)
N2 C9 H9 118.1
C8 C9 H9 118.1
N1 C10 S1 176.1(2)
O1 C11 N3 122.6(2)
O1 C11 C12 122.9(2)
N3 C11 C12 114.5(2)
C13 C12 C11 113.8(3)
C13 C12 H12A 108.8
C11 C12 H12A 108.8
C13 C12 H12B 108.8
C11 C12 H12B 108.8
H12A C12 H12B 107.7
C12 C13 C14 115.0(3)
C12 C13 H13A 108.5
C14 C13 H13A 108.5
C12 C13 H13B 108.5
C14 C13 H13B 108.5
H13A C13 H13B 107.5
C13 C14 H14A 109.5
C13 C14 H14B 109.5
H14A C14 H14B 109.5
C13 C14 H14C 109.5
H14A C14 H14C 109.5
H14B C14 H14C 109.5
C9 N2 C6 117.49(19)
C11 N3 C1 128.0(2)
C11 N3 H3A 121.4
C1 N3 H3A 110.6
C10 S1 C4 100.99(10)
loop_
_geom_bond_atom_site_label_1
_geom_bond_atom_site_label_2
_geom_bond_distance
C1 C2 1.372(3)
C1 N3 1.397(3)
C1 C6 1.429(3)
C2 C3 1.400(3)
C2 H2 0.9300
C3 C4 1.354(3)
C3 H3 0.9300
C4 C5 1.428(3)
C4 S1 1.788(2)
C5 C7 1.406(3)
C5 C6 1.416(3)
C6 N2 1.363(3)
C7 C8 1.361(3)
C7 H7 0.9300
C8 C9 1.392(4)
C8 H8 0.9300
C9 N2 1.315(3)
C9 H9 0.9300
C10 N1 1.137(3)
C10 S1 1.692(3)
C11 O1 1.218(3)
C11 N3 1.365(3)
C11 C12 1.509(4)
C12 C13 1.470(4)
C12 H12A 0.9700
C12 H12B 0.9700
C13 C14 1.506(4)
C13 H13A 0.9700
C13 H13B 0.9700
C14 H14A 0.9600
C14 H14B 0.9600
C14 H14C 0.9600
N3 H3A 0.9288
loop_
_geom_torsion_atom_site_label_1
_geom_torsion_atom_site_label_2
_geom_torsion_atom_site_label_3
_geom_torsion_atom_site_label_4
_geom_torsion
N3 C1 C2 C3 179.26(19)
C6 C1 C2 C3 0.5(3)
C1 C2 C3 C4 0.6(4)
C2 C3 C4 C5 -0.6(3)
C2 C3 C4 S1 174.83(17)
C3 C4 C5 C7 -179.3(2)
S1 C4 C5 C7 5.5(3)
C3 C4 C5 C6 -0.6(3)
S1 C4 C5 C6 -175.88(14)
C4 C5 C6 N2 -178.59(18)
C7 C5 C6 N2 0.2(3)
C4 C5 C6 C1 1.7(3)
C7 C5 C6 C1 -179.50(18)
C2 C1 C6 N2 178.60(19)
N3 C1 C6 N2 -0.3(3)
C2 C1 C6 C5 -1.7(3)
N3 C1 C6 C5 179.44(16)
C4 C5 C7 C8 178.0(2)
C6 C5 C7 C8 -0.7(3)
C5 C7 C8 C9 0.1(3)
C7 C8 C9 N2 1.0(4)
O1 C11 C12 C13 -7.8(5)
N3 C11 C12 C13 172.8(3)
C11 C12 C13 C14 177.2(3)
C8 C9 N2 C6 -1.5(3)
C5 C6 N2 C9 0.9(3)
C1 C6 N2 C9 -179.45(19)
O1 C11 N3 C1 -0.4(4)
C12 C11 N3 C1 179.0(2)
C2 C1 N3 C11 4.3(4)
C6 C1 N3 C11 -176.9(2)
C3 C4 S1 C10 114.4(2)
C5 C4 S1 C10 -70.23(19)
