#------------------------------------------------------------------------------
#$Date: 2019-11-23 14:51:57 +0200 (Sat, 23 Nov 2019) $
#$Revision: 233709 $
#$URL: file:///home/coder/svn-repositories/cod/cif/1/55/32/1553216.cif $
#------------------------------------------------------------------------------
#
# This file is available in the Crystallography Open Database (COD),
# http://www.crystallography.net/
#
# All data on this site have been placed in the public domain by the
# contributors.
#
data_1553216
loop_
_publ_author_name
'Yang, Li'
'Song, Liqiang'
'Huang, Chong'
'Huang, Mingzheng'
'Liu, Bo'
_publ_section_title
;
 Exploiting ortho-substitution effect on formation of oxygen-containing
 [10]paracyclophane through ring-closing metathesis
;
_journal_issue                   3
_journal_name_full               'Organic Chemistry Frontiers'
_journal_page_first              319
_journal_paper_doi               10.1039/C5QO00373C
_journal_volume                  3
_journal_year                    2016
_chemical_absolute_configuration rmad
_chemical_formula_moiety         'C16 H17 Br2 N O4'
_chemical_formula_sum            'C16 H17 Br2 N O4'
_chemical_formula_weight         447.12
_space_group_crystal_system      monoclinic
_space_group_IT_number           4
_space_group_name_Hall           'P 2yb'
_space_group_name_H-M_alt        'P 1 21 1'
_atom_sites_solution_hydrogens   geom
_audit_creation_date             2015-11-11
_audit_creation_method
;
Olex2 1.2
(compiled 2015.09.30 svn.r3233 for OlexSys, GUI svn.r5103)
;
_audit_update_record
;
2015-11-13 deposited with the CCDC.
2015-12-22 downloaded from the CCDC.
;
_cell_angle_alpha                90
_cell_angle_beta                 108.133(9)
_cell_angle_gamma                90
_cell_formula_units_Z            2
_cell_length_a                   8.3327(7)
_cell_length_b                   9.5492(9)
_cell_length_c                   11.4501(10)
_cell_measurement_reflns_used    3461
_cell_measurement_temperature    292.36(10)
_cell_measurement_theta_max      72.1150
_cell_measurement_theta_min      4.5920
_cell_volume                     865.84(14)
_computing_cell_refinement
;
CrysAlisPro, Agilent Technologies,
Version 1.171.37.35 (release 13-08-2014 CrysAlis171 .NET)
(compiled Aug 13 2014,18:06:01)
;
_computing_data_collection
;
CrysAlisPro, Agilent Technologies,
Version 1.171.37.35 (release 13-08-2014 CrysAlis171 .NET)
(compiled Aug 13 2014,18:06:01)
;
_computing_data_reduction
;
CrysAlisPro, Agilent Technologies,
Version 1.171.37.35 (release 13-08-2014 CrysAlis171 .NET)
(compiled Aug 13 2014,18:06:01)
;
_computing_molecular_graphics    'Olex2 (Dolomanov et al., 2009)'
_computing_publication_material  'Olex2 (Dolomanov et al., 2009)'
_computing_structure_refinement  'ShelXL (Sheldrick, 2015)'
_computing_structure_solution    'ShelXT (Sheldrick, 2015)'
_diffrn_ambient_environment      air
_diffrn_ambient_temperature      292.36(10)
_diffrn_detector                 'CCD plate'
_diffrn_detector_area_resol_mean 15.9595
_diffrn_detector_type            EosS2
_diffrn_measured_fraction_theta_full 0.999
_diffrn_measured_fraction_theta_max 0.999
_diffrn_measurement_details
;
#__ type_ start__ end____ width___ exp.time_
  1 omega   20.00  104.00   1.0000    4.4700
omega____ theta____ kappa____ phi______ frames
    -       36.2921   57.0000   30.0000 84

#__ type_ start__ end____ width___ exp.time_
  2 omega  -31.00   53.00   1.0000    4.4700
omega____ theta____ kappa____ phi______ frames
    -       36.2921  -57.0000  -60.0000 84

#__ type_ start__ end____ width___ exp.time_
  3 omega    1.00   75.00   1.0000    4.4700
omega____ theta____ kappa____ phi______ frames
    -       36.2921  -99.0000   30.0000 74

#__ type_ start__ end____ width___ exp.time_
  4 omega   20.00  104.00   1.0000    4.4700
omega____ theta____ kappa____ phi______ frames
    -       36.2921   57.0000   90.0000 84

#__ type_ start__ end____ width___ exp.time_
  5 omega  -33.00   55.00   1.0000    4.4700
omega____ theta____ kappa____ phi______ frames
    -       36.2921  -38.0000   30.0000 88

#__ type_ start__ end____ width___ exp.time_
  6 omega   17.00  105.00   1.0000    4.4700
omega____ theta____ kappa____ phi______ frames
    -       36.2921   38.0000  -30.0000 88

#__ type_ start__ end____ width___ exp.time_
  7 omega  -31.00   53.00   1.0000    4.4700
omega____ theta____ kappa____ phi______ frames
    -       36.2921  -57.0000  150.0000 84

#__ type_ start__ end____ width___ exp.time_
  8 omega   10.00  104.00   1.0000    4.4700
omega____ theta____ kappa____ phi______ frames
    -       36.2921   77.0000  -30.0000 94

#__ type_ start__ end____ width___ exp.time_
  9 omega   40.00   98.00   1.0000   17.8900
omega____ theta____ kappa____ phi______ frames
    -      108.0000  -45.0000   30.0000 58

#__ type_ start__ end____ width___ exp.time_
 10 omega   81.00  176.00   1.0000   17.8900
omega____ theta____ kappa____ phi______ frames
    -      108.0000   77.0000  -60.0000 95

#__ type_ start__ end____ width___ exp.time_
 11 omega   90.00  175.00   1.0000   17.8900
omega____ theta____ kappa____ phi______ frames
    -      108.0000   61.0000  -90.0000 85

#__ type_ start__ end____ width___ exp.time_
 12 omega   91.00  176.00   1.0000   17.8900
omega____ theta____ kappa____ phi______ frames
    -      108.0000   45.0000   30.0000 85

#__ type_ start__ end____ width___ exp.time_
 13 omega   38.00   91.00   1.0000   17.8900
omega____ theta____ kappa____ phi______ frames
    -      108.0000  -30.0000  -60.0000 53

#__ type_ start__ end____ width___ exp.time_
 14 omega   70.00  178.00   1.0000   17.8900
omega____ theta____ kappa____ phi______ frames
    -      108.0000   15.0000  -30.0000 108

#__ type_ start__ end____ width___ exp.time_
 15 omega   39.00  109.00   1.0000   17.8900
omega____ theta____ kappa____ phi______ frames
    -      108.0000  -94.0000  -30.0000 70

#__ type_ start__ end____ width___ exp.time_
 16 omega   87.00  178.00   1.0000   17.8900
omega____ theta____ kappa____ phi______ frames
    -      108.0000   30.0000  -30.0000 91

#__ type_ start__ end____ width___ exp.time_
 17 omega   81.00  158.00   1.0000   17.8900
omega____ theta____ kappa____ phi______ frames
    -      108.0000   77.0000   30.0000 77

#__ type_ start__ end____ width___ exp.time_
 18 omega   90.00  116.00   1.0000   17.8900
omega____ theta____ kappa____ phi______ frames
    -      108.0000   61.0000  -30.0000 26

#__ type_ start__ end____ width___ exp.time_
 19 omega   82.00  109.00   1.0000   17.8900
omega____ theta____ kappa____ phi______ frames
    -      108.0000   77.0000    0.0000 27

#__ type_ start__ end____ width___ exp.time_
 20 omega  129.00  175.00   1.0000   17.8900
omega____ theta____ kappa____ phi______ frames
    -      108.0000   77.0000    0.0000 46

#__ type_ start__ end____ width___ exp.time_
 21 omega   88.00  121.00   1.0000   17.8900
omega____ theta____ kappa____ phi______ frames
    -      108.0000   30.0000   30.0000 33

#__ type_ start__ end____ width___ exp.time_
 22 omega   88.00  113.00   1.0000   17.8900
omega____ theta____ kappa____ phi______ frames
    -      108.0000   30.0000   60.0000 25

#__ type_ start__ end____ width___ exp.time_
 23 omega   91.00  116.00   1.0000   17.8900
omega____ theta____ kappa____ phi______ frames
    -      108.0000   61.0000   30.0000 25

#__ type_ start__ end____ width___ exp.time_
 24 omega  147.00  173.00   1.0000   17.8900
omega____ theta____ kappa____ phi______ frames
    -      108.0000   61.0000   30.0000 26

#__ type_ start__ end____ width___ exp.time_
 25 omega  128.00  175.00   1.0000   17.8900
omega____ theta____ kappa____ phi______ frames
    -      108.0000   77.0000  -30.0000 47

#__ type_ start__ end____ width___ exp.time_
 26 omega   92.00  161.00   1.0000   17.8900
omega____ theta____ kappa____ phi______ frames
    -      108.0000   45.0000   60.0000 69

#__ type_ start__ end____ width___ exp.time_
 27 omega   91.00  116.00   1.0000   17.8900
omega____ theta____ kappa____ phi______ frames
    -      108.0000   61.0000  -60.0000 25

#__ type_ start__ end____ width___ exp.time_
 28 omega   92.00  118.00   1.0000   17.8900
omega____ theta____ kappa____ phi______ frames
    -      108.0000   45.0000  -90.0000 26

#__ type_ start__ end____ width___ exp.time_
 29 omega   82.00  109.00   1.0000   17.8900
omega____ theta____ kappa____ phi______ frames
    -      108.0000   77.0000  -30.0000 27

#__ type_ start__ end____ width___ exp.time_
 30 omega   39.00  103.00   1.0000   17.8900
omega____ theta____ kappa____ phi______ frames
    -      108.0000  -94.0000   60.0000 64

#__ type_ start__ end____ width___ exp.time_
 31 omega   91.00  117.00   1.0000   17.8900
omega____ theta____ kappa____ phi______ frames
    -      108.0000   30.0000    0.0000 26

#__ type_ start__ end____ width___ exp.time_
 32 omega   91.00  123.00   1.0000   17.8900
omega____ theta____ kappa____ phi______ frames
    -      108.0000   61.0000    0.0000 32

#__ type_ start__ end____ width___ exp.time_
 33 omega   92.00  117.00   1.0000   17.8900
omega____ theta____ kappa____ phi______ frames
    -      108.0000   45.0000    0.0000 25

#__ type_ start__ end____ width___ exp.time_
 34 omega   81.00  107.00   1.0000   17.8900
omega____ theta____ kappa____ phi______ frames
    -      108.0000   77.0000  -90.0000 26

#__ type_ start__ end____ width___ exp.time_
 35 omega   43.00   69.00   1.0000   17.8900
omega____ theta____ kappa____ phi______ frames
    -      108.0000  -94.0000   30.0000 26

#__ type_ start__ end____ width___ exp.time_
 36 omega   71.00  105.00   1.0000   17.8900
omega____ theta____ kappa____ phi______ frames
    -      108.0000   15.0000    0.0000 34

#__ type_ start__ end____ width___ exp.time_
 37 omega   89.00  114.00   1.0000   17.8900
omega____ theta____ kappa____ phi______ frames
    -      108.0000   30.0000  -60.0000 25

#__ type_ start__ end____ width___ exp.time_
 38 omega   71.00   97.00   1.0000   17.8900
omega____ theta____ kappa____ phi______ frames
    -      108.0000   15.0000   90.0000 26

#__ type_ start__ end____ width___ exp.time_
 39 omega  116.00  178.00   1.0000   17.8900
omega____ theta____ kappa____ phi______ frames
    -      108.0000  111.0000  -90.0000 62
;
_diffrn_measurement_device       'four-circle diffractometer'
_diffrn_measurement_device_type  'New Gemini, Dual, Cu at zero, EosS2'
_diffrn_measurement_method       '\w scans'
_diffrn_orient_matrix_UB_11      0.0059966000
_diffrn_orient_matrix_UB_12      0.0500985000
_diffrn_orient_matrix_UB_13      -0.1265145000
_diffrn_orient_matrix_UB_21      -0.1936187000
_diffrn_orient_matrix_UB_22      -0.0125533000
_diffrn_orient_matrix_UB_23      -0.0516754000
_diffrn_orient_matrix_UB_31      -0.0175945000
_diffrn_orient_matrix_UB_32      0.1528426000
_diffrn_orient_matrix_UB_33      0.0372010000
_diffrn_radiation_monochromator  graphite
_diffrn_radiation_probe          x-ray
_diffrn_radiation_type           CuK\a
_diffrn_radiation_wavelength     1.54184
_diffrn_reflns_av_R_equivalents  0.0351
_diffrn_reflns_av_unetI/netI     0.0383
_diffrn_reflns_Laue_measured_fraction_full 0.999
_diffrn_reflns_Laue_measured_fraction_max 0.999
_diffrn_reflns_limit_h_max       9
_diffrn_reflns_limit_h_min       -9
_diffrn_reflns_limit_k_max       11
_diffrn_reflns_limit_k_min       -10
_diffrn_reflns_limit_l_max       13
_diffrn_reflns_limit_l_min       -12
_diffrn_reflns_number            8597
_diffrn_reflns_point_group_measured_fraction_full 0.923
_diffrn_reflns_point_group_measured_fraction_max 0.923
_diffrn_reflns_theta_full        67.075
_diffrn_reflns_theta_max         67.075
_diffrn_reflns_theta_min         5.587
_diffrn_source                   'Enhance (Cu) X-ray Source'
_exptl_absorpt_coefficient_mu    6.107
_exptl_absorpt_correction_T_max  1.00000
_exptl_absorpt_correction_T_min  0.53064
_exptl_absorpt_correction_type   multi-scan
_exptl_absorpt_process_details
;
CrysAlisPro, Agilent Technologies,
Version 1.171.37.35 (release 13-08-2014 CrysAlis171 .NET)
(compiled Aug 13 2014,18:06:01)
Empirical absorption correction using spherical harmonics,
 implemented in SCALE3 ABSPACK scaling algorithm.
;
_exptl_crystal_colour            'clear light colourless'
_exptl_crystal_colour_lustre     clear
_exptl_crystal_colour_modifier   light
_exptl_crystal_colour_primary    colourless
_exptl_crystal_density_diffrn    1.715
_exptl_crystal_F_000             444
_exptl_crystal_size_max          0.7
_exptl_crystal_size_mid          0.2
_exptl_crystal_size_min          0.15
_refine_diff_density_max         0.569
_refine_diff_density_min         -0.393
_refine_diff_density_rms         0.079
_refine_ls_abs_structure_details
;
 Flack x determined using 1028 quotients [(I+)-(I-)]/[(I+)+(I-)]
 (Parsons, Flack and Wagner, Acta Cryst. B69 (2013) 249-259).
;
_refine_ls_abs_structure_Flack   -0.06(2)
_refine_ls_extinction_method     none
_refine_ls_goodness_of_fit_ref   1.082
_refine_ls_hydrogen_treatment    constr
_refine_ls_matrix_type           full
_refine_ls_number_parameters     209
_refine_ls_number_reflns         2858
_refine_ls_number_restraints     1
_refine_ls_restrained_S_all      1.082
_refine_ls_R_factor_all          0.0479
_refine_ls_R_factor_gt           0.0459
_refine_ls_shift/su_max          0.000
_refine_ls_shift/su_mean         0.000
_refine_ls_structure_factor_coef Fsqd
_refine_ls_weighting_details
'w=1/[\s^2^(Fo^2^)+(0.0819P)^2^+0.1463P] where P=(Fo^2^+2Fc^2^)/3'
_refine_ls_weighting_scheme      calc
_refine_ls_wR_factor_gt          0.1264
_refine_ls_wR_factor_ref         0.1290
_reflns_Friedel_coverage         0.734
_reflns_Friedel_fraction_full    0.836
_reflns_Friedel_fraction_max     0.836
_reflns_number_gt                2691
_reflns_number_total             2858
_reflns_threshold_expression     'I > 2\s(I)'
_cod_data_source_file            c5qo00373c2.cif
_cod_data_source_block           lliubo-slq-7043
_cod_original_cell_volume        865.83(14)
_cod_database_code               1553216
_shelx_space_group_comment
;
The symmetry employed for this shelxl refinement is uniquely defined
by the following loop, which should always be used as a source of
symmetry information in preference to the above space-group names.
They are only intended as comments.
;
_reflns_odcompleteness_completeness 99.94
_reflns_odcompleteness_iscentric 1
_reflns_odcompleteness_theta     66.97
_olex2_refinement_description
;
1. Fixed Uiso
 At 1.2 times of:
  All C(H) groups, All C(H,H) groups, All N(H) groups
 At 1.5 times of:
  All C(H,H,H) groups
2.a Ternary CH refined with riding coordinates:
 C00B(H00B)
2.b Secondary CH2 refined with riding coordinates:
 C00C(H00c,H00d), C00D(H00e,H00f), C00E(H00g,H00h), C00M(H00k,H00l)
2.c Aromatic/amide H refined with riding coordinates:
 N006(H006), C009(H009), C00A(H00A), C00F(H00i), C00I(H00j)
2.d Idealised Me refined as rotating group:
 C00N(H00m,H00n,H00o)
;
_shelx_res_file
;
    lliubo-slq-7043.res created by SHELXL-2014/7

TITL lliubo-slq-7043_a.res in P2(1)
REM Old TITL Lliubo-slq-7043 in P21 #4
REM SHELXT solution in P2(1)
REM R1 0.140, Rweak 0.073, Alpha 0.006, Orientation as input
REM Flack x = 0.000 ( 0.022 ) from Parsons' quotients
REM Formula found by SHELXT: C16 N O4 Br2
CELL 1.54184 8.332689 9.549162 11.450062 90 108.1333 90
ZERR 2 0.000746 0.00085 0.000967 0 0.0089 0
LATT -1
SYMM -X,0.5+Y,-Z
SFAC C H Br N O
UNIT 32 34 4 2 8

L.S. 10
PLAN  20
htab
BOND $H
LIST 6
fmap 2
MORE -1
CONF
ACTA
SHEL 999 0.837
REM <olex2.extras>
REM <HklSrc "%.\\Lliubo-slq-7043.hkl">
REM </olex2.extras>

WGHT    0.081900    0.146300
FVAR       0.72120
BR01  3    0.967826    0.795952    0.799836    11.00000    0.09950    0.06402 =
         0.07226   -0.02058    0.03292   -0.02465
BR02  3    0.899312    0.204108    0.804251    11.00000    0.10141    0.05806 =
         0.08542    0.01878    0.02597    0.01339
O003  5    0.484225    0.686697    0.513606    11.00000    0.06572    0.03757 =
         0.06750   -0.00552    0.03116   -0.00242
O004  5    0.936940    0.509857    0.905285    11.00000    0.04790    0.07562 =
         0.04363   -0.00291    0.00094   -0.00470
O005  5    0.431161    0.443535    0.167927    11.00000    0.07904    0.08562 =
         0.03648   -0.00178    0.01519   -0.01980
N006  4    0.504734    0.489721    0.408928    11.00000    0.04661    0.03698 =
         0.04207   -0.00323    0.01356   -0.00262
AFIX  43
H006  2    0.475196    0.403543    0.394587    11.00000   -1.20000
AFIX   0
O007  5    0.589717    0.620148    0.142328    11.00000    0.11927    0.10687 =
         0.05368    0.00881    0.03595   -0.03755
C008  1    0.449348    0.563717    0.489325    11.00000    0.03612    0.04724 =
         0.03597    0.00298    0.00888    0.00602
C009  1    0.899787    0.619619    0.591669    11.00000    0.03809    0.05941 =
         0.05053    0.00684    0.01327    0.00307
AFIX  43
H009  2    0.905214    0.702284    0.550118    11.00000   -1.20000
AFIX   0
C00A  1    0.867093    0.370929    0.592883    11.00000    0.04345    0.04675 =
         0.05972   -0.00570    0.01213    0.00105
AFIX  43
H00A  2    0.848431    0.285543    0.551784    11.00000   -1.20000
AFIX   0
C00B  1    0.613543    0.553583    0.346267    11.00000    0.05433    0.05175 =
         0.04192   -0.00337    0.01959   -0.00091
AFIX  13
H00B  2    0.623091    0.653211    0.367877    11.00000   -1.20000
AFIX   0
C00C  1    0.794470    0.491225    0.389980    11.00000    0.04908    0.07010 =
         0.05056   -0.00699    0.02314   -0.00256
AFIX  23
H00C  2    0.792174    0.395754    0.360569    11.00000   -1.20000
H00D  2    0.867960    0.545615    0.356267    11.00000   -1.20000
AFIX   0
C00D  1    0.347261    0.529486    0.675061    11.00000    0.04684    0.06636 =
         0.05168    0.00188    0.02026    0.00425
AFIX  23
H00E  2    0.345681    0.630974    0.678125    11.00000   -1.20000
H00F  2    0.250480    0.495256    0.696519    11.00000   -1.20000
AFIX   0
C00E  1    0.331266    0.482800    0.542918    11.00000    0.04079    0.04651 =
         0.04617   -0.00073    0.01232   -0.00282
AFIX  23
H00G  2    0.356689    0.383659    0.543080    11.00000   -1.20000
H00H  2    0.215710    0.496442    0.491047    11.00000   -1.20000
AFIX   0
C00F  1    0.505605    0.477185    0.767820    11.00000    0.05074    0.07128 =
         0.04260    0.00548    0.01868   -0.00050
AFIX  43
H00I  2    0.517025    0.380594    0.777146    11.00000   -1.20000
AFIX   0
C00G  1    0.862148    0.493074    0.528568    11.00000    0.03822    0.05866 =
         0.04929   -0.01007    0.01655   -0.00198
C00H  1    0.900005    0.375144    0.719386    11.00000    0.03854    0.05468 =
         0.05915    0.00710    0.01285    0.00395
C00I  1    0.629540    0.553322    0.837098    11.00000    0.05382    0.06537 =
         0.04949    0.00286    0.01681    0.00046
AFIX  43
H00J  2    0.623926    0.649912    0.826186    11.00000   -1.20000
AFIX   0
C00J  1    0.921843    0.500510    0.784313    11.00000    0.03287    0.06936 =
         0.04458   -0.00018    0.00400    0.00352
C00K  1    0.928845    0.619889    0.716989    11.00000    0.03640    0.05670 =
         0.05268   -0.01183    0.01173   -0.00766
C00L  1    0.542823    0.544151    0.206906    11.00000    0.05112    0.06461 =
         0.04187   -0.00002    0.01784   -0.00017
C00M  1    0.779142    0.493818    0.932487    11.00000    0.05725    0.08706 =
         0.03952    0.00350    0.01103    0.00313
AFIX  23
H00K  2    0.789819    0.539006    1.010417    11.00000   -1.20000
H00L  2    0.759585    0.394899    0.941774    11.00000   -1.20000
AFIX   0
C00N  1    0.359191    0.428888    0.035279    11.00000    0.08889    0.13242 =
         0.03950   -0.00754    0.01004   -0.03062
AFIX 137
H00M  2    0.330080    0.519667   -0.001189    11.00000   -1.50000
H00N  2    0.259663    0.371682    0.016653    11.00000   -1.50000
H00O  2    0.440368    0.385656    0.002893    11.00000   -1.50000
AFIX   0
HKLF 4

REM  lliubo-slq-7043_a.res in P2(1)
REM R1 =  0.0459 for    2691 Fo > 4sig(Fo)  and  0.0479 for all    2858 data
REM    209 parameters refined using      1 restraints

END

WGHT      0.0819      0.1463

REM Instructions for potential hydrogen bonds
EQIV $1 -x+1, y-1/2, -z+1
HTAB N006 O003_$1
HTAB C00E O003_$1
HTAB C00M Br02

REM Highest difference peak  0.569,  deepest hole -0.393,  1-sigma level  0.079
Q1    1   1.0371  0.7116  0.8197  11.00000  0.05    0.57
Q2    1   0.9012  0.1131  0.7955  11.00000  0.05    0.44
Q3    1   0.9852  0.8874  0.7938  11.00000  0.05    0.42
Q4    1   0.8394  0.2915  0.7813  11.00000  0.05    0.40
Q5    1   0.9144  0.7016  0.7827  11.00000  0.05    0.35
Q6    1   0.9499  0.2957  0.8172  11.00000  0.05    0.33
Q7    1   0.9547  0.5079  0.2121  11.00000  0.05    0.32
Q8    1   0.9309  0.7971  0.7440  11.00000  0.05    0.31
Q9    1   0.9371  0.7928  0.8364  11.00000  0.05    0.29
Q10   1   1.0020  0.2207  0.8112  11.00000  0.05    0.26
Q11   1   0.8523 -0.0051  0.8236  11.00000  0.05    0.25
Q12   1   0.8849  0.2053  0.7579  11.00000  0.05    0.25
Q13   1   0.5007  0.6382  0.1568  11.00000  0.05    0.23
Q14   1   0.4241  0.7791  0.4951  11.00000  0.05    0.23
Q15   1   0.6318  0.6654  0.1417  11.00000  0.05    0.20
Q16   1   0.3741  0.6721  0.4874  11.00000  0.05    0.20
Q17   1   0.1896  0.6983  0.7614  11.00000  0.05    0.19
Q18   1   1.1302  0.2984  0.7895  11.00000  0.05    0.19
Q19   1   0.1776  0.6069  0.7745  11.00000  0.05    0.19
Q20   1   0.6092  0.2422  0.7803  11.00000  0.05    0.19
;
_shelx_res_checksum              63439
_shelx_hkl_file
;
   0 -10   6    0.51    0.81
   0  -9   7   15.75    2.73
   0  -9   7   16.99    2.81
   0  -9   8    7.54    1.77
   0  -9   8    5.83    1.52
   0  -8   7  141.57    8.75
   0  -8   8   10.10    2.40
   0  -8   8   11.05    2.51
   0  -8   8    8.57    2.14
   0  -8   9   13.01    2.34
   0  -8   9    9.68    1.92
   0  -8   9   14.97    2.62
   0  -8   9   15.41    2.61
   0  -7   0    1.08    4.31
   0  -7   1 1052.53   47.21
   0  -7  -1 1083.83   53.97
   0  -7   2  303.57   25.91
   0  -7  -2  296.10   29.24
   0  -7   3  160.95   19.31
   0  -7  -3  138.78   22.23
   0  -7   6  192.36   11.29
   0  -7   7  178.40   10.58
   0  -7   7  170.89   10.43
   0  -7   8   63.59    6.24
   0  -7   8   65.86    6.29
   0  -7   8   62.72    6.13
   0  -7   9   71.66    6.10
   0  -7   9   79.65    6.35
   0  -7   9   79.22    6.34
   0  -7   9   71.76    6.40
   0  -7  10   10.13    2.26
   0  -7  10    7.48    2.01
   0  -7  10    7.91    1.84
   0  -7  10   11.60    2.46
   0  -7  10   10.88    2.25
   0  -7  10    7.84    1.91
   0  -6   0  426.55   29.50
   0  -6   0  441.00   28.10
   0  -6   1   57.50   10.22
   0  -6  -1   54.07   11.35
   0  -6   1   69.86   11.42
   0  -6   2    8.52    4.50
   0  -6   2    5.33    3.43
   0  -6   3   15.83    5.99
   0  -6   3    7.45    2.87
   0  -6   4   44.85    9.33
   0  -6   5   29.73    9.13
   0  -6   7   95.17    8.07
   0  -6   7   89.86    7.20
   0  -6   8   -0.41    1.10
   0  -6   8    1.59    1.39
   0  -6   8    1.56    1.45
   0  -6   8   -1.02    1.29
   0  -6   9   36.42    5.02
   0  -6   9   41.03    5.00
   0  -6   9   39.39    4.89
   0  -6   9   39.59    4.90
   0  -6  10   14.11    2.91
   0  -6  10   11.83    2.84
   0  -6  10   11.84    2.55
   0  -6  10   16.59    3.14
   0  -6  10   14.73    2.84
   0  -6  11    5.70    1.58
   0  -6  11    6.83    1.80
   0  -6  11    7.15    1.76
   0  -6  11    5.21    1.49
   0  -6  11    5.37    1.53
   0  -5   0    2.36    2.57
   0  -5   1 1985.92   55.10
   0  -5   1 1998.13   53.85
   0  -5   2  251.37   19.35
   0  -5   2  262.84   19.96
   0  -5   3  797.16   34.44
   0  -5   3  736.94   34.11
   0  -5   4 1455.82   48.24
   0  -5   4 1447.93   50.63
   0  -5   5   88.75   12.99
   0  -5   5   84.31   13.30
   0  -5   6  797.49   42.74
   0  -5   7   38.31    5.09
   0  -5   7   35.36    4.53
   0  -5   8   62.96    6.31
   0  -5   8   56.12    5.84
   0  -5   8   54.86    6.17
   0  -5   8   58.80    6.30
   0  -5   9  323.14   14.12
   0  -5   9  314.69   14.51
   0  -5   9  319.63   14.38
   0  -5  10    0.12    1.36
   0  -5  10    2.10    1.42
   0  -5  10    1.74    1.68
   0  -5  10    1.43    1.56
   0  -5  10   -1.63    1.75
   0  -5  11   47.47    5.10
   0  -5  11   43.89    4.57
   0  -5  11   42.06    4.62
   0  -5  11   47.19    4.94
   0  -5  11   44.78    4.68
   0  -5  12   17.04    2.37
   0  -5  12   15.63    2.29
   0  -5  12   16.46    2.44
   0  -4   0 1887.88   47.77
   0  -4   0 1874.60   36.09
   0  -4   1   60.32    6.25
   0  -4   1   55.21    8.09
   0  -4  -1   63.20    7.48
   0  -4   1   62.73    8.52
   0  -4   2  166.39   11.25
   0  -4  -2  152.09   12.93
   0  -4   2  182.64   14.74
   0  -4   2  168.59   14.36
   0  -4   3  935.00   34.48
   0  -4   3  933.76   32.82
   0  -4   4   17.20    5.16
   0  -4   4   18.18    4.93
   0  -4   5  318.58   23.14
   0  -4   5  323.25   22.14
   0  -4   6   55.97   10.71
   0  -4   6   47.69    9.85
   0  -4   7  267.72   12.78
   0  -4   7  270.27   24.68
   0  -4   7  249.99   11.59
   0  -4   7  280.91   25.71
   0  -4   8  144.20    9.82
   0  -4   8  143.60    9.47
   0  -4   8  134.89   12.68
   0  -4   8  136.00    9.02
   0  -4   8  115.84    8.15
   0  -4   8  135.57    9.40
   0  -4   9   30.60    4.84
   0  -4   9   31.11    4.71
   0  -4   9   32.43    4.77
   0  -4   9   24.28    4.96
   0  -4   9   30.52    6.13
   0  -4   9   29.32    4.42
   0  -4  10   23.38    4.47
   0  -4  10   27.61    4.45
   0  -4  10   30.13    4.62
   0  -4  10   29.78    4.49
   0  -4  10   28.24    4.92
   0  -4  10   31.34    4.87
   0  -4  11   16.00    2.94
   0  -4  11   15.46    2.86
   0  -4  11   19.08    3.58
   0  -4  11   16.35    3.20
   0  -4  12    1.66    1.08
   0  -4  12    0.66    1.05
   0  -4  12    0.27    0.96
   0  -3   0    0.34    1.17
   0  -3   1 2640.44   46.88
   0  -3   1 2620.18   36.02
   0  -3   2 3495.50   46.24
   0  -3   2 3619.65   56.80
   0  -3   3  897.79   29.74
   0  -3   3  961.12   29.60
   0  -3   4  994.82   32.62
   0  -3   4  906.51   32.56
   0  -3   5   39.00    7.20
   0  -3   5   40.60    8.00
   0  -3   6  513.25   29.84
   0  -3   6  523.83   29.48
   0  -3   7  246.09   22.82
   0  -3   7  268.36   24.19
   0  -3   8  572.69   18.89
   0  -3   8  594.14   23.31
   0  -3   8  613.02   26.93
   0  -3   8  534.48   17.36
   0  -3   8  590.49   19.25
   0  -3   8  587.52   18.81
   0  -3   9  103.57    8.25
   0  -3   9   97.99    8.64
   0  -3   9  109.87   11.54
   0  -3   9  111.72    8.61
   0  -3   9  101.20    9.87
   0  -3   9  103.65    8.42
   0  -3  10    6.91    2.73
   0  -3  10    4.36    2.06
   0  -3  10    4.57    2.11
   0  -3  10    2.29    1.55
   0  -3  10    4.05    2.10
   0  -3  10    2.85    1.94
   0  -3  11   25.46    3.99
   0  -3  11   26.64    4.15
   0  -3  11   22.46    3.90
   0  -3  11   30.51    4.81
   0  -3  11   26.24    4.26
   0  -3  11   26.35    4.06
   0  -3  11   22.95    3.69
   0  -3  12   -0.38    0.77
   0  -3  12    1.30    1.00
   0  -2   0  943.17   18.07
   0  -2   1  593.58   18.04
   0  -2   1  590.26   14.43
   0  -2   2 2365.13   34.40
   0  -2   2 2394.85   37.67
   0  -2   2 2401.35   26.75
   0  -2   3 2148.45   32.92
   0  -2   3 2168.83   40.23
   0  -2   3 2096.81   38.88
   0  -2   4  358.40   18.32
   0  -2   4  355.49   17.76
   0  -2   4  347.34   16.42
   0  -2   5 1366.24   39.67
   0  -2   5 1343.62   39.97
   0  -2   5 1340.62   38.88
   0  -2   6  467.92   26.69
   0  -2   6  463.65   26.78
   0  -2   7  174.65   18.51
   0  -2   8  243.45   14.69
   0  -2   8  235.92   11.88
   0  -2   8  218.44   11.43
   0  -2   8  247.85   16.65
   0  -2   8  226.18   11.66
   0  -2   8  207.68   22.55
   0  -2   8  198.47   10.28
   0  -2   9   -0.30    2.19
   0  -2   9    0.61    1.13
   0  -2   9   -0.89    1.57
   0  -2   9    0.96    1.48
   0  -2   9    2.50    1.45
   0  -2   9    1.18    1.57
   0  -2   9   -0.33    1.72
   0  -2  10  132.23   11.06
   0  -2  10  135.03   12.54
   0  -2  10  113.44    8.89
   0  -2  10  110.73    8.61
   0  -2  10  116.34    9.54
   0  -2  10  113.95    8.72
   0  -2  11   35.26    5.49
   0  -2  11   27.31    4.42
   0  -2  11   30.41    4.58
   0  -2  11   33.41    4.80
   0  -2  11   26.05    4.27
   0  -2  12   20.87    3.16
   0  -2  12   23.55    3.52
   0  -2  12   19.18    3.26
   0  -2  13   29.15    3.23
   0  -1   0    0.99    0.59
   0  -1   1   26.95    2.54
   0  -1   2  134.57    6.65
   0  -1   3   53.46    5.65
   0  -1   3   51.25    5.61
   0  -1   3   46.23    5.24
   0  -1   4  794.27   26.05
   0  -1   4  777.56   25.66
   0  -1   4  777.45   24.92
   0  -1   5  673.46   27.63
   0  -1   5  659.38   26.69
   0  -1   5  693.57   28.55
   0  -1   6  760.00   34.19
   0  -1   6  768.33   33.15
   0  -1   7   70.95   11.56
   0  -1   7   59.65   10.61
   0  -1   8   33.15    9.40
   0  -1   9    6.71    2.38
   0  -1   9    9.28    2.86
   0  -1   9    6.29    2.74
   0  -1   9    5.47    2.26
   0  -1   9    5.74    2.42
   0  -1   9    6.36    2.58
   0  -1  10    5.23    2.15
   0  -1  10    3.59    2.23
   0  -1  10    5.61    2.66
   0  -1  10    5.82    2.48
   0  -1  10    6.96    2.56
   0  -1  11   20.16    4.24
   0  -1  11   19.42    3.77
   0  -1  11   17.63    3.54
   0  -1  12    5.62    1.88
   0  -1  13    0.85    0.87
   0  -1  13   -0.22    0.77
   0   0   2 3435.01   34.37
   0   0   3 7895.00   71.28
   0   0   3 7970.85   66.16
   0   0   4  318.25   17.24
   0   0   4  338.40   16.62
   0   0   5 3753.94   68.84
   0   0   5 3683.48   64.02
   0   0   6  488.88   27.13
   0   0   6  500.23   28.17
   0   0   7  821.60   40.80
   0   0   7  793.77   39.03
   0   0   8  461.78   32.78
   0   0   9    7.26    3.16
   0   0   9    5.52    2.50
   0   0   9    5.87    2.29
   0   0   9    2.99    2.17
   0   0   9    1.41    1.71
   0   0  10  316.88   16.37
   0   0  10  303.37   15.19
   0   0  10  277.95   13.50
   0   0  11    1.87    1.63
   0   0  11    2.68    1.75
   0   0  12   11.40    2.62
   0   0  12    8.80    2.45
   0   0  13   11.51    2.14
   0   0  13   10.65    2.01
   0   1   0    3.74    0.65
   0   1   1   34.07    2.00
   0   1   2  104.49    3.08
   0   1  -2  127.74    7.57
   0   1   3   52.81    6.49
   0   1  -3   47.56    5.22
   0   1   4  812.15   28.68
   0   1   4  793.70   28.17
   0   1   5  653.70   29.36
   0   1   5  639.95   28.79
   0   1   6  746.55   34.90
   0   1   7   61.98   11.15
   0   1   8   21.19    6.10
   0   1   9    5.28    2.33
   0   1   9    3.43    2.02
   0   1  10    5.54    2.57
   0   1  10    2.70    1.74
   0   1  11   16.80    3.50
   0   1  11   22.00    4.33
   0   1  12    5.50    2.02
   0   1  12    9.30    2.55
   0   1  13    0.55    0.60
   0   1  13    1.20    0.82
   0   2   0  647.03   11.90
   0   2   0  729.01   17.54
   0   2   1  668.80   18.05
   0   2   1  655.83   14.73
   0   2   1  655.06   17.74
   0   2   2 2639.30   42.30
   0   2   2 2244.95   22.76
   0   2  -3 1954.56   39.48
   0   2   3 2140.26   43.21
   0   2  -4  362.94   18.51
   0   2   4  370.01   19.99
   0   2   5 1410.36   43.64
   0   2   6  424.81   26.81
   0   2   7  127.42   16.21
   0   2   8  213.52   23.09
   0   2   8  222.72   12.52
   0   2   8  253.72   14.00
   0   2   9   -0.61    1.05
   0   2   9    1.39    1.57
   0   2  -9    1.87    1.58
   0   2   9    2.79    1.47
   0   2   9    2.94    2.06
   0   2  10  129.09   10.70
   0   2  10  119.64    9.47
   0   2  11   36.01    5.15
   0   2  11   29.56    4.60
   0   2  12   24.25    3.71
   0   2  12   27.75    3.96
   0   2  13   27.85    3.19
   0   3   0    3.50    1.26
   0   3   0    0.54    1.46
   0   3   0    1.29    1.87
   0   3   1 2625.43   43.41
   0   3  -1 2621.55   45.59
   0   3   1 2713.65   38.62
   0   3   1 2581.44   41.20
   0   3  -1 2724.09   44.38
   0   3   2 3661.77   53.38
   0   3  -2 3716.95   57.91
   0   3  -2 3693.98   55.54
   0   3   2 3709.85   55.35
   0   3  -3  926.94   31.50
   0   3   3  929.36   30.64
   0   3  -3  945.89   30.72
   0   3   4  901.71   33.38
   0   3  -4  887.97   32.57
   0   3   5   31.01    6.94
   0   3   6  470.08   29.15
   0   3   7  224.62   21.79
   0   3   8  521.92   19.47
   0   3  -8  515.91   18.10
   0   3   8  510.66   21.65
   0   3   9  124.03   10.78
   0   3   9  101.44    8.81
   0   3  -9  117.48    9.00
   0   3  10    4.39    2.24
   0   3 -10    4.62    1.88
   0   3  10    0.93    1.23
   0   3 -11   24.60    3.84
   0   3  11   24.39    4.22
   0   3  11   27.95    4.38
   0   3  12    1.63    1.46
   0   3  12    4.02    1.72
   0   4   0 1887.78   40.33
   0   4   0 1894.65   43.87
   0   4  -1   59.41    8.60
   0   4  -1   52.52    5.81
   0   4   1   68.78    8.31
   0   4  -1   57.39    7.39
   0   4   1   58.89    6.91
   0   4  -2  208.22   16.23
   0   4   2  175.01   10.98
   0   4  -2  204.22   13.56
   0   4   2  210.10   14.75
   0   4  -2  186.19   14.23
   0   4  -3  863.36   32.58
   0   4  -3  928.37   32.42
   0   4  -3  886.74   35.56
   0   4   3  848.40   32.22
   0   4  -4   17.68    5.44
   0   4  -4   11.07    4.20
   0   4   4   13.09    4.84
   0   4   5  269.79   21.78
   0   4  -5  328.72   23.68
   0   4  -5  323.07   25.14
   0   4   6   52.12   10.63
   0   4  -6   62.24   12.37
   0   4  -7  229.24   11.28
   0   4   7  206.75   10.03
   0   4   7  257.91   13.87
   0   4   7  230.39   23.55
   0   4  -7  248.07   25.17
   0   4  -8  122.56    8.78
   0   4   8  108.72    7.58
   0   4   8  145.81   10.63
   0   4   8  124.17   11.03
   0   4   9   24.19    4.54
   0   4  -9   25.52    4.25
   0   4   9   23.32    4.35
   0   4 -10   40.89    5.25
   0   4  10   35.80    5.24
   0   4  10   30.73    5.11
   0   4  11   19.58    3.61
   0   4  11   19.35    3.59
   0   4 -11   27.62    3.96
   0   4  12    0.86    1.27
   0   5   0    1.15    2.15
   0   5   0    1.05    2.65
   0   5  -1 1963.22   54.38
   0   5   1 1824.82   49.72
   0   5   1 1797.91   43.27
   0   5  -1 1837.39   47.37
   0   5  -2  201.55   18.62
   0   5   2  171.56   15.48
   0   5  -2  164.16   14.91
   0   5  -3  823.94   39.58
   0   5  -3  705.19   32.40
   0   5  -4 1334.91   49.39
   0   5  -4 1371.81   48.41
   0   5  -5   62.49   11.95
   0   5  -5   77.65   13.90
   0   5  -6  725.43   44.67
   0   5  -6  646.16   18.31
   0   5   6  745.97   23.83
   0   5  -6  668.86   40.68
   0   5   7   39.40    5.84
   0   5   7   29.49    4.08
   0   5   7   36.64    6.14
   0   5  -7   37.88    4.66
   0   5   8   88.35    8.51
   0   5  -8   78.56    6.85
   0   5   8   69.61    8.30
   0   5   9  338.83   17.57
   0   5   9  367.27   16.85
   0   5  -9  330.41   14.01
   0   5  10    1.87    1.61
   0   5  10    1.19    1.53
   0   5 -10   -1.20    1.45
   0   5 -11   64.38    5.52
   0   6   0  393.74   23.99
   0   6   0  415.82   27.40
   0   6  -1   63.57   11.34
   0   6   1   57.79   10.07
   0   6  -1   53.09    9.04
   0   6  -2    0.70    2.50
   0   6   2    2.77    3.72
   0   6  -2    0.86    2.22
   0   6  -3   13.81    5.77
   0   6  -3   14.44    4.66
   0   6  -4   49.87   11.46
   0   6  -4   41.06    8.97
   0   6  -5   26.46    3.76
   0   6  -5   20.21    8.18
   0   6   5   20.74    3.49
   0   6   5   20.42    4.44
   0   6   6  125.01   11.00
   0   6  -6  119.47    8.07
   0   6   6  115.43    9.93
   0   6   7  100.82    9.32
   0   6  -7   93.05    7.28
   0   6   7  102.39   10.16
   0   6   8    1.55    1.79
   0   6  -8    1.14    1.19
   0   6   9   44.01    5.89
   0   6  -9   50.55    5.17
   0   6 -10   19.32    3.11
   0   6 -11    8.56    1.99
   0   7   0   -1.05    3.54
   0   7   1 1047.21   47.74
   0   7  -1 1132.87   52.55
   0   7  -1 1007.65   43.49
   0   7   2  284.25   24.82
   0   7  -2  296.26   24.06
   0   7  -2  293.79   11.91
   0   7  -3  148.55    8.68
   0   7  -3  167.73   22.50
   0   7  -4  354.46   13.55
   0   7  -4  323.89   12.89
   0   7  -5    7.06    2.07
   0   7  -6  197.97   10.29
   0   7  -7  196.41   10.19
   0   7  -8   71.31    5.97
   0   7  -9   92.86    6.42
   0   7 -10   12.93    2.22
   0   8   0   91.93    7.04
   0   8   0   77.63    6.93
   0   8   1   34.49    4.31
   0   8  -1   32.22    4.50
   0   8  -1   34.65    4.25
   0   8  -2  149.24   10.02
   0   8  -2  138.63    8.47
   0   8   2  135.32    8.43
   0   8  -3  187.64    9.96
   0   8  -4   93.91    7.10
   0   8  -5   98.22    7.10
   0   8  -5   87.96    6.87
   0   8  -6   97.25    7.05
   0   8  -7  170.32    8.90
   0   8  -8   11.63    2.31
   0   8  -9   16.70    2.43
   0   9   0    0.69    1.39
   0   9   0   -2.11    1.61
   0   9  -1   29.10    4.54
   0   9   1   28.79    4.03
   0   9  -1   25.96    3.74
   0   9  -2   55.73    5.39
   0   9   2   59.56    5.73
   0   9  -2   60.95    6.55
   0   9  -3    3.94    1.47
   0   9  -3    6.58    2.45
   0   9  -4  105.49    8.56
   0   9  -4   92.29    6.71
   0   9  -5   49.31    4.81
   0   9  -5   60.98    6.41
   0   9  -6   24.37    4.00
   0   9  -7   24.77    3.64
   0   9  -7   21.46    2.82
   0   9  -8   12.98    2.34
   0   9  -8    8.61    1.64
   0  10   0  285.87   11.99
   0  10  -1   26.37    3.67
   0  10   1   30.97    4.02
   0  10   2   76.48    6.02
   0  10  -2   71.49    6.58
   0  10  -2   78.83    6.15
   0  10  -3  120.41    7.28
   0  10  -3  106.07    7.99
   0  10  -4   29.48    4.20
   0  10  -4   29.95    3.63
   0  10  -5  102.61    7.24
   0  10  -5   95.45    5.71
   0  10  -6    3.09    1.75
   0  10  -7   41.23    3.59
   0  11   0    1.21    1.25
   0  11  -1    1.93    1.30
   0  11   1   -0.01    1.23
   0  11  -2   25.25    3.18
   0  11   2   13.22    2.06
   0  11  -3   -0.56    1.23
   0  11  -4    2.15    0.77
  -1 -10   7   13.37    2.26
  -1  -9   9    6.84    1.63
  -1  -9   8    0.25    0.81
  -1  -9   8    0.29    0.99
  -1  -9   7   46.68    4.63
   1  -9   6   50.85    4.71
   1  -9   7   30.54    3.39
   1  -9   8    7.18    1.66
   1  -9   8    6.20    1.59
  -1  -8  10    7.57    1.60
  -1  -8  10    6.31    1.42
  -1  -8  10    7.11    1.68
  -1  -8  10    6.13    1.39
  -1  -8   9   29.19    3.81
  -1  -8   9   29.36    3.61
  -1  -8   9   34.43    4.03
  -1  -8   9   21.66    3.02
  -1  -8   8   23.82    3.54
  -1  -8   8   28.99    3.91
  -1  -8   7   12.48    2.83
   1  -8   7   41.11    4.67
   1  -8   7   40.70    4.82
   1  -8   8    1.67    1.33
   1  -8   8    3.96    1.47
   1  -8   8    3.55    1.41
   1  -8   9   22.40    2.67
   1  -8   9   25.42    2.95
   1  -8   9   22.91    2.77
   1  -8   9   17.91    2.50
   1  -8   9   24.59    3.05
  -1  -7  11   13.68    2.22
  -1  -7  11   13.27    2.19
  -1  -7  11   12.92    2.14
  -1  -7  11   13.17    2.13
  -1  -7  11   10.69    1.92
  -1  -7  10   50.88    4.71
  -1  -7  10   44.98    4.56
  -1  -7  10   45.46    4.77
  -1  -7  10   52.19    4.89
  -1  -7   9   71.14    6.11
  -1  -7   9   67.57    5.62
  -1  -7   9   65.34    6.09
  -1  -7   9   61.24    5.85
  -1  -7   8   23.16    3.93
  -1  -7   8   20.86    3.24
  -1  -7   8   24.23    3.71
  -1  -7   7  115.45    7.65
  -1  -7   7  143.98    9.00
  -1  -7   3   11.98    6.05
  -1  -7   3    8.38    3.50
  -1  -7   2  393.76   31.32
  -1  -7   2  401.13   32.21
  -1  -7   1  506.23   36.80
  -1  -7   1  514.99   35.85
  -1  -7   0  258.36   26.78
   1  -7   0  221.50   21.78
  -1  -7   0  243.02   24.81
  -1  -7  -1  852.27   50.57
   1  -7   2   61.30   12.42
  -1  -7  -2   49.32   12.56
   1  -7   7    6.06    2.05
   1  -7   7    6.06    2.15
   1  -7   7    6.94    2.57
   1  -7   8   25.58    3.73
   1  -7   8   23.59    3.86
   1  -7   8   24.75    3.80
   1  -7   8   26.14    3.75
   1  -7   9  123.96    7.84
   1  -7   9  131.06    8.04
   1  -7   9  117.57    6.92
   1  -7   9  120.65    7.66
   1  -7   9  136.07    8.11
   1  -7   9  130.88    8.09
   1  -7   9  138.32    7.90
   1  -7  10    2.63    1.16
   1  -7  10    3.17    1.28
   1  -7  10    2.80    1.18
   1  -7  10    2.95    1.16
  -1  -6  11    3.35    1.39
  -1  -6  11    2.78    1.43
  -1  -6  11    0.36    0.92
  -1  -6  11    1.39    1.07
  -1  -6  11    2.64    1.38
  -1  -6  10   34.86    4.52
  -1  -6  10   34.73    4.42
  -1  -6  10   34.29    4.33
  -1  -6  10   30.01    4.20
  -1  -6   9   16.64    3.58
  -1  -6   9   16.18    3.33
  -1  -6   9   15.49    2.86
  -1  -6   9   14.21    2.87
  -1  -6   9   17.38    3.49
  -1  -6   8   25.31    3.82
  -1  -6   8   33.99    4.59
  -1  -6   8   24.66    4.08
  -1  -6   7  151.80    9.49
  -1  -6   7  137.24    8.54
  -1  -6   7  148.86   10.85
  -1  -6   5   24.91    7.98
  -1  -6   5   19.89    7.13
  -1  -6   4  247.60   23.36
  -1  -6   4  256.57   23.37
  -1  -6   3   46.25    9.70
  -1  -6   3   46.24    9.46
  -1  -6   2   56.27   11.05
   1  -6  -2   54.92   11.23
  -1  -6   2   57.49   10.90
  -1  -6   1  294.08   24.98
   1  -6   0   82.27   11.21
  -1  -6   0   61.70   12.22
   1  -6   1   10.15    4.50
  -1  -6  -1    7.33    4.86
   1  -6   2  161.34   16.99
   1  -6   3   12.23    5.80
   1  -6   4   14.31    5.99
   1  -6   6   36.73    4.89
   1  -6   6   37.26    5.12
   1  -6   7   66.09    6.63
   1  -6   7   71.17    6.78
   1  -6   7   70.90    6.81
   1  -6   8   25.61    4.31
   1  -6   8   27.09    4.13
   1  -6   8   26.83    4.10
   1  -6   8   24.73    4.03
   1  -6   9   29.87    4.33
   1  -6   9   21.69    3.54
   1  -6   9   27.05    3.96
   1  -6   9   23.29    4.22
   1  -6   9   23.57    3.76
   1  -6  10    2.97    1.41
   1  -6  10    1.19    1.05
   1  -6  10    3.92    1.55
   1  -6  10    3.27    1.64
   1  -6  10    4.99    1.70
   1  -6  11    1.91    0.92
   1  -6  11    1.82    0.87
   1  -6  11    1.12    0.85
  -1  -5  12   15.21    2.48
  -1  -5  12   16.90    2.61
  -1  -5  12   13.07    2.33
  -1  -5  11   32.43    4.15
  -1  -5  11   29.83    3.84
  -1  -5  11   34.41    4.37
  -1  -5  11   33.61    4.43
  -1  -5  11   24.87    3.50
  -1  -5  10   20.13    3.58
  -1  -5  10   27.69    4.27
  -1  -5  10   19.75    4.62
  -1  -5  10   21.44    3.80
  -1  -5   9  118.56   11.98
  -1  -5   9  125.22    9.11
  -1  -5   9  122.21    8.52
  -1  -5   9  146.89    9.52
  -1  -5   9  122.33    8.32
  -1  -5   9  120.88    8.85
  -1  -5   8   47.71    7.65
  -1  -5   8   56.05    5.80
  -1  -5   8   52.02    6.55
  -1  -5   8   50.88    5.33
  -1  -5   7  270.80   14.39
  -1  -5   7  239.80   11.66
  -1  -5   7  243.72   11.20
  -1  -5   6  192.37   20.58
  -1  -5   6  206.13   20.87
  -1  -5   5  197.39   19.79
  -1  -5   5  205.28   19.79
  -1  -5   4 1316.88   48.95
  -1  -5   4 1346.64   48.19
  -1  -5   3  180.44   17.70
  -1  -5   3  181.63   17.55
  -1  -5   2 1628.61   52.51
  -1  -5   2 1730.25   54.22
   1  -5  -1 1992.57   54.94
   1  -5  -1 1896.92   46.14
  -1  -5   1 2016.89   58.51
  -1  -5   1 1964.21   49.49
   1  -5   0  411.84   21.96
   1  -5   0  411.02   23.78
  -1  -5   0  391.16   26.52
  -1  -5   0  382.42   23.09
   1  -5   1 2161.38   52.52
  -1  -5  -1 2062.43   56.98
   1  -5   1 2138.43   52.89
   1  -5   2   17.77    5.01
  -1  -5  -2   15.15    5.60
  -1  -5  -3 1178.80   49.20
   1  -5   3 1332.02   46.47
  -1  -5  -4  597.46   36.97
   1  -5   4  696.62   36.10
   1  -5   5  137.83   17.27
   1  -5   6  470.99   17.15
   1  -5   6  481.10   17.51
   1  -5   7  129.84    9.35
   1  -5   7  141.60    9.43
   1  -5   7  131.07    9.46
   1  -5   7  116.64    8.32
   1  -5   8  146.95    9.76
   1  -5   8  133.46   10.03
   1  -5   8  134.24    9.56
   1  -5   8  143.88    9.80
   1  -5   9   27.70    4.57
   1  -5   9   33.98    4.97
   1  -5   9   28.70    4.34
   1  -5   9   29.07    4.37
   1  -5   9   31.22    4.46
   1  -5  10    4.79    1.81
   1  -5  10    2.66    1.37
   1  -5  10    6.37    2.23
   1  -5  10    4.93    2.08
   1  -5  10    5.66    1.77
   1  -5  10    3.62    1.60
   1  -5  10    4.80    2.01
   1  -5  11   40.26    3.99
   1  -5  11   48.11    4.62
   1  -5  11   44.10    4.44
   1  -5  11   30.33    3.47
   1  -5  11   43.68    4.25
  -1  -4  12    7.13    1.96
  -1  -4  12    8.12    2.21
  -1  -4  12    7.26    1.98
  -1  -4  12   10.59    2.37
  -1  -4  12    8.78    2.07
  -1  -4  11   16.87    3.21
  -1  -4  11   15.08    2.93
  -1  -4  11   16.29    3.20
  -1  -4  11   16.49    3.71
  -1  -4  11   17.42    3.51
  -1  -4  10    0.00    1.35
  -1  -4  10    3.38    1.87
  -1  -4  10    2.99    1.60
  -1  -4  10    1.39    1.86
  -1  -4  10    1.12    1.29
  -1  -4  10    1.66    1.60
  -1  -4   9    5.84    2.02
  -1  -4   9    7.68    2.58
  -1  -4   9    7.82    2.73
  -1  -4   9    6.79    2.94
  -1  -4   9    6.33    2.38
  -1  -4   9    6.85    2.11
  -1  -4   9    5.76    2.89
  -1  -4   8  142.55   10.58
  -1  -4   8  125.00    8.30
  -1  -4   8  128.92    8.55
  -1  -4   8  132.11   12.66
  -1  -4   8  123.36   10.92
  -1  -4   8  125.86    8.77
  -1  -4   7   79.70   13.29
  -1  -4   7   87.90   14.28
  -1  -4   6  393.97   27.31
  -1  -4   6  419.61   27.68
  -1  -4   5   87.98   11.94
  -1  -4   5   70.70   10.55
  -1  -4   4  151.20   14.33
  -1  -4   4  139.20   14.56
  -1  -4   4  148.83   14.52
  -1  -4   3 1058.20   34.15
  -1  -4   3 1107.83   39.67
  -1  -4   3 1071.27   37.95
  -1  -4   2  301.00   19.77
  -1  -4   2  291.73   17.48
   1  -4  -2  271.87   14.88
  -1  -4   1  963.79   35.11
   1  -4  -1  937.47   28.12
  -1  -4   1  992.74   32.74
  -1  -4   0  337.13   21.46
   1  -4   0  341.48   18.59
   1  -4   0  338.90   17.54
  -1  -4   0  337.99   19.88
  -1  -4  -1  760.02   31.14
   1  -4   1  797.26   28.02
   1  -4   1  770.37   27.20
   1  -4   2  977.66   30.50
   1  -4   2 1064.78   34.57
  -1  -4  -2 1062.87   39.00
   1  -4   3  740.18   27.77
   1  -4   3  770.22   31.79
   1  -4   4   12.72    3.69
   1  -4   4   10.77    4.29
   1  -4   5   94.38   13.34
   1  -4   6   99.19   14.63
   1  -4   6   86.48   13.94
   1  -4   7  209.57   11.64
   1  -4   7  208.67   11.26
   1  -4   7  224.34   12.02
   1  -4   7  194.18   15.15
   1  -4   7  189.16   10.41
   1  -4   8    7.42    2.41
   1  -4   8    8.59    2.95
   1  -4   8    7.91    2.56
   1  -4   8    9.92    2.77
   1  -4   9    5.55    2.55
   1  -4   9    6.17    2.60
   1  -4   9    4.47    2.20
   1  -4   9    6.39    2.74
   1  -4   9    3.67    2.29
   1  -4   9    4.44    2.08
   1  -4  10   15.32    3.33
   1  -4  10   22.86    3.84
   1  -4  10   20.35    3.83
   1  -4  10   19.76    3.52
   1  -4  10   19.49    3.62
   1  -4  10   19.70    3.56
   1  -4  11   24.14    3.52
   1  -4  11   22.91    3.41
   1  -4  11   24.15    3.60
   1  -4  11   24.83    3.81
   1  -4  12    1.20    0.98
   1  -4  12    1.03    0.86
  -1  -3  13   -0.32    0.70
  -1  -3  13   -0.10    0.59
  -1  -3  12   18.07    2.95
  -1  -3  12   23.81    3.57
  -1  -3  12   29.21    4.16
  -1  -3  12   28.62    4.55
  -1  -3  12   22.54    3.47
  -1  -3  11   60.40    6.27
  -1  -3  11   58.54    7.13
  -1  -3  11   58.23    6.02
  -1  -3  11   60.55    8.26
  -1  -3  11   47.89    5.82
  -1  -3  11   51.43    5.68
  -1  -3  10   51.93    6.00
  -1  -3  10   38.86    5.18
  -1  -3  10   40.76    6.43
  -1  -3  10   47.15    5.77
  -1  -3  10   35.54    5.61
  -1  -3  10   44.54    7.51
  -1  -3   9  270.01   16.29
  -1  -3   9  262.32   12.30
  -1  -3   9  284.58   13.45
  -1  -3   9  285.67   18.84
  -1  -3   9  277.48   13.55
  -1  -3   9  287.02   13.75
  -1  -3   8  161.33    9.28
  -1  -3   8  172.53   12.82
  -1  -3   8  181.42   20.55
  -1  -3   8  168.00   20.48
  -1  -3   8  187.50   14.84
  -1  -3   8  177.34   11.57
  -1  -3   8  187.85   10.58
  -1  -3   8  152.90    9.02
  -1  -3   8  167.92   10.09
  -1  -3   7  950.00   42.86
  -1  -3   7 1002.72   44.80
  -1  -3   6 1038.42   40.86
  -1  -3   6 1042.29   41.07
  -1  -3   5  177.82   15.45
  -1  -3   5  191.22   16.19
  -1  -3   5  161.16   13.24
  -1  -3   4 2031.67   48.27
  -1  -3   4 2014.72   48.09
  -1  -3   4 1993.99   48.83
  -1  -3   4 1981.05   42.02
  -1  -3   3  234.80   15.53
  -1  -3   3  261.96   17.06
  -1  -3   3  247.08   15.22
   1  -3  -2 2233.15   35.60
  -1  -3   2 2284.54   47.80
  -1  -3   1 1022.86   31.11
   1  -3  -1 1017.54   24.12
   1  -3   0  996.98   25.17
  -1  -3   0 1016.97   30.08
   1  -3   0  993.91   26.36
  -1  -3  -1 3440.47   58.17
   1  -3   1 3376.75   49.48
   1  -3   1 3422.80   47.49
   1  -3   2  554.93   21.92
   1  -3   2  559.32   19.38
   1  -3   3 1024.41   32.77
   1  -3   3  985.96   28.27
   1  -3   4  981.83   32.11
   1  -3   4 1034.35   36.37
   1  -3   5  406.30   25.39
   1  -3   5  413.70   24.17
   1  -3   6  626.35   34.92
   1  -3   6  524.13   31.27
   1  -3   7   28.17    8.30
   1  -3   7   26.78    4.08
   1  -3   7   23.64    3.85
   1  -3   7   23.01    3.83
   1  -3   8  374.48   15.49
   1  -3   8  385.04   16.01
   1  -3   8  373.02   18.29
   1  -3   8  359.42   16.16
   1  -3   8  369.75   15.28
   1  -3   8  344.22   16.31
   1  -3   9  108.36    8.33
   1  -3   9  106.40    9.78
   1  -3   9  110.98    9.22
   1  -3   9  108.44    8.61
   1  -3   9   98.34    8.76
   1  -3   9  109.50    8.43
   1  -3   9  113.73    8.96
   1  -3  10    9.75    2.78
   1  -3  10    9.38    2.78
   1  -3  10   10.46    2.77
   1  -3  10   12.16    3.11
   1  -3  10   10.58    2.62
   1  -3  11   74.53    6.52
   1  -3  11   60.96    5.75
   1  -3  11   60.31    6.00
   1  -3  11   57.76    5.57
   1  -3  12    2.95    1.30
   1  -3  12    2.38    1.11
   1  -3  12    2.87    1.13
  -1  -2  13   31.61    3.58
  -1  -2  13   32.98    3.76
  -1  -2  12    3.08    1.98
  -1  -2  12    1.26    1.10
  -1  -2  12    1.84    1.48
  -1  -2  11   35.08    5.09
  -1  -2  11   44.32    6.40
  -1  -2  11   51.76    7.88
  -1  -2  11   47.62    5.59
  -1  -2  11   39.82    5.17
  -1  -2  10  112.49    8.73
  -1  -2  10  134.66    9.59
  -1  -2  10  114.21   11.91
  -1  -2  10  126.49    9.39
  -1  -2  10  112.95    9.15
  -1  -2  10  128.74   11.16
  -1  -2   9   44.04    5.10
  -1  -2   9   57.49    7.52
  -1  -2   9   50.53    5.78
  -1  -2   9   58.45    8.48
  -1  -2   9   55.79    6.05
  -1  -2   9   50.07    5.79
  -1  -2   8  706.54   38.96
  -1  -2   7  108.75   14.40
  -1  -2   7   81.36   12.00
  -1  -2   6 1017.09   37.76
  -1  -2   6 1023.97   37.58
  -1  -2   6 1076.46   39.80
  -1  -2   5 2331.30   50.71
  -1  -2   5 2346.72   50.50
  -1  -2   5 2381.34   52.22
  -1  -2   4  369.76   18.42
  -1  -2   4  368.16   18.62
  -1  -2   4  379.27   18.14
  -1  -2   3 3301.67   51.06
  -1  -2   3 3235.27   50.30
   1  -2  -2 4911.62   41.88
  -1  -2   2 5405.82   60.67
   1  -2  -1 1649.27   27.51
   1  -2  -1 1615.96   21.97
  -1  -2   0 5771.40   61.29
   1  -2   0 5794.17   46.96
   1  -2   0 5929.44   47.48
   1  -2   1  246.84    9.62
   1  -2   1  252.70   11.43
   1  -2   2 1765.84   34.46
   1  -2   2 1704.86   29.14
   1  -2   3 1049.23   29.95
   1  -2   3 1008.05   26.48
   1  -2   4  643.67   26.50
   1  -2   4  633.55   24.38
   1  -2   5 2653.17   58.48
   1  -2   5 2983.55   64.92
   1  -2   6  115.26   12.91
   1  -2   6  116.00   14.57
   1  -2   7  259.35   24.33
   1  -2   8  186.41   10.74
   1  -2   8  212.18   15.57
   1  -2   8  191.67   11.08
   1  -2   8  178.40   11.37
   1  -2   8  182.16   10.61
   1  -2   8  182.03   11.40
   1  -2   8  197.08   11.62
   1  -2   8  196.93   13.25
   1  -2   9   25.50    4.95
   1  -2   9   24.25    4.07
   1  -2   9   21.14    3.88
   1  -2   9   19.70    3.79
   1  -2   9   19.93    3.96
   1  -2   9   20.61    4.14
   1  -2  10   25.32    4.12
   1  -2  10   32.42    4.74
   1  -2  10   24.27    4.40
   1  -2  10   25.67    4.29
   1  -2  11    4.42    1.99
   1  -2  11    4.45    2.07
   1  -2  11    2.21    1.59
   1  -2  12    7.86    1.92
   1  -2  12    9.62    2.38
   1  -2  12    8.88    1.90
  -1  -1  13   12.93    2.31
  -1  -1  13   12.56    2.50
  -1  -1  12    1.63    1.73
  -1  -1  12    1.15    1.22
  -1  -1  11   12.60    2.99
  -1  -1  11   15.62    4.59
  -1  -1  11   14.42    3.69
  -1  -1  11   16.08    3.82
  -1  -1  10   48.18    5.96
  -1  -1  10   47.92    6.71
  -1  -1  10   53.61    6.04
  -1  -1  10   58.87    8.61
  -1  -1   9   42.94    6.40
  -1  -1   9   38.23    6.77
  -1  -1   9   40.70    5.55
  -1  -1   9   36.64    5.08
  -1  -1   9   33.85    4.62
  -1  -1   8  107.22   16.41
  -1  -1   7  131.14   15.79
  -1  -1   7  137.56   15.37
  -1  -1   6   75.81   10.64
  -1  -1   6   59.26    9.51
  -1  -1   6   70.14    9.28
  -1  -1   5   53.80    7.71
  -1  -1   5   41.09    6.85
  -1  -1   5   49.32    6.92
  -1  -1   4  772.52   25.60
  -1  -1   4  771.89   25.05
  -1  -1   4  752.94   23.42
  -1  -1   3  907.55   22.99
  -1  -1   3  929.51   24.90
   1  -1  -2   87.42    5.02
   1  -1  -1  432.60   11.44
  -1  -1   0  503.45   10.70
   1  -1   0  462.88   10.52
  -1  -1  -1  357.36   10.49
   1  -1   1  341.91    8.58
   1  -1   2  209.16    9.62
   1  -1   2  207.40    9.53
   1  -1   2  218.04   11.01
   1  -1   3 1161.93   29.49
   1  -1   3 1087.68   27.19
   1  -1   3 1128.96   27.84
   1  -1   4  143.95   12.05
   1  -1   4  135.26   11.34
   1  -1   4  122.20   10.14
   1  -1   5   32.01    5.84
   1  -1   5   37.46    7.30
   1  -1   5   25.53    5.33
   1  -1   6  393.06   26.25
   1  -1   6  323.25   22.53
   1  -1   7   36.48    9.32
   1  -1   8  106.03    7.98
   1  -1   8  105.04    8.66
   1  -1   8  110.59    8.53
   1  -1   8  105.02    8.28
   1  -1   8  107.42    8.19
   1  -1   8   79.75   15.24
   1  -1   8  113.59    9.85
   1  -1   9   13.39    3.23
   1  -1   9   12.55    3.21
   1  -1   9   15.21    3.47
   1  -1   9   14.70    3.52
   1  -1   9   12.57    3.46
   1  -1   9   17.31    3.71
   1  -1  10    4.93    2.03
   1  -1  10    4.52    1.72
   1  -1  10    2.86    1.79
   1  -1  10    4.04    1.50
   1  -1  11    0.24    1.08
   1  -1  11   -0.11    1.01
   1  -1  11    0.78    0.96
   1  -1  12    1.78    1.51
   1  -1  12    3.31    1.23
  -1   0  13   15.90    2.68
  -1   0  13   12.97    2.30
  -1   0  12   42.39    5.25
  -1   0  12   38.69    5.41
  -1   0  12   39.75    5.29
  -1   0  11  212.80   13.58
  -1   0  11  201.21   15.21
  -1   0  11  207.01   12.46
  -1   0  10  236.90   13.58
  -1   0  10  252.91   15.10
  -1   0  10  237.67   17.19
  -1   0   9   19.62    8.25
  -1   0   9   27.19    5.03
  -1   0   9   24.40    4.21
  -1   0   9   21.89    3.47
  -1   0   9   20.53    5.10
  -1   0   8  571.94   37.04
  -1   0   7  168.14   18.31
  -1   0   6   55.03    9.10
  -1   0   6   45.51    7.67
  -1   0   5 3718.90   56.77
  -1   0   5 3707.17   64.65
  -1   0   5 3555.39   62.30
  -1   0   4  211.54   13.37
  -1   0   4  204.19   11.14
   1   0  -4  183.46    9.01
   1   0  -3 1492.94   23.77
  -1   0   3 1495.18   24.07
  -1   0   2  360.87    9.21
   1   0  -2  357.33   10.12
  -1   0   1 4728.32   32.40
  -1   0   0 1632.14   14.80
   1   0   1  128.55    6.89
   1   0   2 9999.00   66.86
   1   0   2 9884.02   75.14
   1   0   3  284.80   15.47
   1   0   3  294.15   15.61
   1   0   3  255.93   12.03
   1   0   4 1344.66   38.20
   1   0   4 1248.50   36.22
   1   0   5  496.22   26.79
   1   0   5  473.44   25.35
   1   0   6  537.28   30.06
   1   0   6  637.18   34.48
   1   0   7  586.34   34.50
   1   0   7  663.39   38.79
   1   0   8  353.06   15.58
   1   0   8  333.20   15.01
   1   0   8  332.60   15.14
   1   0   8  336.09   14.15
   1   0   8  384.93   17.60
   1   0   9  149.50   10.46
   1   0   9  162.87   11.03
   1   0   9  170.33   11.11
   1   0   9  188.45   12.66
   1   0  10  353.46   16.04
   1   0  10  367.05   15.96
   1   0  11   28.32    4.64
   1   0  11   25.70    4.03
   1   0  11   24.12    3.97
   1   0  12   57.21    5.50
   1   0  12   39.95    4.19
  -1   1  13   12.36    2.54
  -1   1  12    2.67    1.60
  -1   1  12    1.89    1.19
  -1   1  11   14.80    3.71
  -1   1  11   20.72    4.14
  -1   1  11   11.29    2.56
  -1   1  11   13.50    3.21
  -1   1  10   44.28    5.13
  -1   1  10   58.08    6.79
  -1   1  10   53.27    7.16
  -1   1  10   48.16    7.79
  -1   1   9   39.91    7.01
  -1   1   9   42.36    6.17
  -1   1   9   27.85    3.98
  -1   1   9   35.56    5.44
  -1   1   8  117.38   17.07
  -1   1   7  161.66   18.27
  -1   1   6   47.31    8.64
   1   1  -5   44.59    6.17
  -1   1   5   50.68    7.80
  -1   1   5   32.87    6.27
  -1   1   4  785.55   25.99
   1   1  -4  818.33   24.84
   1   1  -3 1010.23   24.49
  -1   1   3  659.31   16.94
   1   1  -2   93.10    6.62
  -1   1   1  320.33    7.36
  -1   1   1  391.87   10.88
   1   1   0  512.97    8.83
  -1   1  -1  310.35   11.02
   1   1   1  386.78   13.10
   1   1   2  192.36    9.83
   1   1   3  608.18   18.86
   1   1   3 1093.13   31.67
   1   1   4  102.78   10.92
   1   1   5   41.53    7.69
   1   1   6  329.10   24.23
   1   1   7   14.47    5.12
   1   1   8   73.97   14.27
   1   1   8  100.71    8.27
   1   1   8  106.48    9.20
   1   1   8   89.20    7.99
   1   1   9   13.58    3.22
   1   1   9   13.78    3.22
   1   1  10    2.82    2.16
   1   1  10    3.22    1.94
   1   1  11    1.03    1.05
   1   1  11    1.10    1.37
   1   1  12    1.37    1.15
   1   1  12    1.25    0.94
  -1   2  13   38.58    4.15
  -1   2  12    3.13    1.82
  -1   2  11   39.66    4.70
  -1   2  11   40.97    6.06
  -1   2  11   44.19    5.74
  -1   2  11   45.92    5.97
  -1   2  10  138.24   11.05
  -1   2  10  121.47   10.42
  -1   2  10  129.20    9.92
  -1   2  10  103.82    7.76
  -1   2   9   51.44    6.77
  -1   2   9   59.58    7.00
  -1   2   9   46.06    7.36
  -1   2   9   39.28    4.75
   1   2  -9   51.28    5.95
  -1   2   8  631.50   39.08
  -1   2   7   86.97   13.55
   1   2  -6 1112.50   38.84
  -1   2   6 1099.43   43.41
  -1   2   5 2337.78   55.63
   1   2  -5 2284.99   51.51
   1   2  -4  370.54   19.10
  -1   2   4  374.96   19.58
  -1   2   3 3557.79   52.92
   1   2  -3 3344.10   51.46
  -1   2   2 5343.26   54.64
  -1   2   2 5375.90   54.29
  -1   2   1 1774.63   30.48
  -1   2   1 1709.38   25.01
   1   2   0 5929.03   48.65
   1   2   0 6376.28   55.58
  -1   2   0 6073.90   55.57
   1   2   1  285.94   10.23
  -1   2  -1  275.65   12.92
   1   2   1  295.19   11.97
  -1   2  -1  276.00   13.21
   1   2   2 1994.75   40.80
  -1   2  -2 1881.85   38.05
   1   2   2 1942.48   31.50
   1   2   3 1114.72   33.85
  -1   2  -3 1040.76   30.21
   1   2   3 1121.72   24.51
   1   2   4  605.31   27.68
   1   2   5 2900.10   66.87
   1   2   6  125.50   15.51
   1   2   7  229.20   22.83
   1   2   8  164.96   10.71
  -1   2  -8  157.32    9.87
   1   2   9   18.45    3.98
  -1   2  -9   17.71    3.45
   1   2   9   17.89    3.80
   1   2  10   30.08    5.03
   1   2  10   23.53    3.99
   1   2  11   -0.40    1.67
   1   2  11    0.56    1.42
   1   2  12    8.54    1.98
   1   2  12    8.46    2.08
  -1   3  13    1.35    1.12
  -1   3  12   33.38    4.36
  -1   3  11   73.42    7.31
   1   3 -11   61.33    6.18
  -1   3  10   38.10    5.65
  -1   3  10   38.86    4.78
   1   3 -10   44.68    5.78
  -1   3   9  223.42   11.10
  -1   3   9  278.49   15.20
   1   3  -9  267.36   13.82
  -1   3   9  272.22   15.31
  -1   3   8  164.13   20.31
  -1   3   8  193.88   12.33
  -1   3   8  146.39    8.71
  -1   3   7  826.36   41.90
  -1   3   6  916.25   40.80
   1   3  -6 1017.34   41.66
   1   3  -5  194.24   16.65
  -1   3   5  181.70   16.61
  -1   3   4 2033.36   49.98
   1   3  -4 2025.50   49.28
   1   3  -3  193.78   13.97
  -1   3   3  227.79   14.83
  -1   3   2 2254.29   37.70
   1   3  -2 2260.29   43.48
  -1   3   2 2350.33   45.07
  -1   3   1 1016.74   28.86
   1   3  -1  986.25   27.24
  -1   3   1 1076.73   26.22
   1   3  -1  989.92   27.36
  -1   3   1  986.20   22.40
  -1   3   0 1035.91   29.38
   1   3   0 1038.66   26.94
   1   3   0 1067.37   26.77
  -1   3   0 1106.76   27.88
  -1   3   0 1028.48   26.16
   1   3   1 3489.51   47.01
   1   3   1 3521.43   48.37
  -1   3  -1 3461.41   55.77
  -1   3  -1 3527.10   51.62
   1   3   2  532.24   18.40
  -1   3  -2  575.62   24.10
  -1   3  -2  572.13   23.11
  -1   3  -3 1065.24   35.16
   1   3   3 1064.39   35.51
  -1   3  -3 1021.30   34.06
   1   3   4  989.72   37.60
  -1   3  -4 1005.40   37.21
  -1   3  -4  991.38   36.83
  -1   3  -5  394.66   25.25
  -1   3  -5  385.31   25.42
   1   3   5  378.16   25.35
  -1   3  -6  532.72   32.68
   1   3   6  525.83   32.50
  -1   3  -6  523.99   31.39
   1   3   7   17.11    3.49
  -1   3  -7   14.94    2.92
   1   3   7   17.43    4.32
  -1   3  -7   17.55    6.71
  -1   3  -7   16.46    6.44
   1   3   8  372.86   16.19
  -1   3  -8  376.05   15.57
  -1   3  -9  111.87    8.72
   1   3   9  119.20   10.27
   1   3   9  101.23    8.50
   1   3  10    6.82    2.39
  -1   3 -10   10.85    2.94
   1   3  10   14.24    3.59
   1   3  11   72.52    6.40
   1   3  11   84.49    7.24
   1   3  12    3.77    1.39
   1   4 -12    7.54    1.91
  -1   4  12    8.83    2.55
  -1   4  11   23.12    4.03
   1   4 -11   24.00    4.01
  -1   4  10    1.74    1.54
   1   4 -10    2.67    1.87
   1   4  -9    1.95    1.52
  -1   4   9    4.51    2.30
  -1   4   9    2.13    1.23
  -1   4   8  110.76    7.70
  -1   4   8  133.36   10.84
  -1   4   7   51.49   10.79
   1   4  -7   77.57   14.69
  -1   4   6  394.57   28.11
   1   4  -6  393.35   27.88
  -1   4   5   89.11   12.66
   1   4  -5  105.17   13.18
   1   4  -4  153.58   14.74
   1   4  -4  165.00   16.92
  -1   4   4  142.00   14.05
  -1   4   3  980.30   33.50
   1   4  -3  973.36   34.58
  -1   4   2  306.90   16.42
   1   4  -2  342.07   20.46
  -1   4   2  335.18   19.41
   1   4  -2  305.73   18.28
   1   4  -1  892.88   29.92
   1   4  -1  998.45   32.87
  -1   4   1  919.49   31.97
  -1   4   1  956.84   26.93
  -1   4   0  378.31   17.88
   1   4   0  374.22   18.74
   1   4   0  375.19   19.04
  -1   4   0  385.97   19.00
  -1   4   0  353.72   20.06
   1   4   1  698.65   24.99
   1   4   1  735.04   26.25
  -1   4  -1  707.66   29.26
  -1   4  -1  695.77   26.89
  -1   4  -1  696.25   25.97
   1   4   2  922.98   27.87
  -1   4  -2 1056.59   37.84
   1   4   2 1010.56   30.96
  -1   4  -2  999.16   33.76
  -1   4  -3  719.14   31.76
  -1   4  -3  761.48   34.10
  -1   4  -4   13.85    5.20
  -1   4  -4   15.03    5.68
  -1   4  -5   84.74   13.13
  -1   4  -5   77.80   12.58
  -1   4  -6   86.94   14.17
  -1   4  -6   87.82   14.12
  -1   4  -7  187.82   10.35
   1   4   7  178.29   12.77
   1   4   7  182.62   11.32
   1   4   8   12.90    3.25
  -1   4  -8   11.77    2.82
   1   4   8   12.38    3.58
   1   4   9    6.74    2.50
   1   4   9    4.06    2.47
  -1   4  -9    6.75    2.09
  -1   4 -10   28.28    4.25
   1   4  10   26.70    4.65
   1   4  10   22.89    3.81
  -1   4 -11   27.86    3.71
   1   4  11   23.39    3.66
   1   5 -12   18.60    2.60
   1   5 -11   41.32    4.65
  -1   5  11   40.66    5.05
  -1   5  10   29.71    4.83
   1   5 -10   30.05    4.28
  -1   5   9  131.51   10.68
   1   5  -9  139.96    9.30
  -1   5   8   49.73    5.26
   1   5  -8   43.21    5.22
  -1   5   8   39.16    4.81
  -1   5   8   45.91    6.65
  -1   5   7  242.60   14.56
  -1   5   7  237.06   11.27
  -1   5   7  219.36   11.13
  -1   5   6  155.31   18.79
   1   5  -6  197.29   23.82
   1   5  -6  209.16   21.69
  -1   5   5  181.64   18.84
   1   5  -5  198.81   19.66
   1   5  -5  216.51   23.66
   1   5  -4 1226.06   45.77
  -1   5   4 1218.13   44.38
  -1   5   3  143.36   13.93
   1   5  -3  162.38   15.77
   1   5  -3  188.51   19.18
  -1   5   2 1556.59   47.32
   1   5  -2 1521.11   45.94
   1   5  -2 1671.61   53.01
   1   5  -1 1997.06   54.07
  -1   5   1 1938.38   53.04
   1   5  -1 1903.82   49.67
   1   5   0  362.82   21.90
  -1   5   0  365.69   23.31
   1   5   0  362.32   21.26
   1   5   1 1979.24   50.24
   1   5   1 1935.94   47.74
   1   5   2   25.24    6.21
  -1   5  -2   24.36    6.12
  -1   5  -2   24.91    6.74
  -1   5  -3 1314.50   50.90
  -1   5  -3 1202.90   45.61
  -1   5  -4  670.47   36.79
  -1   5  -4  679.40   39.01
  -1   5  -5  113.90   16.26
  -1   5  -5  117.97   17.02
  -1   5  -6  413.81   14.75
   1   5   6  454.97   18.06
   1   5   7  132.11    9.80
  -1   5  -7  130.92    8.56
   1   5   8  109.30    8.89
   1   5   8  107.34   10.23
  -1   5  -8  117.48    8.26
  -1   5  -9   33.67    4.42
   1   5   9   31.66    4.62
   1   5   9   40.42    5.96
   1   5  10    5.33    2.16
  -1   5 -10    6.17    2.01
  -1   5 -11   52.52    4.59
   1   5  11   37.30    4.02
   1   6 -11    2.62    1.20
   1   6 -10   46.34    4.83
   1   6  -9   15.69    3.06
  -1   6   9   16.89    4.00
   1   6  -8   29.51    4.23
  -1   6   8   26.62    4.09
  -1   6   8   22.01    4.56
   1   6  -7  145.87    9.11
  -1   6   7  145.82    9.23
  -1   6   6    3.35    1.55
  -1   6   6    3.81    1.87
  -1   6   5   18.66    3.28
   1   6  -5   23.22    9.46
   1   6  -5   21.92    7.20
   1   6  -4  233.12   21.61
   1   6  -4  265.51   27.42
   1   6  -3   45.33    9.54
   1   6  -3   50.65   11.56
   1   6  -2   50.14   10.37
  -1   6   2   47.83    9.60
   1   6  -2   42.33    8.77
  -1   6   1  277.56   22.88
   1   6  -1  278.48   21.48
   1   6  -1  302.11   23.98
   1   6   0   61.59    9.77
   1   6   0   69.37   11.03
  -1   6   0   79.60   12.09
   1   6   1   14.97    5.21
  -1   6  -1   19.06    6.56
  -1   6  -2  191.17   20.50
  -1   6  -3    7.81    5.11
  -1   6  -4   25.79    8.54
   1   6   5    3.34    2.15
  -1   6  -5    1.29    1.03
  -1   6  -6   41.51    4.66
   1   6   6   25.45    5.24
   1   6   7   39.55    6.39
  -1   6  -7   62.13    5.78
   1   6   8   26.66    5.03
  -1   6  -8   27.63    3.89
   1   6   9   26.53    4.65
  -1   6  -9   30.86    3.94
  -1   6 -10    2.98    1.36
   1   7 -11   19.25    2.35
   1   7 -10   65.16    5.10
   1   7  -9   76.54    6.00
   1   7  -8   25.99    3.83
   1   7  -7  121.06    8.17
   1   7  -6  136.33    8.74
  -1   7   6  139.82    8.94
  -1   7   5   94.76    7.34
  -1   7   5   98.81    8.88
   1   7  -5   94.72    7.23
  -1   7   4  380.07   16.76
  -1   7   4  414.33   15.17
   1   7  -4  385.64   14.49
   1   7  -3    9.65    5.44
  -1   7   3   19.63    3.48
   1   7  -3   15.68    3.06
   1   7  -3   11.60    4.87
  -1   7   3   15.20    3.34
  -1   7   3   14.92    2.92
   1   7  -2  371.47   27.95
   1   7  -2  415.79   33.05
   1   7  -2  361.12   13.72
  -1   7   2  396.12   29.93
  -1   7   1  478.77   32.84
   1   7  -1  460.40   32.98
   1   7  -1  468.27   30.70
  -1   7   0  267.93   25.07
  -1   7  -1  866.02   46.49
  -1   7  -1  757.96   18.84
  -1   7  -2   64.55    7.57
  -1   7  -2   53.64    5.14
  -1   7  -2   60.40   13.06
   1   7   2   49.99    5.20
  -1   7  -3  228.47   10.81
  -1   7  -4  274.39   11.92
  -1   7  -4  286.94   12.36
  -1   7  -5   37.93    4.64
  -1   7  -6  154.20    9.03
  -1   7  -7    4.81    1.77
  -1   7  -8   38.23    4.29
  -1   7  -9  163.35    7.98
  -1   7 -10    3.87    1.19
   1   8 -10   10.43    1.73
   1   8  -9   39.75    3.84
   1   8  -8   42.33    4.35
   1   8  -7   12.27    2.51
   1   8  -6   26.11    3.84
   1   8  -5  145.79    8.95
  -1   8   5  151.90   10.65
   1   8  -5  155.43    9.13
  -1   8   4   33.13    4.96
   1   8  -4   35.62    4.55
  -1   8   3   90.52    8.13
  -1   8   3  100.59    7.19
   1   8  -3   97.88    7.36
   1   8  -2   34.42    4.71
  -1   8   2   36.95    5.21
  -1   8   2   46.68    5.01
   1   8  -2   41.52    4.80
  -1   8   1  158.46    9.90
  -1   8   1  137.87   10.20
   1   8  -1  164.74    9.60
  -1   8   1  162.88    9.19
   1   8   0    7.69    2.08
  -1   8   0    8.64    2.93
  -1   8   0    8.57    2.22
  -1   8   0   11.73    2.89
  -1   8  -1   31.72    3.98
   1   8   1   32.25    4.32
  -1   8  -1   35.44    5.51
  -1   8  -1   29.07    4.39
  -1   8  -2  297.90   14.16
  -1   8  -2  263.47   11.58
   1   8   2  275.28   12.19
  -1   8  -2  291.72   16.22
  -1   8  -3   13.79    2.72
  -1   8  -3   13.78    3.23
  -1   8  -3   11.56    3.29
  -1   8  -4   94.95    7.11
  -1   8  -4   84.07    9.61
  -1   8  -5  162.97    9.09
  -1   8  -6   45.45    4.75
  -1   8  -7   56.01    4.94
  -1   8  -8    3.97    1.38
  -1   8  -8    3.85    1.86
  -1   8  -8    2.52    1.23
  -1   8  -9   33.63    3.12
  -1   8  -9   31.64    2.97
   1   9  -9    7.02    1.51
   1   9  -8   -0.69    1.28
   1   9  -8    0.74    0.72
   1   9  -7   60.20    5.74
   1   9  -7   59.86    4.89
   1   9  -6    7.39    2.02
   1   9  -5   67.68    6.74
   1   9  -5   67.06    5.61
   1   9  -4   43.63    5.46
   1   9  -4   48.56    4.98
   1   9  -3   20.87    3.94
   1   9  -3   25.25    3.86
  -1   9   3   19.65    3.26
   1   9  -2  131.07    8.44
  -1   9   2  131.65    8.43
   1   9  -1   27.12    4.05
  -1   9   1   22.67    3.50
  -1   9   0    9.60    2.31
  -1   9   0    5.16    2.44
   1   9   0    6.43    2.39
  -1   9  -1   64.53    5.75
  -1   9  -1   68.45    6.93
   1   9   1   66.77    6.10
  -1   9  -2   21.18    3.33
  -1   9  -2   23.32    4.36
   1   9   2   21.49    3.32
  -1   9  -3   60.95    5.57
  -1   9  -3   61.40    6.57
  -1   9  -4   73.48    5.96
  -1   9  -4   87.87    7.57
  -1   9  -5   11.72    2.67
  -1   9  -5    5.37    2.07
  -1   9  -5    8.97    2.05
  -1   9  -6   85.32    6.74
  -1   9  -7   37.90    3.45
  -1   9  -7   52.85    4.71
  -1   9  -8   10.33    1.80
   1  10  -7   20.10    2.56
   1  10  -6   27.44    3.37
   1  10  -5   57.44    5.26
   1  10  -5   98.12    6.03
   1  10  -4   -1.70    1.19
   1  10  -4    1.35    2.30
  -1  10   3  175.09    8.73
   1  10  -3  196.25    9.50
   1  10  -2   83.79    6.42
  -1  10   2   86.16    6.41
  -1  10   1  135.08    8.09
   1  10  -1  131.67    8.09
  -1  10   0  263.08   11.20
   1  10   0  275.86   11.79
   1  10   1   12.76    2.62
  -1  10  -1    9.85    2.46
  -1  10  -2  234.56   12.00
  -1  10  -2  227.63   10.14
  -1  10  -3   42.97    5.21
  -1  10  -3   43.32    4.37
  -1  10  -4   68.53    6.11
  -1  10  -4   53.36    4.45
  -1  10  -5   71.80    5.82
  -1  10  -6    4.97    1.57
   1  11  -4    1.87    1.02
   1  11  -3    9.52    2.06
   1  11  -2    1.84    1.17
  -1  11   2   -1.98    1.55
   1  11  -1    7.68    1.95
  -1  11   1    2.72    1.15
   1  11   0   10.46    2.26
  -1  11   0    7.95    1.73
  -1  11  -1   -2.44    1.83
   1  11   1    0.84    1.04
  -1  11  -2   30.10    3.22
  -1  11  -3    0.97    1.08
  -2 -10   5   38.54    3.57
  -2  -9   9    2.66    1.15
  -2  -9   9   -0.17    0.71
  -2  -9   8   23.81    3.08
  -2  -9   7   15.36    2.39
  -2  -9   6   20.51    3.01
   2  -9   7   10.78    1.97
   2  -9   7   10.29    2.15
  -2  -8  10   30.82    3.15
  -2  -8  10   28.80    3.26
  -2  -8  10   21.60    2.73
  -2  -8  10   30.13    3.25
  -2  -8   9    6.84    2.16
  -2  -8   9    5.33    1.72
  -2  -8   9    4.22    1.31
  -2  -8   9    6.07    1.72
  -2  -8   9    4.48    1.81
  -2  -8   8   71.48    6.15
  -2  -8   8   78.42    5.67
  -2  -8   7   59.74    5.26
  -2  -8   7   72.61    6.03
   2  -8   6   32.12    4.00
   2  -8   7   42.92    4.13
   2  -8   7   37.21    4.14
   2  -8   8   11.06    2.01
   2  -8   8   12.15    2.15
   2  -8   8   16.39    2.61
  -2  -7  11    6.19    1.66
  -2  -7  11    6.15    1.48
  -2  -7  11    7.22    1.76
  -2  -7  11    4.78    1.35
  -2  -7  10   46.78    4.34
  -2  -7  10   42.43    4.57
  -2  -7  10   48.36    4.53
  -2  -7  10   45.25    4.63
  -2  -7   9   40.41    4.82
  -2  -7   9   43.29    4.49
  -2  -7   9   40.72    4.88
  -2  -7   9   48.64    5.05
  -2  -7   9   54.56    5.18
  -2  -7   8   25.37    3.64
  -2  -7   8   24.95    4.24
  -2  -7   8   29.95    4.13
  -2  -7   7  121.28    9.62
  -2  -7   7  142.83    8.67
  -2  -7   2  596.61   41.04
  -2  -7   2  582.37   40.52
  -2  -7   1  246.40   26.62
   2  -7   0  454.41   32.99
  -2  -7   0  538.49   40.13
   2  -7   1  302.55   27.73
   2  -7   6   93.09    7.36
   2  -7   6   94.85    8.13
   2  -7   7    2.26    1.49
   2  -7   7   -0.35    1.25
   2  -7   7    0.66    1.13
   2  -7   7    0.16    1.34
   2  -7   8   75.49    5.85
   2  -7   8   78.10    6.40
   2  -7   8   75.60    6.19
   2  -7   8   74.51    6.25
   2  -7   8   75.67    6.26
   2  -7   8   76.03    6.68
   2  -7   9   13.38    2.36
   2  -7   9   11.92    2.19
   2  -7   9   11.38    2.16
   2  -7   9   15.33    2.61
   2  -7   9   11.94    2.17
  -2  -6  12   10.76    1.86
  -2  -6  12   10.40    1.87
  -2  -6  11    0.91    1.07
  -2  -6  11    0.38    1.06
  -2  -6  11    1.56    1.92
  -2  -6  11    0.30    1.00
  -2  -6  10   12.39    3.05
  -2  -6  10   13.32    2.75
  -2  -6  10   14.00    2.77
  -2  -6  10   14.16    2.87
  -2  -6   9   48.88    5.29
  -2  -6   9   48.35    5.08
  -2  -6   8   21.71    3.48
  -2  -6   8   22.11    3.64
  -2  -6   8   23.34    3.92
  -2  -6   8   23.40    4.45
  -2  -6   7   28.75    4.11
  -2  -6   7   29.34    4.89
  -2  -6   6   56.56    6.60
  -2  -6   5  261.08   25.15
  -2  -6   5  251.68   24.18
  -2  -6   4   22.56    7.59
  -2  -6   4   23.01    7.48
  -2  -6   3   16.01    6.82
  -2  -6   3   14.78    6.81
  -2  -6   2  343.17   28.25
   2  -6  -1  127.65   15.51
  -2  -6   1  138.76   18.11
   2  -6   0   74.75   12.33
  -2  -6   0   86.18   14.89
   2  -6   1  436.69   30.84
  -2  -6  -1  425.17   34.33
   2  -6   2  115.69   16.60
  -2  -6  -2  107.51   18.12
   2  -6   2  118.18   15.11
   2  -6   3   70.79   12.67
   2  -6   3   66.27   12.95
   2  -6   6   89.68    8.28
   2  -6   6   96.56    7.74
   2  -6   7   23.83    3.87
   2  -6   7   26.10    4.06
   2  -6   7   27.52    4.61
   2  -6   8   62.49    6.59
   2  -6   8   68.29    6.48
   2  -6   8   67.46    6.18
   2  -6   8   76.74    7.05
   2  -6   8   65.74    6.03
   2  -6   8   67.90    6.65
   2  -6   8   69.45    6.64
   2  -6   9   25.86    3.78
   2  -6   9   24.77    3.62
   2  -6   9   23.82    3.61
   2  -6   9   24.76    3.63
   2  -6   9   24.06    3.59
   2  -6  10    1.90    1.10
   2  -6  10    1.08    0.84
   2  -6  10    1.15    0.87
   2  -6  10    1.67    1.11
   2  -6  10    1.48    0.99
   2  -6  10    1.04    0.76
  -2  -5  12   26.34    3.39
  -2  -5  12   23.66    3.04
  -2  -5  12   25.06    3.12
  -2  -5  11    2.36    1.72
  -2  -5  11    3.16    1.58
  -2  -5  11    5.05    1.97
  -2  -5  11    2.97    1.49
  -2  -5  11    3.14    1.55
  -2  -5  11    3.92    1.72
  -2  -5  10  100.08    7.62
  -2  -5  10   93.25   10.13
  -2  -5  10  104.83    8.07
  -2  -5  10   88.16    6.95
  -2  -5  10   98.22    7.83
  -2  -5  10   94.81    8.96
  -2  -5   9  116.50    8.02
  -2  -5   9  124.72    8.73
  -2  -5   9  107.91    8.10
  -2  -5   9  103.78   10.06
  -2  -5   9  118.64    9.75
  -2  -5   9  102.43   11.30
  -2  -5   9  106.89    7.88
  -2  -5   8   54.78    5.78
  -2  -5   8   54.76    8.40
  -2  -5   8   59.31    6.99
  -2  -5   8   62.16    7.88
  -2  -5   8   67.28    6.11
  -2  -5   8   58.22    6.01
  -2  -5   7  273.59   14.58
  -2  -5   7  239.21   16.87
  -2  -5   7  250.95   11.98
  -2  -5   6  139.21   17.48
  -2  -5   6  138.97   17.45
  -2  -5   5  535.59   32.72
  -2  -5   5  564.85   34.34
  -2  -5   5  562.98   33.44
  -2  -5   4  728.28   35.92
  -2  -5   4  719.63   36.37
  -2  -5   4  780.95   39.65
  -2  -5   3    7.78    3.42
  -2  -5   3    6.56    3.56
  -2  -5   2 1372.20   50.55
   2  -5  -2 1317.37   42.78
  -2  -5   2 1335.51   47.25
  -2  -5   1  246.40   21.63
   2  -5  -1  275.64   20.34
  -2  -5   1  271.72   21.72
  -2  -5   0  586.44   33.37
  -2  -5   0  633.89   35.70
   2  -5   0  651.74   32.63
   2  -5   1  935.62   35.75
   2  -5   1 1005.72   42.30
  -2  -5  -1  936.87   44.12
  -2  -5  -2  343.53   27.96
   2  -5   2  353.91   26.24
   2  -5   2  347.69   23.74
  -2  -5  -3  539.88   36.54
   2  -5   3  619.76   36.04
   2  -5   3  608.56   33.41
   2  -5   4   68.03   12.64
   2  -5   4   68.75   12.08
  -2  -5  -4   78.50   15.13
  -2  -5  -5  372.16   33.15
   2  -5   6  178.69   10.63
   2  -5   6  189.82   11.28
   2  -5   6  189.49   11.90
   2  -5   7    4.33    2.10
   2  -5   7    2.77    1.89
   2  -5   7    4.91    2.32
   2  -5   7    7.50    2.74
   2  -5   8   94.13    8.23
   2  -5   8   97.57    8.10
   2  -5   8   88.82    7.47
   2  -5   8   88.38    8.24
   2  -5   8  108.71    8.32
   2  -5   8   89.29    7.59
   2  -5   9   87.03    7.22
   2  -5   9   81.32    7.00
   2  -5   9   81.71    7.12
   2  -5   9   87.73    7.35
   2  -5   9   86.82    7.42
   2  -5  10   23.31    3.38
   2  -5  10   29.78    3.80
   2  -5  10   26.77    3.71
   2  -5  10   27.59    3.80
   2  -5  10   20.33    2.98
   2  -5  10   27.90    3.78
   2  -5  11   11.52    1.90
   2  -5  11   10.79    1.90
   2  -5  11    9.07    1.83
  -2  -4  13    4.95    1.66
  -2  -4  12   27.51    4.26
  -2  -4  12   20.89    3.11
  -2  -4  12   23.70    3.43
  -2  -4  12   23.68    3.49
  -2  -4  11    8.68    2.52
  -2  -4  11    5.43    2.13
  -2  -4  11    8.55    2.52
  -2  -4  11   10.94    3.61
  -2  -4  11    9.47    2.40
  -2  -4  11   10.39    2.97
  -2  -4  10  111.62    8.59
  -2  -4  10  105.45    7.77
  -2  -4  10  107.48   11.38
  -2  -4  10  112.74    8.56
  -2  -4  10  115.43   10.58
  -2  -4  10  112.15    8.57
  -2  -4   9   54.09    5.95
  -2  -4   9   56.07    6.21
  -2  -4   9   63.79    6.30
  -2  -4   9   59.85    7.83
  -2  -4   9   60.39    5.94
  -2  -4   9   62.58    7.13
  -2  -4   9   53.28    8.34
  -2  -4   9   54.66    5.65
  -2  -4   8  359.95   14.61
  -2  -4   8  360.37   13.69
  -2  -4   8  376.18   21.50
  -2  -4   8  351.95   18.62
  -2  -4   8  355.67   14.23
  -2  -4   8  395.07   17.49
  -2  -4   7  197.58   20.61
  -2  -4   7  190.96   20.27
  -2  -4   6   83.05   12.29
  -2  -4   6   83.60   12.75
  -2  -4   5  504.09   29.76
  -2  -4   5  495.03   29.55
  -2  -4   5  500.45   28.95
  -2  -4   4  464.33   28.29
  -2  -4   4  465.65   26.47
  -2  -4   4  457.03   26.42
  -2  -4   3  430.68   25.35
  -2  -4   3  421.96   24.49
   2  -4  -2  482.11   22.68
  -2  -4   2  462.71   25.96
  -2  -4   2  503.03   26.49
   2  -4  -1  215.02   15.89
   2  -4  -1  201.61   11.99
  -2  -4   1  210.09   17.50
  -2  -4   1  200.52   17.16
  -2  -4   0  311.02   22.35
   2  -4   0  289.92   16.20
  -2  -4   0  313.41   21.81
   2  -4   0  325.55   20.44
   2  -4   1  124.47   11.57
  -2  -4  -1  119.56   14.04
   2  -4   1  125.84   13.77
  -2  -4  -2  725.64   36.78
   2  -4   2  729.27   30.48
   2  -4   2  687.71   33.00
   2  -4   3  267.86   21.53
   2  -4   3  271.23   20.52
  -2  -4  -3  251.47   22.74
   2  -4   4  123.10   15.00
   2  -4   4  122.59   15.85
   2  -4   5  221.76   21.96
   2  -4   5  211.57   21.84
   2  -4   6   11.34    3.01
   2  -4   6    4.50    2.17
   2  -4   6    2.95    2.73
   2  -4   6    6.52    2.14
   2  -4   6    4.50    2.04
   2  -4   7  205.56   11.74
   2  -4   7  200.61   11.45
   2  -4   7  213.91   12.61
   2  -4   7  227.97   12.41
   2  -4   8   36.60    5.08
   2  -4   8   42.44    5.59
   2  -4   8   39.59    5.25
   2  -4   8   35.74    5.04
   2  -4   8   38.54    5.71
   2  -4   8   43.09    5.49
   2  -4   9   14.29    3.17
   2  -4   9   14.76    3.33
   2  -4   9   11.16    3.07
   2  -4   9   13.43    3.77
   2  -4   9   13.89    3.29
   2  -4  10   28.08    4.08
   2  -4  10   26.32    3.88
   2  -4  10   30.34    4.13
   2  -4  10   20.12    3.62
   2  -4  10   31.28    4.18
   2  -4  10   29.84    4.00
   2  -4  11    2.95    1.33
   2  -4  11    1.25    1.03
   2  -4  11    3.81    1.32
  -2  -3  13    9.74    2.30
  -2  -3  13   17.72    2.76
  -2  -3  12   44.74    5.81
  -2  -3  12   39.61    4.53
  -2  -3  12   38.30    4.55
  -2  -3  12   44.26    6.56
  -2  -3  11   38.35    5.02
  -2  -3  11   33.30    6.16
  -2  -3  11   38.91    4.95
  -2  -3  11   35.90    5.86
  -2  -3  11   31.69    4.58
  -2  -3  11   34.75    4.60
  -2  -3  10   53.81    7.33
  -2  -3  10   56.14    6.36
  -2  -3  10   59.68    6.24
  -2  -3  10   52.23    5.95
  -2  -3  10   46.53    5.25
  -2  -3  10   52.33    8.27
  -2  -3   9  179.66   11.76
  -2  -3   9  182.10   13.55
  -2  -3   9  157.34    9.32
  -2  -3   9  171.03   10.57
  -2  -3   9  165.99   14.57
  -2  -3   9  174.42    9.96
  -2  -3   9  171.36   10.46
  -2  -3   8  108.78    7.57
  -2  -3   8   96.73    9.65
  -2  -3   8   92.34   14.20
  -2  -3   8   99.58    7.07
  -2  -3   8   99.63   10.88
  -2  -3   8  106.16    7.77
  -2  -3   8  107.46    8.93
  -2  -3   8  102.52   15.43
  -2  -3   7  311.95   24.71
  -2  -3   7  307.94   23.98
  -2  -3   6  170.28   16.37
  -2  -3   6  182.32   17.08
  -2  -3   6  180.68   17.21
  -2  -3   5  565.78   29.41
  -2  -3   5  568.65   28.01
  -2  -3   5  556.88   27.85
  -2  -3   5  532.67   27.60
  -2  -3   4  706.03   30.25
  -2  -3   4  745.88   31.94
  -2  -3   4  677.29   28.83
  -2  -3   3  406.64   21.84
   2  -3  -3  390.05   17.41
  -2  -3   3  424.55   22.51
   2  -3  -2 2163.30   42.31
  -2  -3   2 1995.81   47.24
  -2  -3   2 2072.52   49.19
   2  -3  -1  156.31   12.00
  -2  -3   1  152.99   13.38
   2  -3  -1  133.12    8.45
  -2  -3   1  168.13   14.29
   2  -3  -1  143.28    8.37
   2  -3   0 2175.25   46.64
  -2  -3   0 2099.04   50.37
   2  -3   0 2085.44   37.32
   2  -3   1 1876.74   45.58
  -2  -3  -1 1838.19   49.51
   2  -3   1 1769.12   38.82
   2  -3   2  152.90   13.81
   2  -3   2  149.78   12.45
   2  -3   3 2159.53   52.26
   2  -3   3 2164.06   54.75
   2  -3   4  225.47   18.82
   2  -3   4  216.42   18.58
   2  -3   5  126.67   15.31
   2  -3   5  142.82   16.58
   2  -3   6  388.96   28.54
   2  -3   6  453.96   32.72
   2  -3   7  213.27   11.73
   2  -3   7  211.47   12.13
   2  -3   7  216.22   11.77
   2  -3   7  205.22   11.27
   2  -3   7  211.15   12.59
   2  -3   8  194.84   11.28
   2  -3   8  202.77   11.93
   2  -3   8  213.92   12.18
   2  -3   8  188.37   11.24
   2  -3   8  210.63   12.90
   2  -3   8  194.89   11.53
   2  -3   9    4.10    1.74
   2  -3   9    7.03    2.24
   2  -3   9    1.20    1.34
   2  -3   9    4.28    1.93
   2  -3   9    4.38    1.84
   2  -3  10   45.83    5.29
   2  -3  10   51.86    5.60
   2  -3  10   53.00    5.77
   2  -3  10   48.52    5.28
   2  -3  10   49.57    5.62
   2  -3  10   39.00    5.05
   2  -3  11   25.83    3.54
   2  -3  11   21.96    3.18
   2  -3  11   27.19    3.56
  -2  -2  13    7.00    2.28
  -2  -2  13    6.02    1.93
  -2  -2  12    9.38    2.82
  -2  -2  12    4.61    1.81
  -2  -2  12    8.27    2.92
  -2  -2  12    8.23    3.19
  -2  -2  11   81.22    7.37
  -2  -2  11   73.19    6.94
  -2  -2  11   72.46    8.28
  -2  -2  11   76.31    9.54
  -2  -2  10    1.84    1.45
  -2  -2  10    1.86    1.72
  -2  -2  10    6.70    2.60
  -2  -2  10    4.85    2.10
  -2  -2  10    9.07    3.86
  -2  -2  10    4.28    1.90
  -2  -2   9  130.01    8.43
  -2  -2   9  147.99   10.79
  -2  -2   9  145.20   13.16
  -2  -2   9  136.71    9.24
  -2  -2   9  148.79    9.18
  -2  -2   9  145.01   11.88
  -2  -2   9  153.03    9.96
  -2  -2   8   71.28   13.10
  -2  -2   8   60.01   11.59
  -2  -2   7   93.77   13.39
  -2  -2   7   81.18   12.39
  -2  -2   7   73.56   11.00
  -2  -2   6 1874.13   52.40
  -2  -2   6 1754.08   48.08
  -2  -2   6 1838.00   53.26
  -2  -2   5  682.94   29.76
  -2  -2   5  613.36   28.64
  -2  -2   5  646.15   28.18
  -2  -2   5  586.88   25.76
  -2  -2   4  687.13   26.65
  -2  -2   4  684.09   27.46
  -2  -2   4  751.39   28.27
  -2  -2   3 1684.86   40.98
  -2  -2   3 1729.38   39.66
   2  -2  -3 1752.81   34.36
  -2  -2   2 1313.81   33.88
  -2  -2   2 1331.07   35.67
   2  -2  -2 1266.40   29.56
  -2  -2   1 1113.33   30.79
  -2  -2   1 1123.96   32.59
   2  -2  -1 1153.92   28.67
  -2  -2   0  888.20   20.32
   2  -2   0  956.94   27.11
   2  -2   0  880.24   21.68
  -2  -2   0  903.02   29.60
   2  -2   1 1509.61   35.70
   2  -2   1 1476.24   32.07
   2  -2   2 1312.97   35.90
  -2  -2  -2 1204.96   29.12
   2  -2   2 1285.09   33.64
   2  -2   3    8.25    3.56
  -2  -2  -3    4.04    2.08
   2  -2   3    2.90    2.58
   2  -2   4 1173.84   39.17
  -2  -2  -4 1090.70   36.11
   2  -2   5  431.84   27.60
   2  -2   5  397.07   24.61
   2  -2   6   40.79    9.29
   2  -2   7  262.05   13.01
   2  -2   7  256.56   12.78
   2  -2   7  240.69   12.00
   2  -2   7  247.25   12.04
   2  -2   7  270.68   13.85
   2  -2   7  252.28   14.71
   2  -2   7  249.85   12.46
   2  -2   8  232.27   12.74
   2  -2   8  244.37   12.95
   2  -2   8  214.16   12.24
   2  -2   8  240.50   13.30
   2  -2   8  206.10   11.79
   2  -2   8  203.34   11.39
   2  -2   9   14.69    3.43
   2  -2   9   11.09    3.10
   2  -2   9   13.92    3.35
   2  -2   9   13.89    3.34
   2  -2   9   14.43    3.40
   2  -2  10   27.33    4.41
   2  -2  10   27.08    4.06
   2  -2  10   20.45    3.56
   2  -2  10   25.83    4.14
   2  -2  10   23.97    4.27
   2  -2  11    2.75    1.40
   2  -2  11    0.77    0.99
   2  -2  11    0.92    1.07
   2  -2  12   20.72    2.76
  -2  -1  13    3.97    1.87
  -2  -1  13    4.53    1.78
  -2  -1  12    2.75    1.92
  -2  -1  12    1.36    1.70
  -2  -1  12    2.28    1.96
  -2  -1  11   51.05    5.81
  -2  -1  11   63.53    6.58
  -2  -1  11   69.00    8.07
  -2  -1  11   64.32    8.85
  -2  -1  10    1.47    1.04
  -2  -1  10    4.76    2.08
  -2  -1  10    4.81    1.85
  -2  -1  10    4.69    2.72
  -2  -1  10    5.21    2.94
  -2  -1   9  165.39   10.13
  -2  -1   9  173.51   22.44
  -2  -1   9  200.99   13.73
  -2  -1   9  151.57    9.05
  -2  -1   9  208.90   15.74
  -2  -1   9  197.96   11.37
  -2  -1   9  179.56   10.17
  -2  -1   8  169.84   19.86
  -2  -1   7  445.96   28.66
  -2  -1   7  431.26   28.26
  -2  -1   6  524.79   27.41
  -2  -1   6  464.45   22.68
  -2  -1   6  529.16   28.15
  -2  -1   5 1020.62   33.74
  -2  -1   5  972.80   29.10
  -2  -1   5 1026.42   35.17
  -2  -1   4  883.20   29.92
  -2  -1   4  831.54   28.21
   2  -1  -4  817.10   19.89
  -2  -1   4  845.43   27.57
  -2  -1   4  828.85   24.98
  -2  -1   3 1292.25   30.87
  -2  -1   3 1347.27   33.50
   2  -1  -2 1674.95   32.82
  -2  -1   2 1657.52   32.93
   2  -1  -1 1544.26   30.83
  -2  -1   1 1484.42   29.69
  -2  -1   1 1585.02   30.35
  -2  -1   0 2205.27   36.00
   2  -1   0 2192.62   34.47
  -2  -1  -1  949.18   24.73
   2  -1   1  968.91   26.38
   2  -1   1  966.55   25.91
  -2  -1  -2 1056.88   29.04
   2  -1   2 1024.74   29.85
   2  -1   2 1057.81   29.64
   2  -1   3  150.61   12.69
  -2  -1  -3  156.12   12.68
   2  -1   3  139.77   11.64
   2  -1   4  473.65   22.92
  -2  -1  -4  509.15   25.62
   2  -1   4  513.47   26.45
   2  -1   5  172.77   15.11
  -2  -1  -5  208.38   18.47
   2  -1   5  200.76   18.50
  -2  -1  -6   97.97   14.19
   2  -1   6   97.20   14.87
   2  -1   7   61.00    6.55
   2  -1   7   55.65    5.89
   2  -1   7   57.74    6.12
   2  -1   7   53.87    5.94
   2  -1   7   51.32    5.53
   2  -1   7   42.61   10.40
   2  -1   7   58.48    7.00
   2  -1   7   52.06    5.69
   2  -1   8    4.34    1.89
   2  -1   8    2.36    1.65
   2  -1   8    1.42    1.14
   2  -1   8    1.16    1.20
   2  -1   9   11.10    3.00
   2  -1   9   14.51    3.36
   2  -1   9   11.32    3.19
   2  -1   9   10.82    2.79
   2  -1   9    7.54    2.55
   2  -1  10    7.49    2.29
   2  -1  10    4.48    1.94
   2  -1  10    6.11    1.96
   2  -1  11    1.33    1.08
   2  -1  11    2.13    1.40
   2  -1  11    3.34    1.56
   2  -1  12    2.75    0.97
  -2   0  14    6.72    1.65
  -2   0  13   97.64    7.12
  -2   0  13   77.23    6.88
  -2   0  12    2.14    1.95
  -2   0  12    1.52    1.69
  -2   0  12    4.38    1.85
  -2   0  12    1.70    1.53
  -2   0  11   94.69    8.53
  -2   0  11   83.07   10.08
  -2   0  11   80.29    6.84
  -2   0  11   86.15    9.05
  -2   0  10  313.14   14.95
  -2   0  10  332.51   20.20
  -2   0  10  333.16   17.88
  -2   0   9  187.41   11.32
  -2   0   9  175.49    9.85
  -2   0   9  217.77   25.69
  -2   0   9  217.87   15.94
  -2   0   9  227.68   14.41
  -2   0   8  902.76   46.33
  -2   0   7   72.95   11.83
  -2   0   6  653.07   31.85
  -2   0   6  615.90   30.17
  -2   0   5 1817.68   36.01
   2   0  -5 1883.15   38.16
  -2   0   5 1938.82   47.72
  -2   0   4  334.50   18.12
   2   0  -4  341.32   15.43
  -2   0   4  307.85   12.28
  -2   0   4  348.96   17.73
  -2   0   4  342.31   17.54
  -2   0   3 6716.57   69.62
   2   0  -3 6592.43   63.08
  -2   0   2 2321.00   38.33
  -2   0   2 2255.41   32.58
  -2   0   1 8216.54   54.10
  -2   0   1 8703.64   71.94
  -2   0   0 6992.42   65.42
  -2   0   0 7140.14   67.55
   2   0   1 5037.79   59.97
  -2   0  -1 5000.32   59.42
   2   0   2 2424.75   43.74
  -2   0  -2 2489.80   46.74
   2   0   2 2489.31   47.73
  -2   0  -3 1682.53   42.71
   2   0   3 1596.58   38.10
   2   0   3 1699.08   43.69
   2   0   4 1731.50   42.42
  -2   0  -4 1864.35   50.30
   2   0   4 1863.78   51.03
  -2   0  -5  315.80   23.06
   2   0   5  334.01   24.12
  -2   0  -6   14.02    6.64
   2   0   7  315.71   14.19
  -2   0  -7  319.51   28.19
   2   0   8   29.06    4.29
   2   0   8   30.98    4.70
   2   0   8   27.68    4.37
   2   0   8   34.53    5.04
   2   0   8   34.87    5.31
   2   0   9  148.72    9.94
   2   0   9  173.01   11.09
   2   0   9  142.49    9.98
   2   0   9  165.37   10.81
   2   0  10  111.63    8.46
   2   0  10  100.18    8.57
   2   0  10   85.65    7.25
   2   0  11   20.64    3.23
   2   0  11   29.64    4.22
   2   0  12    4.14    1.48
  -2   1  14   36.49    3.33
  -2   1  13    3.66    1.64
  -2   1  12    3.55    2.10
  -2   1  12    3.17    1.70
  -2   1  12    2.23    1.41
  -2   1  11   53.21    5.58
  -2   1  11   56.66    8.15
  -2   1  11   65.81    7.21
  -2   1  11   57.99    7.48
  -2   1  10    1.95    1.82
  -2   1  10    3.87    2.21
  -2   1  10    4.86    2.54
  -2   1  10    3.04    1.39
  -2   1   9  227.88   14.32
  -2   1   9  197.33   15.83
  -2   1   8  167.44   20.32
  -2   1   7  431.98   28.99
  -2   1   6  462.26   26.60
  -2   1   5  982.77   34.31
   2   1  -5 1020.50   32.97
  -2   1   4  825.85   28.17
   2   1  -4  782.07   26.53
   2   1  -3 1164.15   29.13
  -2   1   3 1178.00   27.34
  -2   1   2 1586.93   27.39
   2   1  -2 1571.13   32.37
  -2   1   1 1498.44   29.08
  -2   1   1 1479.05   25.40
   2   1   0 2611.78   45.31
  -2   1   0 2451.29   35.38
   2   1   1  989.21   28.80
  -2   1  -1 1026.58   23.89
   2   1   2  953.80   29.55
  -2   1  -2  958.19   30.08
  -2   1  -2  952.33   24.91
   2   1   3  186.16   13.59
  -2   1  -3  178.29   14.48
  -2   1  -3  152.25   11.03
  -2   1  -4  476.47   21.29
  -2   1  -4  553.55   28.14
  -2   1  -5  193.48   18.46
  -2   1  -6  113.75   15.66
  -2   1  -7   56.62   12.35
   2   1   7   63.10    6.45
   2   1   8    4.83    2.18
   2   1   8    4.97    2.33
   2   1   8    4.63    1.94
   2   1   9   11.53    3.13
   2   1   9    8.75    2.59
   2   1   9    7.58    2.36
   2   1  10    8.02    2.39
   2   1  10    6.63    2.08
   2   1  10    4.35    1.94
   2   1  11   -0.05    1.20
   2   1  12    3.57    1.29
  -2   2  13    2.41    1.43
  -2   2  12    5.27    2.11
  -2   2  12    8.55    2.68
  -2   2  11   79.57    6.82
  -2   2  11  101.94    9.07
  -2   2  11   81.03    8.63
  -2   2  10    2.76    1.29
  -2   2  10    0.98    1.55
  -2   2  10    3.24    2.05
  -2   2   9  122.13    8.27
  -2   2   9  160.63   11.96
  -2   2   9  159.05   11.79
  -2   2   8   97.74   16.11
  -2   2   7   85.00   13.87
   2   2  -6 1859.82   53.42
  -2   2   6 1808.33   54.50
  -2   2   5  746.24   31.33
   2   2  -5  789.30   32.17
  -2   2   4  765.01   28.35
   2   2  -4  752.63   28.54
  -2   2   3 1725.23   37.89
   2   2  -3 1560.79   37.76
  -2   2   2 1463.89   30.74
  -2   2   2 1465.96   35.78
  -2   2   1 1108.49   28.69
  -2   2   1 1135.82   23.74
   2   2  -1 1109.77   29.20
  -2   2   1 1099.69   30.41
  -2   2   0  852.08   26.92
  -2   2   0  740.60   13.60
  -2   2   0  864.00   25.43
   2   2   0  734.55   15.20
   2   2   0  878.20   26.68
   2   2   1 1491.28   37.69
  -2   2  -1 1389.41   33.68
  -2   2  -1 1374.25   35.63
  -2   2  -2 1391.45   38.47
   2   2   2 1455.35   38.49
  -2   2  -2 1406.61   35.88
  -2   2  -3    9.80    3.07
   2   2   3   11.70    3.43
  -2   2  -3   10.33    3.76
  -2   2  -4 1193.33   42.63
  -2   2  -4 1105.08   36.77
  -2   2  -5  399.25   27.32
  -2   2  -6   43.95    9.87
   2   2   7  231.20   13.33
   2   2   7  217.77   11.98
   2   2   7  260.08   13.94
   2   2   7  230.53   12.66
  -2   2  -7  214.76   11.34
   2   2   8  220.51   12.71
  -2   2  -8  191.97   11.13
   2   2   8  202.72   12.45
   2   2   8  187.35   11.53
  -2   2  -9   17.86    3.49
   2   2   9   13.92    3.33
   2   2   9   17.29    3.68
   2   2   9   16.86    3.91
   2   2  10   28.66    4.57
   2   2  10   24.26    3.79
   2   2  11    1.68    1.07
   2   2  11    1.66    1.46
   2   2  12   16.36    2.43
  -2   3  13   15.34    2.64
  -2   3  12   51.08    5.66
  -2   3  12   51.90    4.85
  -2   3  11   48.50    6.23
   2   3 -11   38.20    4.98
  -2   3  11   35.60    4.46
  -2   3  10   73.30    7.98
  -2   3  10   60.14    5.92
   2   3 -10   64.50    7.09
  -2   3   9  213.15   13.82
  -2   3   9  164.61    9.63
  -2   3   8  109.75   17.20
  -2   3   8   92.43    7.04
  -2   3   8  103.12    9.42
  -2   3   7  355.79   28.65
   2   3  -7  347.02   27.02
  -2   3   6  216.23   20.37
   2   3  -6  203.98   19.05
  -2   3   5  576.21   29.76
   2   3  -5  602.92   30.34
  -2   3   4  746.72   30.28
   2   3  -4  703.61   30.09
  -2   3   3  401.31   19.61
   2   3  -3  368.04   20.35
  -2   3   2 1997.73   38.36
   2   3  -2 1948.63   44.36
  -2   3   2 1928.73   44.29
  -2   3   2 2045.48   45.27
  -2   3   1  154.51   12.37
  -2   3   1  134.49    8.23
  -2   3   1  157.12   12.53
   2   3  -1  136.90   10.11
   2   3  -1  138.26   11.56
   2   3   0 2021.01   44.01
   2   3   0 1837.40   33.35
  -2   3   0 1954.01   44.19
  -2   3   0 1942.66   44.30
  -2   3  -1 1786.84   43.78
   2   3   1 1874.57   43.36
  -2   3  -1 1766.67   43.99
   2   3   2  200.84   14.69
  -2   3  -2  177.51   14.75
  -2   3  -2  188.57   15.30
  -2   3  -3 2048.03   52.87
  -2   3  -3 1998.40   54.05
  -2   3  -4  199.82   18.61
  -2   3  -4  190.68   17.11
  -2   3  -5  111.63   13.88
  -2   3  -5  115.50   15.18
  -2   3  -6  413.41   30.96
   2   3   7  181.67   11.22
   2   3   7  217.48   13.14
   2   3   7  189.62   12.40
  -2   3  -7  191.64   10.90
   2   3   8  189.70   12.44
   2   3   8  168.15   10.92
  -2   3  -8  191.54   11.22
   2   3   9    3.78    1.80
  -2   3  -9    2.26    1.15
   2   3   9   -0.10    1.33
   2   3  10   50.00    5.77
   2   3  10   48.57    5.30
  -2   3 -10   58.49    5.76
   2   3  11   27.07    3.74
  -2   4  13    8.59    1.83
  -2   4  12   32.98    4.40
   2   4 -12   35.00    4.01
   2   4 -11    8.20    2.51
  -2   4  11    9.39    3.06
  -2   4  11    9.06    2.57
   2   4 -10  120.33    9.16
  -2   4  10  100.10    7.61
  -2   4  10  128.76   10.71
  -2   4   9   38.82    4.90
  -2   4   9   48.89    5.32
  -2   4   9   50.28    7.01
  -2   4   8  286.26   16.12
  -2   4   8  295.78   13.25
   2   4  -7  203.99   22.12
  -2   4   7  217.07   22.95
  -2   4   6   98.30   14.61
   2   4  -6   95.64   13.95
   2   4  -5  457.12   28.52
  -2   4   5  442.03   28.61
   2   4  -4  446.14   26.38
  -2   4   4  477.43   26.81
  -2   4   3  421.52   22.82
   2   4  -3  370.20   22.54
   2   4  -3  382.57   24.24
   2   4  -2  436.29   23.57
  -2   4   2  489.55   24.85
  -2   4   2  462.17   23.39
   2   4  -2  460.65   23.88
   2   4  -1  228.17   16.94
  -2   4   1  246.79   17.65
   2   4  -1  223.35   15.49
  -2   4   1  221.45   16.09
   2   4   0  304.11   19.26
  -2   4   0  297.31   19.70
   2   4   0  273.91   15.74
  -2   4   0  287.85   18.75
  -2   4  -1   96.30   11.37
   2   4   1  105.02   11.34
  -2   4  -1   98.41   11.74
   2   4   2  656.64   28.55
  -2   4  -2  701.56   32.68
  -2   4  -2  705.84   32.82
  -2   4  -3  233.91   20.31
  -2   4  -3  239.08   20.29
  -2   4  -4  111.12   15.06
  -2   4  -4  106.24   14.28
  -2   4  -5  189.05   20.23
  -2   4  -5  206.43   21.53
  -2   4  -6    9.67    2.43
   2   4   6    9.71    2.86
   2   4   6    4.74    1.94
   2   4   7  193.61   11.70
   2   4   7  226.79   13.82
  -2   4  -7  193.17   10.72
  -2   4  -8   48.76    5.59
   2   4   8   45.39    5.68
   2   4   8   54.01    6.68
  -2   4  -9   16.36    3.18
   2   4   9   13.30    2.89
   2   4   9   18.56    3.89
   2   4  10   31.61    4.50
  -2   4 -10   33.56    4.32
   2   4  11    3.96    1.45
   2   5 -12   39.26    3.90
  -2   5  11    3.50    1.74
   2   5 -11    5.74    1.95
   2   5 -10  103.21    8.05
  -2   5  10  114.35    9.69
  -2   5   9  107.35    8.06
  -2   5   9  106.00    8.01
  -2   5   9  106.38    9.99
  -2   5   8   52.78    5.81
  -2   5   8   47.04    6.81
  -2   5   8   60.11    6.07
  -2   5   7  239.36   11.94
  -2   5   7  245.81   12.25
   2   5  -6  132.14   17.61
  -2   5   6  115.18   16.42
   2   5  -6  139.08   20.27
  -2   5   5  516.75   32.59
   2   5  -5  559.57   33.70
   2   5  -5  539.76   37.86
   2   5  -4  661.90   34.89
   2   5  -4  720.25   40.40
   2   5  -3    7.86    3.52
   2   5  -3    6.18    4.10
  -2   5   2 1308.80   45.46
   2   5  -2 1297.93   45.31
   2   5  -2 1241.48   45.54
  -2   5   1  245.31   19.78
   2   5  -1  228.97   18.16
   2   5  -1  242.41   19.43
   2   5   0  614.50   30.65
  -2   5   0  635.52   32.27
  -2   5   0  611.24   30.32
  -2   5  -1  957.77   40.85
   2   5   1  892.45   36.70
  -2   5  -1  894.80   38.63
  -2   5  -2  340.74   25.27
  -2   5  -2  357.03   26.08
  -2   5  -3  595.43   35.69
  -2   5  -3  631.64   36.65
  -2   5  -4   62.11   12.31
  -2   5  -4   78.17   13.38
   2   5   5  452.00   19.78
  -2   5  -5  409.44   32.13
  -2   5  -5  463.19   15.49
  -2   5  -5  424.26   33.81
   2   5   5  477.01   20.05
   2   5   6  195.52   11.76
   2   5   6  215.50   13.91
   2   5   6  197.69   13.34
  -2   5  -6  206.96   10.72
   2   5   7   13.29    3.71
  -2   5  -7    5.65    1.94
   2   5   8  119.81   10.01
  -2   5  -8  114.64    8.10
  -2   5  -9   97.62    7.18
   2   5   9   93.93    8.13
   2   5  10   24.17    3.68
  -2   5 -10   25.51    3.48
   2   6 -11    2.57    1.27
   2   6 -10   19.70    3.34
  -2   6   9   55.43    6.95
  -2   6   9   57.15    5.66
   2   6  -9   56.01    5.75
  -2   6   8   17.70    4.23
  -2   6   8   27.08    4.16
  -2   6   7   22.01    3.77
  -2   6   6   61.08    6.15
  -2   6   6   72.22    7.86
  -2   6   5  243.41   13.34
  -2   6   5  241.69   11.72
   2   6  -5  242.48   23.66
   2   6  -5  251.63   28.35
   2   6  -5  218.16   10.98
   2   6  -4    8.85    4.26
   2   6  -4   16.47    6.81
   2   6  -3   18.53    6.98
   2   6  -3   14.84    4.92
   2   6  -2  291.43   24.06
  -2   6   2  301.82   24.66
   2   6  -2  282.86   24.38
   2   6  -1  108.47   14.53
  -2   6   1  119.60   15.58
   2   6   0   79.93   12.44
  -2   6   0   80.98   12.91
  -2   6  -1  450.49   31.27
  -2   6  -2  123.63   16.72
   2   6   3   80.25    8.06
  -2   6  -3   65.45   12.79
   2   6   4   70.61    7.81
  -2   6  -4   71.91    6.12
   2   6   4   71.72    7.98
  -2   6  -5   44.62    4.94
   2   6   5   42.37    6.42
   2   6   6   97.62    9.54
  -2   6  -6   98.73    7.36
  -2   6  -7   38.01    4.54
   2   6   7   31.83    5.39
   2   6   8   71.96    7.43
  -2   6  -8   71.36    5.94
   2   6   9   29.44    4.33
  -2   6  -9   31.24    3.69
  -2   6 -10    3.08    1.18
   2   7 -11    7.40    1.53
   2   7 -10   64.15    5.14
   2   7  -9   47.77    4.81
  -2   7   8   25.81    4.05
   2   7  -8   28.35    4.05
  -2   7   7  158.52    9.74
  -2   7   6   53.45    5.69
  -2   7   6   66.84    7.49
   2   7  -6   52.62    5.61
   2   7  -5  229.47   11.55
  -2   7   5  234.34   12.06
  -2   7   5  252.53   14.05
  -2   7   4  227.11   11.80
   2   7  -4  224.83   11.53
  -2   7   4  209.31   12.57
  -2   7   3    3.05    1.57
  -2   7   3    1.48    1.34
  -2   7   3    0.83    1.19
   2   7  -3    3.11    1.77
   2   7  -3   -0.64    4.87
  -2   7   2  577.80   20.54
   2   7  -2  543.28   35.56
   2   7  -2  555.38   18.04
  -2   7   2  521.19   17.34
  -2   7   2  573.23   36.84
  -2   7   2  609.19   17.53
  -2   7   1  241.77   13.46
   2   7  -1  246.89   12.13
  -2   7   1  225.06   23.09
  -2   7   1  241.56   10.94
   2   7  -1  213.84   22.22
  -2   7   1  238.25   11.50
   2   7   0  550.39   18.23
  -2   7   0  564.41   37.29
  -2   7   0  565.49   20.96
  -2   7   0  535.54   16.12
  -2   7   0  535.14   17.31
   2   7   1  328.94   13.92
  -2   7  -1  334.07   13.84
  -2   7  -1  333.22   12.88
  -2   7  -2   14.56    2.84
  -2   7  -2   16.61    3.10
  -2   7  -3  371.24   14.42
  -2   7  -3  372.03   15.13
  -2   7  -4  111.05    7.72
  -2   7  -4  122.29    8.53
  -2   7  -5   62.01    5.77
  -2   7  -6  106.64    7.38
  -2   7  -7    0.25    1.86
  -2   7  -7    2.66    1.56
  -2   7  -8   72.87    5.40
  -2   7  -8   87.75    6.02
  -2   7  -9   16.73    2.39
   2   8 -10   39.33    3.36
   2   8  -9    5.46    1.59
   2   8  -8   92.24    6.54
   2   8  -7   77.56    6.34
  -2   8   6  239.72   14.03
   2   8  -6  202.72   10.66
   2   8  -6  217.27   10.60
  -2   8   5   22.28    4.41
   2   8  -5   15.98    3.04
  -2   8   4   65.87    7.22
   2   8  -4   47.76    5.44
  -2   8   3  337.16   16.26
   2   8  -3  319.24   13.87
  -2   8   3  343.41   13.72
  -2   8   2   49.75    6.34
  -2   8   2   53.33    5.60
   2   8  -2   54.45    5.90
  -2   8   1   22.31    4.54
  -2   8   1   21.52    3.56
  -2   8   1   20.84    3.87
   2   8  -1   21.21    3.93
   2   8   0  107.71    8.31
  -2   8   0  106.05    9.45
  -2   8   0  105.08    7.32
  -2   8   0   94.74    7.80
  -2   8  -1   87.59    7.61
  -2   8  -1   89.61    9.02
  -2   8  -1   73.35    6.21
   2   8   1   82.26    7.07
  -2   8  -2   52.43    5.84
   2   8   2   46.08    5.08
  -2   8  -2   45.99    6.66
  -2   8  -2   49.00    5.20
  -2   8  -3   29.28    4.13
  -2   8  -3   31.48    6.03
  -2   8  -3   30.33    4.49
  -2   8  -4  160.67   12.90
  -2   8  -4  160.34   10.01
  -2   8  -4  156.04    9.12
  -2   8  -5   26.71    3.67
  -2   8  -5   23.15    5.22
  -2   8  -5   29.64    4.27
  -2   8  -6   33.20    5.54
  -2   8  -6   43.24    4.39
  -2   8  -6   49.48    5.09
  -2   8  -7   58.52    4.79
  -2   8  -7   66.71    5.28
  -2   8  -8   22.37    2.64
  -2   8  -8   17.76    2.34
  -2   8  -8   13.64    2.57
   2   9  -8   26.40    2.92
   2   9  -8   25.42    3.19
   2   9  -7   13.82    2.49
   2   9  -7   12.63    2.63
   2   9  -6   27.96    3.44
   2   9  -6   16.08    2.91
   2   9  -5   22.22    3.34
   2   9  -5   19.90    3.35
  -2   9   4   44.10    5.64
   2   9  -4   46.56    5.01
  -2   9   3   67.62    6.04
   2   9  -3   66.75    6.18
  -2   9   3   73.11    7.37
  -2   9   2   29.26    4.85
   2   9  -2   28.05    4.23
  -2   9   2   33.43    4.31
  -2   9   1   81.99    7.99
  -2   9   1   93.62    7.16
   2   9  -1   86.58    7.30
   2   9   0    3.44    1.78
  -2   9   0    4.76    2.06
  -2   9  -1   60.99    7.17
  -2   9  -1   72.59    6.18
   2   9   1   73.67    6.57
  -2   9  -1   79.90    7.26
  -2   9  -2   48.78    4.96
   2   9   2   38.32    4.47
  -2   9  -2   40.93    5.97
  -2   9  -2   53.29    5.85
  -2   9  -3   37.50    5.78
  -2   9  -3   46.53    5.46
  -2   9  -3   40.19    4.23
  -2   9  -4   36.22    5.50
  -2   9  -4   48.88    4.75
  -2   9  -4   52.09    5.57
  -2   9  -5    0.95    1.46
  -2   9  -5    1.96    1.45
  -2   9  -6   30.78    4.28
  -2   9  -6   55.58    4.74
  -2   9  -7   16.00    2.21
   2  10  -6   19.49    2.39
   2  10  -5   66.50    4.98
  -2  10   4   46.86    5.37
   2  10  -4   67.29    5.39
  -2  10   3   96.95    6.65
   2  10  -3  103.75    7.02
  -2  10   2    8.08    2.57
  -2  10   2    5.02    1.62
   2  10  -2    4.72    1.27
  -2  10   1  149.72    8.48
   2  10  -1  143.17    8.56
  -2  10   0   61.28    5.38
   2  10   0   57.37    5.36
  -2  10  -1   66.59    5.49
   2  10   1   57.72    5.15
  -2  10  -2   93.12    7.71
  -2  10  -2  165.39    8.37
  -2  10  -3    4.23    1.51
  -2  10  -3    7.36    2.47
  -2  10  -4   86.56    5.46
  -2  10  -4   41.09    4.54
  -2  10  -5   14.52    2.35
   2  11  -4   -0.06    0.69
   2  11  -3   15.20    2.31
   2  11  -2   -0.47    0.97
  -2  11   2    4.26    1.88
  -2  11   1   13.03    2.45
   2  11  -1    4.71    1.49
   2  11   0    5.59    1.49
  -2  11   0    6.55    1.95
   2  11   1    5.64    1.34
  -2  11  -1   11.17    2.27
  -2  11  -2   17.29    2.55
  -3 -10   6   29.94    2.87
   3 -10   4   30.71    3.23
  -3  -9   9   10.17    1.84
  -3  -9   8    9.26    1.71
  -3  -9   8    6.66    1.53
  -3  -9   8    9.47    1.85
  -3  -9   7   19.41    2.79
  -3  -9   7   18.54    2.65
   3  -9   6   25.62    3.19
  -3  -8  10   12.33    1.86
  -3  -8  10   11.38    2.01
  -3  -8  10   12.43    2.07
  -3  -8   9    2.48    1.32
  -3  -8   9    3.60    1.35
  -3  -8   9    2.04    1.33
  -3  -8   9    5.51    1.65
  -3  -8   9    3.97    1.48
  -3  -8   8   29.39    3.63
  -3  -8   8   21.51    3.10
  -3  -8   8   34.20    3.90
  -3  -8   7   64.34    5.44
  -3  -8   7   55.84    5.20
  -3  -8   6   10.67    2.50
   3  -8   6   58.53    5.22
   3  -8   7    7.93    1.87
   3  -8   7   10.43    2.24
  -3  -7  11    1.21    0.93
  -3  -7  11    0.43    0.96
  -3  -7  11   -0.74    0.91
  -3  -7  11    0.42    0.79
  -3  -7  10   36.37    4.08
  -3  -7  10   41.92    3.95
  -3  -7  10   35.66    4.07
  -3  -7  10   36.62    3.99
  -3  -7  10   45.94    4.25
  -3  -7   9   11.66    2.29
  -3  -7   9   10.26    2.35
  -3  -7   9   11.90    2.47
  -3  -7   9    9.26    2.45
  -3  -7   8   36.34    4.29
  -3  -7   8   24.12    3.72
  -3  -7   8   28.55    4.14
  -3  -7   8   26.91    4.45
  -3  -7   7   38.13    5.51
  -3  -7   7   38.64    4.62
  -3  -7   6   24.10    4.53
   3  -7   6   61.14    6.25
   3  -7   6   59.87    6.00
   3  -7   7    2.33    2.44
   3  -7   7    2.51    1.35
   3  -7   7    2.10    1.04
   3  -7   7    4.20    2.15
   3  -7   8   22.57    2.85
   3  -7   8   33.89    3.88
   3  -7   8   31.66    3.61
   3  -7   8   29.42    3.40
   3  -7   8   23.16    2.91
  -3  -6  12   12.06    1.85
  -3  -6  12   13.36    2.10
  -3  -6  11   22.88    3.24
  -3  -6  11   20.27    3.07
  -3  -6  11   19.40    2.77
  -3  -6  11   21.47    2.94
  -3  -6  10   86.08    6.29
  -3  -6  10   76.91    6.60
  -3  -6  10   77.28    6.10
  -3  -6  10   74.41    6.29
  -3  -6  10   91.35    6.50
  -3  -6  10   76.54    8.45
  -3  -6   9    1.24    1.60
  -3  -6   9   -1.12    1.87
  -3  -6   9    2.47    1.54
  -3  -6   9    0.28    1.35
  -3  -6   9    2.41    1.37
  -3  -6   8  113.83    7.65
  -3  -6   8   97.71    8.78
  -3  -6   8   97.55    7.64
  -3  -6   7   86.87    8.43
  -3  -6   7   90.85    7.28
  -3  -6   4  166.59   20.93
  -3  -6   4  166.05   20.11
  -3  -6   3  217.48   22.42
  -3  -6   3  225.25   23.83
  -3  -6   2  263.50   26.00
  -3  -6   2  255.39   24.78
  -3  -6   1   90.99   15.32
   3  -6  -1   94.68   14.64
  -3  -6   1   81.44   14.42
  -3  -6   0  341.48   30.62
  -3  -6   0  345.04   31.09
   3  -6   0  322.27   28.14
   3  -6   1   72.73   14.13
  -3  -6  -1   60.90   13.89
  -3  -6  -1   57.77   12.44
  -3  -6  -2   -4.85    6.89
   3  -6   4   27.43    4.58
   3  -6   5   81.52    7.97
   3  -6   5   87.61    8.07
   3  -6   5   76.68    7.76
   3  -6   6   28.59    4.53
   3  -6   6   28.92    4.53
   3  -6   6   27.68    4.47
   3  -6   7   19.38    3.70
   3  -6   7   20.42    3.54
   3  -6   7   23.37    3.83
   3  -6   7   19.15    3.54
   3  -6   7   15.00    2.87
   3  -6   7   17.59    3.90
   3  -6   8   39.30    4.57
   3  -6   8   42.04    4.71
   3  -6   8   38.04    4.51
   3  -6   8   39.11    4.76
   3  -6   8   42.12    4.80
   3  -6   9   12.71    2.34
   3  -6   9   11.86    2.22
   3  -6   9   10.51    2.17
   3  -6   9   12.87    2.38
   3  -6   9   11.96    2.30
   3  -6   9    9.07    2.03
  -3  -5  12    9.95    2.06
  -3  -5  12    6.62    1.63
  -3  -5  12    9.33    2.08
  -3  -5  12    7.93    2.07
  -3  -5  12    8.56    2.47
  -3  -5  11    1.45    1.22
  -3  -5  11    2.26    1.54
  -3  -5  11    0.42    1.47
  -3  -5  11    3.58    1.82
  -3  -5  11    3.40    1.94
  -3  -5  11    0.71    1.37
  -3  -5  10   85.36    7.38
  -3  -5  10   89.70    6.71
  -3  -5  10   88.93    8.85
  -3  -5  10   94.07   10.44
  -3  -5  10   83.37    7.85
  -3  -5  10   92.94    7.04
  -3  -5  10   91.50    6.91
  -3  -5   9    3.37    2.03
  -3  -5   9    2.99    1.78
  -3  -5   9    7.58    2.76
  -3  -5   9    3.65    2.73
  -3  -5   9    1.20    1.29
  -3  -5   9    5.17    2.01
  -3  -5   8    3.49    2.31
  -3  -5   8    7.34    2.31
  -3  -5   8    7.86    3.02
  -3  -5   8    8.47    2.26
  -3  -5   8    6.82    2.58
  -3  -5   7  204.01   14.42
  -3  -5   7  207.28   15.99
  -3  -5   7  202.29   10.74
  -3  -5   6    9.50    5.15
  -3  -5   6    6.72    5.42
  -3  -5   6   13.55    5.68
  -3  -5   6    0.40    1.75
  -3  -5   5  368.11   28.62
  -3  -5   5  363.14   29.01
  -3  -5   5  354.57   27.01
  -3  -5   4   99.43   14.48
  -3  -5   4  102.84   14.70
  -3  -5   4  108.63   15.75
  -3  -5   3   58.30   11.19
  -3  -5   3   57.81   11.42
  -3  -5   2 1302.55   52.34
  -3  -5   2 1316.13   52.24
   3  -5  -2 1241.05   46.32
  -3  -5   1    4.12    2.64
   3  -5  -1    3.89    2.55
   3  -5   0 1003.06   45.08
  -3  -5   0  973.15   48.31
  -3  -5   0  938.50   46.58
   3  -5   1  152.86   18.30
  -3  -5  -1  141.07   18.90
  -3  -5  -1  140.63   19.40
   3  -5   2  157.24   18.97
   3  -5   2  132.99   16.23
  -3  -5  -2  136.84   19.35
   3  -5   3  445.43   31.67
  -3  -5  -3  461.57   37.62
   3  -5   3  442.22   33.12
   3  -5   4   19.17    3.95
   3  -5   5  255.71   14.13
   3  -5   5  251.43   13.73
   3  -5   6   38.66    5.46
   3  -5   6   38.48    5.43
   3  -5   6   39.83    5.20
   3  -5   6   41.00    5.81
   3  -5   7    9.89    2.59
   3  -5   7   11.21    2.92
   3  -5   7   11.81    2.89
   3  -5   7    8.46    2.22
   3  -5   7   10.84    3.16
   3  -5   7    8.14    2.57
   3  -5   8  112.73    8.22
   3  -5   8  108.51    8.18
   3  -5   8  110.36    8.13
   3  -5   8  104.36    8.24
   3  -5   8  103.87    8.13
   3  -5   9    0.64    1.30
   3  -5   9    1.97    1.42
   3  -5   9   -0.15    1.17
   3  -5   9    4.78    1.89
   3  -5   9    0.18    1.21
   3  -5   9    3.79    1.66
   3  -5  10    3.84    1.08
   3  -5  10    5.25    1.38
   3  -5  10    3.52    1.13
   3  -5  10    2.13    1.11
  -3  -4  13    1.69    0.82
  -3  -4  13    1.63    1.00
  -3  -4  13    2.42    1.07
  -3  -4  12    4.60    1.75
  -3  -4  12    7.65    1.98
  -3  -4  12    9.25    2.62
  -3  -4  12    8.59    3.10
  -3  -4  11   23.24    3.68
  -3  -4  11   25.26    3.99
  -3  -4  11   21.03    3.46
  -3  -4  11   32.67    5.29
  -3  -4  11   34.92    6.15
  -3  -4  11   23.09    3.69
  -3  -4  10   30.25    4.62
  -3  -4  10   36.24    5.48
  -3  -4  10   39.27    4.74
  -3  -4  10   39.09    4.77
  -3  -4  10   39.44    4.76
  -3  -4  10   39.60    6.43
  -3  -4  10   39.19    7.02
  -3  -4   9   14.57    3.99
  -3  -4   9   15.29    3.48
  -3  -4   9   18.50    3.44
  -3  -4   9   15.47    4.49
  -3  -4   9   17.90    3.99
  -3  -4   9   17.16    3.15
  -3  -4   9   18.09    3.46
  -3  -4   8  161.19    9.66
  -3  -4   8  184.76    9.60
  -3  -4   8  165.05   11.30
  -3  -4   8  167.74   13.15
  -3  -4   8  182.42   15.08
  -3  -4   7  291.08   24.89
  -3  -4   7  224.38   14.04
  -3  -4   7  278.82   24.52
  -3  -4   7  260.26   11.77
  -3  -4   7  257.62   15.92
  -3  -4   7  271.25   17.75
  -3  -4   6  109.01   15.71
  -3  -4   6  103.17   14.28
  -3  -4   6  111.66   14.81
  -3  -4   5  470.94   30.55
  -3  -4   5  486.83   30.71
  -3  -4   5  467.24   28.74
  -3  -4   4  389.82   26.57
  -3  -4   4  379.74   25.34
  -3  -4   3  277.46   21.77
  -3  -4   3  292.91   22.56
  -3  -4   2  783.71   37.43
  -3  -4   2  788.45   36.31
   3  -4  -2  769.10   33.30
  -3  -4   1  286.65   22.43
   3  -4  -1  314.97   22.28
  -3  -4   1  303.24   23.74
  -3  -4   0 1039.24   44.20
   3  -4   0 1011.42   40.98
  -3  -4   0  986.20   44.02
   3  -4   1  214.32   19.45
   3  -4   1  204.11   16.95
  -3  -4  -1  215.88   21.82
   3  -4   2  736.25   37.62
   3  -4   2  784.91   35.82
  -3  -4  -2  748.84   42.08
   3  -4   3  363.77   26.90
   3  -4   3  349.66   27.20
  -3  -4  -3  326.39   29.04
   3  -4   4   87.98   14.60
  -3  -4  -4  105.67   17.78
   3  -4   4  102.12   15.42
   3  -4   5   93.76    8.61
   3  -4   5   87.16    8.00
   3  -4   5   84.13    7.46
   3  -4   6   75.41    7.53
   3  -4   6   72.54    7.06
   3  -4   6   73.51    7.32
   3  -4   6   68.18    7.03
   3  -4   6   71.08    6.82
   3  -4   6   70.04    7.63
   3  -4   7   20.44    4.01
   3  -4   7   23.28    4.14
   3  -4   7   19.25    3.84
   3  -4   7   19.61    3.72
   3  -4   7   21.42    4.24
   3  -4   7   21.79    4.07
   3  -4   8   15.91    3.50
   3  -4   8   18.21    3.79
   3  -4   8   19.62    3.60
   3  -4   8   18.29    3.55
   3  -4   8   16.55    3.66
   3  -4   9    3.75    1.88
   3  -4   9    2.65    1.37
   3  -4   9    3.20    1.91
   3  -4   9    2.51    1.67
   3  -4   9    3.90    1.67
   3  -4   9    5.05    2.22
   3  -4  10   10.57    2.29
   3  -4  10    6.22    1.74
   3  -4  10    9.63    2.22
   3  -4  10    9.62    2.07
   3  -4  10    8.99    2.16
  -3  -3  13   16.06    3.08
  -3  -3  13   17.39    2.87
  -3  -3  12   31.42    4.01
  -3  -3  12   37.54    5.37
  -3  -3  12   47.33    6.74
  -3  -3  12   33.75    4.17
  -3  -3  11   13.00    3.08
  -3  -3  11   15.88    3.86
  -3  -3  11   15.21    3.27
  -3  -3  11   16.89    4.47
  -3  -3  11   12.61    2.84
  -3  -3  10   93.37    7.82
  -3  -3  10   91.36    8.53
  -3  -3  10   94.44   10.84
  -3  -3  10   86.15    6.88
  -3  -3  10   93.30    9.64
  -3  -3  10   86.53    7.18
  -3  -3   9  443.03   18.62
  -3  -3   9  428.44   23.19
  -3  -3   9  388.67   19.87
  -3  -3   9  422.42   14.88
  -3  -3   9  402.94   15.40
  -3  -3   9  372.93   14.23
  -3  -3   9  431.36   15.61
  -3  -3   8  134.43   17.79
  -3  -3   8  113.72    7.47
  -3  -3   8  140.56   10.22
  -3  -3   8  129.82    8.01
  -3  -3   8  127.39    8.32
  -3  -3   8  121.01   11.02
  -3  -3   8  135.97   12.74
  -3  -3   7  620.54   34.98
  -3  -3   7  591.72   35.78
  -3  -3   7  577.46   32.42
  -3  -3   6  331.59   23.79
  -3  -3   6  326.58   25.07
  -3  -3   6  328.44   25.32
  -3  -3   6  309.08   22.89
  -3  -3   5  463.11   26.60
  -3  -3   5  479.77   28.72
  -3  -3   5  464.81   27.44
  -3  -3   4 1717.94   51.87
  -3  -3   4 1690.21   48.22
   3  -3  -3 1761.79   45.11
  -3  -3   3 1725.09   50.59
  -3  -3   3 1697.76   47.99
  -3  -3   2  278.31   19.13
   3  -3  -2  268.00   17.85
  -3  -3   2  270.35   20.20
   3  -3  -1  588.13   27.11
  -3  -3   1  604.23   30.51
  -3  -3   1  533.75   26.86
  -3  -3   0 1217.31   43.05
   3  -3   0 1226.11   34.50
  -3  -3   0 1307.12   45.81
   3  -3   0 1312.52   41.61
  -3  -3  -1  730.92   36.27
   3  -3   1  729.19   32.48
   3  -3   1  680.18   28.61
   3  -3   2  986.87   39.81
  -3  -3  -2 1046.49   45.69
   3  -3   2 1025.56   38.12
   3  -3   3  306.57   23.33
   3  -3   3  329.97   23.68
   3  -3   4   42.19    9.64
   3  -3   4   41.54    9.04
   3  -3   5  307.76   27.38
   3  -3   5  267.63   24.47
   3  -3   6   29.75    4.59
   3  -3   6   31.78    4.62
   3  -3   6   33.74    4.89
   3  -3   6   26.22    4.33
   3  -3   6   25.70    3.89
   3  -3   6   33.47    5.05
   3  -3   6   31.65    4.94
   3  -3   7  175.42   10.81
   3  -3   7  180.32   11.17
   3  -3   7  189.41   11.93
   3  -3   7  186.20   11.41
   3  -3   7  167.98   11.22
   3  -3   8   26.84    4.41
   3  -3   8   33.31    4.75
   3  -3   8   35.68    5.02
   3  -3   8   34.73    5.07
   3  -3   8   27.70    4.50
   3  -3   9   17.90    3.61
   3  -3   9   18.58    3.47
   3  -3   9   18.33    3.70
   3  -3   9   17.13    3.31
   3  -3   9   18.34    3.46
   3  -3   9   18.24    3.38
   3  -3  10   18.81    3.09
   3  -3  10   20.41    3.11
   3  -3  10   26.12    3.53
   3  -3  10   24.74    3.47
   3  -3  10   23.34    3.54
   3  -3  11    7.84    1.68
  -3  -2  13   44.81    4.67
  -3  -2  13   31.50    4.39
  -3  -2  13   36.29    5.36
  -3  -2  12   19.60    3.28
  -3  -2  12   29.16    4.94
  -3  -2  12   26.90    5.44
  -3  -2  12   25.95    3.81
  -3  -2  11    9.86    2.77
  -3  -2  11    8.23    2.47
  -3  -2  11    8.77    3.57
  -3  -2  11    9.22    3.06
  -3  -2  11    7.68    2.11
  -3  -2  10  144.55    9.96
  -3  -2  10  167.22   11.65
  -3  -2  10  159.08   14.06
  -3  -2  10  153.57    9.44
  -3  -2  10  154.51   12.33
  -3  -2  10  149.97    9.60
  -3  -2   9  219.09   11.98
  -3  -2   9  269.36   14.46
  -3  -2   9  238.93   11.57
  -3  -2   9  238.65   11.40
  -3  -2   9  246.84   17.26
  -3  -2   9  236.94   11.71
  -3  -2   9  218.57   10.81
  -3  -2   9  245.23   15.42
  -3  -2   8  119.37   17.36
  -3  -2   8  126.26   17.09
  -3  -2   7  220.24   20.50
  -3  -2   7  193.09   20.05
  -3  -2   6  269.04   20.56
  -3  -2   6  291.94   22.89
  -3  -2   6  242.15   17.94
  -3  -2   6  272.35   22.20
  -3  -2   5  544.90   29.16
  -3  -2   5  472.38   26.53
  -3  -2   5  472.83   24.52
  -3  -2   5  514.19   26.13
  -3  -2   4  692.15   30.40
   3  -2  -4  758.66   28.53
  -3  -2   4  693.29   28.14
  -3  -2   3 1526.55   43.66
  -3  -2   3 1570.11   40.97
  -3  -2   2    7.75    3.46
   3  -2  -2    6.06    3.16
  -3  -2   2    6.50    3.76
  -3  -2   1  701.11   27.01
   3  -2  -1  648.51   26.05
  -3  -2   1  605.67   23.05
  -3  -2   1  693.89   29.59
   3  -2   0  347.35   17.92
   3  -2   0  348.18   19.60
  -3  -2   0  368.67   22.18
  -3  -2   0  344.92   17.56
  -3  -2   0  380.07   20.97
   3  -2   1  441.03   21.78
   3  -2   1  391.51   21.55
  -3  -2  -1  461.63   26.37
  -3  -2  -1  413.51   20.32
   3  -2   2  486.23   25.32
   3  -2   2  468.35   24.99
  -3  -2  -2  453.09   22.63
   3  -2   3  272.06   20.82
   3  -2   3  244.71   19.05
   3  -2   4  330.79   25.06
   3  -2   4  300.05   22.72
   3  -2   5  268.42   22.77
   3  -2   5  317.21   26.59
   3  -2   6  252.87   12.90
   3  -2   6  257.61   12.50
   3  -2   6  253.58   12.73
   3  -2   6  226.67   11.44
   3  -2   6  266.25   13.58
   3  -2   6  272.85   13.80
   3  -2   7  194.72   11.30
   3  -2   7  187.44   11.28
   3  -2   7  207.22   12.25
   3  -2   7  202.61   11.69
   3  -2   7  205.33   12.22
   3  -2   8    6.47    2.48
   3  -2   8    4.10    1.79
   3  -2   8    8.71    2.53
   3  -2   8    6.88    2.37
   3  -2   8    9.29    2.65
   3  -2   8    8.61    2.28
   3  -2   9   23.24    3.98
   3  -2   9   22.30    3.94
   3  -2   9   19.78    3.59
   3  -2   9   24.04    4.04
   3  -2   9   19.11    3.81
   3  -2   9   19.20    3.74
   3  -2  10   17.98    3.41
   3  -2  10   13.46    2.81
   3  -2  10   13.86    2.73
   3  -2  10   12.91    2.78
   3  -2  11    3.00    1.23
   3  -2  11    2.49    1.19
  -3  -1  14   13.51    2.14
  -3  -1  13   11.05    2.49
  -3  -1  13    8.52    2.85
  -3  -1  13   10.03    2.78
  -3  -1  12   27.44    4.54
  -3  -1  12   24.47    3.73
  -3  -1  12   22.65    4.42
  -3  -1  12   30.49    5.88
  -3  -1  11   71.32    6.38
  -3  -1  11   74.36    8.38
  -3  -1  11   79.23    9.86
  -3  -1  10   13.72    3.79
  -3  -1  10   12.05    2.85
  -3  -1  10   18.52    5.30
  -3  -1  10   17.05    3.39
  -3  -1   9  298.65   12.85
  -3  -1   9  347.23   16.24
  -3  -1   9  300.03   19.23
  -3  -1   9  272.03   12.22
  -3  -1   9  339.89   17.93
  -3  -1   8   68.58   12.93
  -3  -1   8   79.15   13.77
  -3  -1   7  121.41   15.80
  -3  -1   7  123.55   15.39
  -3  -1   6  808.27   34.96
  -3  -1   6  796.42   37.10
  -3  -1   5   13.83    4.29
  -3  -1   5   11.15    4.11
  -3  -1   5   12.70    4.20
  -3  -1   5   11.73    3.75
  -3  -1   4  300.86   17.40
  -3  -1   4  269.85   17.89
   3  -1  -4  320.11   18.50
  -3  -1   3  872.67   30.85
  -3  -1   3  894.59   27.86
   3  -1  -3  955.15   31.38
   3  -1  -2  460.07   21.31
  -3  -1   2  421.95   21.20
  -3  -1   2  402.31   18.05
  -3  -1   2  404.22   19.65
  -3  -1   1 1305.79   31.75
  -3  -1   1 1412.38   38.66
  -3  -1   1 1401.18   36.51
   3  -1  -1 1361.62   36.44
   3  -1   0   55.29    7.39
  -3  -1   0   60.74    8.42
  -3  -1   0   60.94    7.40
  -3  -1   0   54.06    7.37
   3  -1   1 1281.72   36.59
  -3  -1  -1 1315.94   37.69
  -3  -1  -1 1346.63   41.80
   3  -1   2  416.35   22.21
   3  -1   2  450.77   23.74
  -3  -1  -2  484.64   24.45
  -3  -1  -3  224.20   18.22
   3  -1   3  194.29   16.11
   3  -1   3  220.41   18.10
  -3  -1  -4  572.65   31.46
   3  -1   4  494.17   27.22
   3  -1   4  586.56   32.20
  -3  -1  -5  165.11   18.68
   3  -1   6  158.62    9.90
   3  -1   6  169.09   10.11
   3  -1   6  189.13   11.29
   3  -1   6  159.47    9.81
   3  -1   6  173.77   10.73
   3  -1   7   95.62    7.92
   3  -1   7  101.10    8.20
   3  -1   7   92.86    7.91
   3  -1   7   97.59    8.40
   3  -1   7   91.28    8.07
   3  -1   7   87.42    7.92
   3  -1   8   15.58    3.61
   3  -1   8   17.47    3.59
   3  -1   8   19.30    3.60
   3  -1   8   15.79    3.51
   3  -1   8   18.84    3.89
   3  -1   8   14.63    3.31
   3  -1   9   26.86    4.31
   3  -1   9   26.77    4.25
   3  -1   9   25.94    4.13
   3  -1   9   34.79    4.81
   3  -1   9   27.08    4.33
   3  -1  10    3.83    1.71
   3  -1  10    4.70    1.63
   3  -1  10    2.37    1.32
   3  -1  10    0.46    0.99
   3  -1  11    2.52    1.26
   3  -1  11    5.92    1.82
  -3   0  14    4.00    1.30
  -3   0  13    1.18    1.34
  -3   0  13    0.49    0.98
  -3   0  13    1.49    1.39
  -3   0  12    1.66    1.32
  -3   0  12   -0.10    1.07
  -3   0  12    1.85    1.70
  -3   0  12    0.75    1.67
  -3   0  11  309.94   13.38
  -3   0  11  337.16   17.61
  -3   0  10   73.83    9.77
  -3   0  10   61.95    6.19
  -3   0  10   66.67    8.15
  -3   0   9   93.35    8.42
  -3   0   9   72.83    7.51
  -3   0   9   88.62    7.05
  -3   0   9  106.77   10.27
  -3   0   9  107.56   11.29
  -3   0   8  248.46   24.53
  -3   0   7   84.83   13.65
  -3   0   6 1518.91   50.49
  -3   0   6 1664.42   52.27
  -3   0   5  108.55   11.80
  -3   0   5  110.62   12.74
  -3   0   5  111.07   12.18
   3   0  -5   97.03   10.46
  -3   0   4 2905.14   55.25
  -3   0   4 2988.85   61.31
   3   0  -4 2882.80   53.62
   3   0  -3  480.03   22.51
  -3   0   3  447.82   20.62
  -3   0   3  465.87   18.71
   3   0  -2    2.39    2.32
  -3   0   2   -0.76    2.91
  -3   0   2    4.08    2.26
  -3   0   2    0.59    1.92
   3   0  -1 9278.69   96.43
  -3   0   1 9285.05   91.95
  -3   0   1 9010.94   95.36
  -3   0   0   24.89    5.45
   3   0   0   24.22    5.13
  -3   0   0   21.02    4.71
  -3   0   0   18.20    3.10
  -3   0  -1 1237.29   37.61
   3   0   1 1228.96   36.50
   3   0   2 1580.55   43.33
  -3   0  -2 1696.19   47.15
  -3   0  -3  387.12   24.48
   3   0   3  338.22   21.18
   3   0   4  846.37   35.53
  -3   0  -4  894.47   40.46
  -3   0  -5    5.26    3.67
  -3   0  -6   28.06    8.62
   3   0   6   31.06    4.37
   3   0   6   28.90    4.29
   3   0   6   36.30    4.90
   3   0   7   58.01    6.16
   3   0   7   52.17    5.91
   3   0   7   47.89    5.68
   3   0   7   61.33    6.71
   3   0   7   49.57    5.85
   3   0   7   48.81    5.84
   3   0   8   26.46    4.40
   3   0   8   31.05    4.71
   3   0   8   32.49    5.12
   3   0   8   25.15    4.26
   3   0   9  183.25   11.30
   3   0   9  198.83   11.34
   3   0   9  197.41   11.27
   3   0   9  172.42   10.45
   3   0  10    1.82    1.30
   3   0  10    3.08    1.74
   3   0  10    2.87    1.59
   3   0  11    4.74    1.44
   3   0  11    6.13    1.81
  -3   1  14   12.18    1.98
  -3   1  13   13.65    2.76
  -3   1  13   14.00    2.36
  -3   1  13   10.07    2.52
  -3   1  12   25.18    4.30
  -3   1  12   20.97    3.40
  -3   1  12   21.94    4.24
  -3   1  12   12.46    3.61
  -3   1  11   76.65    9.43
  -3   1  11   70.28    6.49
  -3   1  11   71.06    8.20
  -3   1  11   86.91    8.49
  -3   1  10   14.07    3.81
  -3   1  10   18.45    3.65
  -3   1  10   17.58    4.75
  -3   1   9  243.27   11.59
  -3   1   9  249.85   17.09
  -3   1   8   77.29   14.15
  -3   1   7  133.82   16.74
  -3   1   6  746.92   35.73
  -3   1   5   19.66    5.76
   3   1  -5   12.13    4.21
  -3   1   4  287.02   18.99
  -3   1   4  244.64   15.76
   3   1  -4  251.21   16.80
  -3   1   3  903.12   27.15
  -3   1   3  963.92   32.30
  -3   1   3  919.99   32.09
   3   1  -3  870.42   29.71
  -3   1   2  347.88   16.29
  -3   1   2  352.16   19.48
   3   1  -2  379.20   20.45
  -3   1   1 1299.29   31.60
  -3   1   1 1265.94   36.63
   3   1   0   92.96   10.53
  -3   1   0   80.65    9.61
  -3   1   0   85.89    7.66
  -3   1   0   74.39    7.86
  -3   1  -1 1230.16   38.66
   3   1   1 1317.57   40.04
   3   1   2  575.87   27.32
  -3   1  -2  573.75   28.40
  -3   1  -3  226.21   19.21
   3   1   3  237.76   18.40
  -3   1  -4  559.27   32.80
  -3   1  -5  161.97   19.19
   3   1   6  173.45   10.43
   3   1   6  195.18   11.76
  -3   1  -6  190.15   22.51
  -3   1  -7   74.98    6.72
   3   1   7  100.05    8.64
   3   1   7  110.65    9.06
   3   1   7   88.78    7.73
   3   1   7   76.74    7.11
   3   1   8   17.89    3.58
   3   1   8   15.37    3.51
   3   1   8   20.25    3.91
   3   1   9   29.63    4.31
   3   1   9   30.92    4.65
   3   1   9   30.62    4.41
   3   1  10    3.84    1.69
   3   1  10    5.02    2.16
   3   1  11    1.71    0.80
   3   1  11    1.85    0.98
  -3   2  13   45.90    4.77
  -3   2  13   42.14    3.96
  -3   2  12   38.80    5.14
  -3   2  12   36.09    4.32
  -3   2  12   26.05    4.50
  -3   2  11    8.00    2.96
  -3   2  11    5.26    1.79
  -3   2  11    3.69    2.02
  -3   2  10  137.33    8.96
  -3   2  10  148.79   11.83
  -3   2   9  258.86   15.32
  -3   2   9  215.51   11.10
  -3   2   9  236.54   14.75
  -3   2   8  126.53   18.24
  -3   2   7  189.65   20.58
   3   2  -6  317.38   23.75
  -3   2   6  294.86   23.24
  -3   2   5  444.97   26.08
   3   2  -5  449.98   25.98
   3   2  -4  629.09   28.58
  -3   2   4  635.40   28.67
   3   2  -3 1438.35   40.83
  -3   2   3 1468.37   42.60
  -3   2   2    7.18    3.14
  -3   2   2    1.67    1.45
   3   2  -2    6.49    3.33
  -3   2   2    3.55    2.50
  -3   2   1  801.43   27.69
  -3   2   1  780.57   30.23
   3   2  -1  722.84   28.45
   3   2   0  341.82   21.39
  -3   2   0  366.26   21.27
  -3   2   0  351.47   18.30
  -3   2  -1  478.31   25.25
  -3   2  -1  480.51   21.92
  -3   2  -2  444.68   21.96
  -3   2  -2  460.34   26.36
  -3   2  -3  256.27   21.12
  -3   2  -4  357.18   26.87
  -3   2  -5  304.98   26.83
   3   2   6  262.40   13.21
   3   2   6  274.48   14.38
   3   2   6  267.73   13.69
  -3   2  -6  235.13   11.88
   3   2   7  213.11   12.25
   3   2   7  168.04   10.72
   3   2   7  196.52   12.01
   3   2   7  210.87   12.70
  -3   2  -7  192.07   11.12
  -3   2  -8   10.35    2.78
   3   2   8    5.71    1.96
   3   2   8    5.69    2.55
   3   2   8   10.39    2.62
  -3   2  -9   19.69    3.31
   3   2   9   18.30    3.43
   3   2   9   18.81    3.83
   3   2   9   20.55    3.65
   3   2  10   13.14    2.56
   3   2  10   15.00    2.96
   3   2  11    1.70    1.15
  -3   3  13   19.87    2.93
  -3   3  12   47.68    5.56
  -3   3  12   39.13    4.41
  -3   3  11   24.70    4.48
  -3   3  11   19.61    3.45
   3   3 -11   19.04    3.57
  -3   3  10   81.55    7.02
  -3   3  10  101.06    9.54
  -3   3   9  480.08   21.14
  -3   3   9  445.23   16.23
  -3   3   8  144.03   20.62
  -3   3   8  118.37    8.61
  -3   3   8  119.20   10.25
  -3   3   8  134.96    8.93
   3   3  -7  644.51   38.10
  -3   3   7  679.57   40.87
   3   3  -6  313.32   25.13
  -3   3   6  335.00   26.07
  -3   3   5  494.05   29.36
   3   3  -5  473.57   28.59
  -3   3   4 1870.12   51.12
   3   3  -4 1703.55   50.90
   3   3  -3 1572.53   46.42
  -3   3   3 1510.35   45.70
  -3   3   2  301.38   16.77
  -3   3   2  335.82   20.68
   3   3  -2  281.97   19.23
  -3   3   2  302.89   20.23
  -3   3   1  616.59   27.35
   3   3  -1  560.92   27.22
  -3   3   1  585.50   28.17
  -3   3   0 1278.93   42.75
  -3   3   0 1375.47   41.32
   3   3   0 1247.36   41.80
  -3   3  -1  801.02   32.28
  -3   3  -1  776.66   34.57
  -3   3  -2  938.78   36.51
  -3   3  -2  975.62   40.84
  -3   3  -3  310.59   24.70
  -3   3  -3  318.73   22.36
  -3   3  -4   38.13    9.50
  -3   3  -5  318.45   28.13
  -3   3  -6   31.17    4.43
   3   3   6   27.46    4.33
   3   3   6   37.75    5.35
   3   3   6   35.09    5.34
   3   3   6   31.46    4.81
   3   3   7  176.33   11.38
   3   3   7  143.84   10.02
   3   3   7  173.27   11.92
   3   3   7  168.77   11.26
  -3   3  -7  176.89   10.71
   3   3   8   38.70    5.18
   3   3   8   30.44    4.44
  -3   3  -8   38.26    4.98
   3   3   8   34.67    5.22
   3   3   8   35.70    5.13
   3   3   9   12.41    2.93
   3   3   9   15.07    3.26
   3   3   9   15.58    3.15
   3   3   9    9.83    2.64
  -3   3  -9   17.52    3.27
   3   3  10   23.56    3.67
   3   3  11   10.36    1.94
  -3   4  13    0.76    0.70
   3   4 -12   10.56    2.25
  -3   4  12    9.64    2.49
   3   4 -11   36.09    4.76
  -3   4  11   38.09    5.33
  -3   4  11   30.70    4.23
  -3   4  10   46.81    6.50
  -3   4  10   37.26    4.84
  -3   4  10   33.92    4.47
  -3   4   9   15.04    3.93
  -3   4   9   10.47    2.73
  -3   4   9   10.74    2.83
  -3   4   8  143.55    9.70
  -3   4   8  165.70   10.22
   3   4  -7  298.37   27.59
  -3   4   7  229.18   12.89
  -3   4   7  327.18   30.15
  -3   4   7  256.55   12.63
  -3   4   7  262.79   12.69
   3   4  -6  117.11   16.17
  -3   4   6  120.34   17.48
  -3   4   5  556.85   33.71
   3   4  -5  466.04   30.43
  -3   4   4  418.50   26.45
   3   4  -4  420.42   27.18
   3   4  -3  247.98   19.48
   3   4  -3  275.61   21.28
  -3   4   3  245.30   19.74
   3   4  -2  803.60   36.12
  -3   4   2  877.96   36.73
  -3   4   2  784.13   34.68
   3   4  -2  707.87   29.43
   3   4  -1  265.78   20.84
  -3   4   1  284.60   20.69
  -3   4   1  253.58   19.90
   3   4   0  953.95   39.89
  -3   4   0  996.39   39.38
  -3   4   0  924.97   39.24
   3   4   1  180.45   17.75
  -3   4  -1  202.78   18.13
  -3   4  -1  210.97   19.71
   3   4   2  629.90   33.68
  -3   4  -2  690.93   34.93
  -3   4  -2  665.57   36.39
  -3   4  -3  322.54   24.82
  -3   4  -3  318.47   26.66
  -3   4  -4   83.71   14.42
   3   4   5   76.63    7.61
   3   4   5   87.64    8.16
  -3   4  -5   75.41    6.56
   3   4   6   69.99    7.43
  -3   4  -6   66.55    6.28
   3   4   6   64.64    7.53
   3   4   6   60.39    6.88
   3   4   7   24.31    4.53
   3   4   7   19.80    3.95
   3   4   7   27.53    4.97
   3   4   7   18.19    4.07
  -3   4  -7   18.24    3.47
  -3   4  -8   20.12    4.11
   3   4   8   23.52    4.29
   3   4   8   19.05    3.86
   3   4   8   18.36    3.67
   3   4   9    3.31    1.58
  -3   4  -9    3.33    1.44
   3   4  10    8.76    2.05
   3   5 -12   13.47    2.29
   3   5 -11    1.02    1.31
  -3   5  11    1.85    1.36
  -3   5  10  110.50    8.03
  -3   5  10   95.42    7.26
  -3   5   9    0.45    1.65
  -3   5   9    1.04    1.61
  -3   5   8   12.06    2.99
  -3   5   8    7.32    2.42
  -3   5   7  186.11   12.06
  -3   5   7  202.39   11.46
  -3   5   7  185.00   11.09
  -3   5   6    4.26    1.84
  -3   5   6    5.26    2.15
   3   5  -6    8.10    5.32
   3   5  -6    2.90    3.29
   3   5  -5  353.55   28.12
   3   5  -5  250.91   26.11
   3   5  -4   98.16   15.11
   3   5  -4  100.40   14.45
   3   5  -3   64.79   11.47
   3   5  -3   66.22   10.92
   3   5  -2 1178.02   48.13
  -3   5   2 1259.99   48.14
  -3   5   1    4.60    4.34
   3   5  -1    5.21    3.28
  -3   5   1    6.18    5.80
  -3   5   0  939.99   42.37
  -3   5   0  828.08   40.73
   3   5   0  868.79   41.88
   3   5   1   91.01   13.69
  -3   5  -1  115.58   15.38
  -3   5  -1   87.51   14.08
  -3   5  -2  150.74   18.95
  -3   5  -2  143.00   17.47
  -3   5  -3  441.56   33.98
  -3   5  -3  416.28   30.98
   3   5   4   16.67    3.61
   3   5   4   17.43    3.97
   3   5   4   22.94    4.36
   3   5   4   14.21    3.76
  -3   5  -4   23.69    3.65
  -3   5  -5  231.55   11.51
   3   5   5  192.33   12.63
   3   5   5  182.11   12.69
   3   5   5  228.46   13.54
  -3   5  -6   36.21    4.60
   3   5   6   30.03    5.12
   3   5   6   39.08    5.73
   3   5   6   30.73    5.12
  -3   5  -7   17.88    3.23
   3   5   7   17.28    3.82
   3   5   7   20.71    3.98
   3   5   7   13.90    3.51
  -3   5  -8  105.16    7.44
   3   5   8  109.06    8.56
   3   5   9    2.12    1.31
  -3   5  -9    2.46    1.20
   3   5  10    5.93    1.57
   3   6 -12   15.66    2.07
   3   6 -11   30.36    3.56
   3   6 -10   94.59    7.11
  -3   6  10   96.34    6.94
  -3   6   9    2.03    1.20
  -3   6   8  108.13    8.57
  -3   6   8  121.02    8.89
  -3   6   7   98.00    8.01
  -3   6   7   76.39    7.41
  -3   6   6   49.40    6.38
  -3   6   6   41.75    5.38
  -3   6   5  142.52   10.12
  -3   6   5  149.52    9.93
   3   6  -4  154.37   19.32
  -3   6   4  157.36   10.34
  -3   6   4  159.30   10.02
   3   6  -3  207.15   22.16
   3   6  -2  277.24   25.63
  -3   6   2  282.00   25.10
   3   6  -1   90.17   14.98
  -3   6   1   96.79   14.79
   3   6   0  294.66   26.42
  -3   6   0  290.33   26.11
  -3   6  -1   58.57   11.66
  -3   6  -2    5.38    1.65
   3   6   2    8.68    2.76
  -3   6  -2   14.46    6.29
  -3   6  -2    7.95    3.39
  -3   6  -3  179.06    9.81
   3   6   3  205.50   12.90
  -3   6  -3  187.35   10.74
  -3   6  -3  184.34   10.49
   3   6   4   13.30    4.12
  -3   6  -4   18.02    3.22
   3   6   4   15.45    3.62
  -3   6  -4   18.33    3.40
   3   6   5   84.75    8.49
  -3   6  -5   75.56    6.70
  -3   6  -5   83.62    6.88
  -3   6  -6   29.55    3.95
   3   6   6   20.60    4.37
   3   6   6   28.70    4.90
  -3   6  -6   18.77    3.20
   3   6   7   22.70    4.27
  -3   6  -7   20.75    3.37
   3   6   8   40.01    4.93
  -3   6  -8   39.59    4.13
  -3   6  -9   14.19    2.30
   3   7 -11    0.07    0.72
   3   7 -10   48.78    4.48
  -3   7   9   14.99    2.89
   3   7  -9   10.63    2.45
  -3   7   8   33.00    4.56
  -3   7   7   67.20    7.60
  -3   7   7   55.09    6.03
  -3   7   6   40.56    5.64
   3   7  -6   35.64    4.70
  -3   7   6   37.98    5.10
  -3   7   5  129.03    9.37
  -3   7   5  132.01   10.07
   3   7  -5  128.97    9.10
  -3   7   4   80.52    7.42
  -3   7   4   83.46    8.00
  -3   7   4   83.83    6.96
  -3   7   3  317.28   13.45
  -3   7   3  320.28   15.28
  -3   7   2  280.31   12.55
  -3   7   2  269.72   14.23
  -3   7   1   21.13    4.09
  -3   7   1   27.64    4.01
  -3   7   1   21.89    3.81
  -3   7   0  487.00   16.17
  -3   7   0  453.41   16.29
   3   7   1  178.71   10.91
  -3   7  -1  192.97   12.94
  -3   7  -1  196.11   10.45
  -3   7  -1  182.31   10.46
  -3   7  -2   93.39    9.56
  -3   7  -2   86.74    7.05
  -3   7  -2   80.01    7.05
  -3   7  -3  249.44   12.39
  -3   7  -3  232.27   12.00
  -3   7  -4   14.65    2.97
  -3   7  -4   16.64    3.10
  -3   7  -5   62.27    5.67
  -3   7  -5   57.57    5.58
  -3   7  -6   66.88    5.69
  -3   7  -6   65.88    5.60
  -3   7  -7    4.02    1.44
  -3   7  -7    2.97    1.31
  -3   7  -8   37.86    3.58
   3   8 -10   15.27    2.11
   3   8  -9    2.89    1.39
   3   8  -8   34.27    4.02
  -3   8   7   75.35    6.70
  -3   8   6   17.95    4.43
  -3   8   6   21.01    4.00
   3   8  -6   13.24    2.95
   3   8  -5  100.70    7.68
  -3   8   5  102.52    8.39
  -3   8   5  104.68    8.93
  -3   8   4  227.30   13.07
   3   8  -4  195.93   11.08
  -3   8   4  214.80   11.11
  -3   8   4  188.38   11.34
  -3   8   3   15.47    3.29
  -3   8   3   16.34    3.67
  -3   8   3   16.56    3.61
   3   8  -3   14.35    3.26
   3   8  -2  145.13    9.85
  -3   8   2  129.39   10.04
  -3   8   2  140.81    8.81
  -3   8   1   69.78    7.64
  -3   8   1   65.79    5.99
   3   8  -1   69.30    7.09
  -3   8   0  125.75   10.39
  -3   8   0  103.04    7.47
   3   8   0  114.88    8.87
  -3   8   0  116.18    8.42
  -3   8  -1   92.54    7.71
  -3   8  -1  106.52    9.83
  -3   8  -1   90.60    7.09
   3   8   1   99.38    7.99
  -3   8  -2  172.95   12.61
  -3   8  -2  153.84    9.26
  -3   8  -2  155.60    9.76
  -3   8  -3  104.84    7.91
  -3   8  -3   98.92    7.47
  -3   8  -3  108.03   10.21
  -3   8  -4   44.86    6.57
  -3   8  -4   51.96    5.31
  -3   8  -4   50.54    5.30
  -3   8  -5   27.50    3.44
  -3   8  -5   30.60    5.19
  -3   8  -5   32.98    4.11
  -3   8  -6   64.97    6.65
  -3   8  -6   76.50    5.39
  -3   8  -7    6.00    1.30
  -3   8  -7    6.19    1.96
   3   9  -8    9.31    1.72
   3   9  -7   12.54    2.25
   3   9  -6   44.50    4.33
   3   9  -5   39.53    4.46
  -3   9   5   37.05    5.17
   3   9  -4   39.40    4.69
  -3   9   4   47.74    5.89
  -3   9   4   44.00    5.02
  -3   9   3   31.83    4.86
  -3   9   3   30.02    4.14
   3   9  -3   32.56    4.46
  -3   9   2   71.38    7.31
  -3   9   2   77.65    6.46
   3   9  -2   74.25    6.78
  -3   9   1   16.38    3.66
   3   9  -1   29.54    4.53
  -3   9   1   28.28    3.91
  -3   9   0    2.08    1.43
   3   9   0    5.01    2.02
  -3   9  -1   58.23    5.46
   3   9   1   56.74    5.60
  -3   9  -1   61.16    7.11
  -3   9  -2   11.29    3.18
  -3   9  -2    7.31    2.25
  -3   9  -2   15.19    3.10
  -3   9  -3   19.95    4.18
  -3   9  -3   22.90    3.62
  -3   9  -3   24.09    3.76
  -3   9  -4   49.69    5.96
  -3   9  -4   62.74    5.46
  -3   9  -5    9.35    2.17
  -3   9  -5    7.50    2.24
  -3   9  -6   24.47    3.26
   3  10  -6   37.32    3.15
   3  10  -5    6.85    1.67
  -3  10   4   26.51    4.09
   3  10  -4   34.77    3.95
  -3  10   3   38.39    4.99
  -3  10   3   55.82    5.23
   3  10  -3   52.77    5.03
  -3  10   2   10.77    2.88
   3  10  -2   12.14    2.67
  -3  10   2   14.49    3.04
  -3  10   1  161.22    8.59
   3  10  -1  139.00    8.26
  -3  10   0    0.61    1.60
   3  10   0    2.25    1.01
  -3  10   0    3.95    1.91
   3  10   1   60.06    4.80
  -3  10  -1   56.61    6.06
  -3  10  -2   24.16    3.82
  -3  10  -2   40.49    4.17
  -3  10  -3    7.96    2.11
  -3  10  -4   29.76    3.55
   3  11  -4    4.62    1.15
   3  11  -3   21.44    2.57
   3  11  -2    7.30    1.56
   3  11  -1   19.87    2.41
  -4 -10   6   16.72    2.18
  -4  -9   8   14.32    2.12
  -4  -9   8   10.85    1.97
  -4  -9   8   14.86    2.19
  -4  -9   7   21.79    2.73
  -4  -9   7   16.83    2.40
  -4  -9   7   24.61    2.95
  -4  -9   6   11.81    2.24
   4  -9   3   39.09    4.24
   4  -9   4    6.97    1.71
  -4  -8  10    7.37    1.48
  -4  -8  10    7.83    1.63
  -4  -8   9    6.27    1.48
  -4  -8   9    9.63    2.04
  -4  -8   9    6.24    1.48
  -4  -8   8   33.77    4.36
  -4  -8   8   55.64    4.60
  -4  -8   8   37.61    3.97
  -4  -8   8   61.96    5.22
  -4  -8   7   18.18    3.47
  -4  -8   7   22.44    3.32
  -4  -8   7   28.63    3.62
  -4  -8   6   31.59    4.87
  -4  -8   5   62.28    5.13
   4  -8   5   33.57    4.08
   4  -8   5   31.27    3.77
   4  -8   6   22.36    2.81
   4  -8   6   27.48    3.32
  -4  -7  11   13.26    1.94
  -4  -7  11   13.28    2.08
  -4  -7  10   13.59    2.57
  -4  -7  10   19.42    2.77
  -4  -7  10   17.30    2.89
  -4  -7  10   11.14    2.07
  -4  -7  10   21.34    2.82
  -4  -7   9   10.56    2.41
  -4  -7   9   14.40    2.62
  -4  -7   9   15.69    2.79
  -4  -7   9    9.44    2.55
  -4  -7   8   36.32    5.21
  -4  -7   8   44.40    4.54
  -4  -7   8   39.46    4.51
  -4  -7   7   26.11    4.00
  -4  -7   7   23.60    4.38
  -4  -7   6   20.34    3.13
  -4  -7   5   89.65    6.62
   4  -7   5   26.49    3.88
   4  -7   5   33.82    4.84
   4  -7   6    5.25    1.80
   4  -7   6    4.44    1.65
   4  -7   6    6.01    2.15
   4  -7   7    5.16    1.64
   4  -7   7    3.79    1.33
   4  -7   7    3.31    1.41
  -4  -6  12    2.69    1.05
  -4  -6  11   13.10    2.38
  -4  -6  11   18.33    2.79
  -4  -6  11   11.07    2.50
  -4  -6  11   15.30    3.34
  -4  -6  11   12.27    2.35
  -4  -6  10   46.07    4.80
  -4  -6  10   41.47    4.43
  -4  -6  10   42.87    5.52
  -4  -6  10   48.42    4.51
  -4  -6  10   44.88    5.29
  -4  -6  10   53.29    7.02
  -4  -6  10   52.77    4.79
  -4  -6   9    9.83    2.74
  -4  -6   9   13.97    2.97
  -4  -6   9   15.79    3.00
  -4  -6   9   11.31    3.34
  -4  -6   9   12.02    2.49
  -4  -6   9   14.01    4.03
  -4  -6   8   48.67    6.17
  -4  -6   8   66.53    5.66
  -4  -6   8   55.12    8.08
  -4  -6   8   57.07    7.44
  -4  -6   8   62.05    5.87
  -4  -6   7   74.24    5.94
  -4  -6   7   66.90    8.38
  -4  -6   7   61.50    7.76
  -4  -6   7   70.92    9.41
  -4  -6   6   25.02    3.51
  -4  -6   6   20.80    4.70
  -4  -6   6   25.75    4.91
  -4  -6   5  210.12   13.95
  -4  -6   5  217.82   15.49
  -4  -6   4   48.22    7.45
  -4  -6   2  393.70   33.84
   4  -6  -1   44.40   12.06
  -4  -6   1   51.01   13.02
   4  -6   4    2.56    2.11
   4  -6   5   78.32    7.19
   4  -6   5   79.28    7.19
   4  -6   5   71.82    7.16
   4  -6   5   74.67    7.21
   4  -6   6   31.85    4.39
   4  -6   6   30.63    4.27
   4  -6   6   29.57    4.52
   4  -6   6   31.85    4.42
   4  -6   7   20.75    3.25
   4  -6   7   16.47    2.81
   4  -6   7   20.07    3.18
   4  -6   7   19.97    3.55
   4  -6   7   23.54    3.65
   4  -6   7   19.16    3.14
   4  -6   8   35.58    3.82
   4  -6   8   35.90    3.80
  -4  -5  12   13.06    2.21
  -4  -5  12   10.28    2.07
  -4  -5  12   15.45    2.80
  -4  -5  12   16.09    3.30
  -4  -5  11    0.03    1.03
  -4  -5  11   -0.21    1.02
  -4  -5  11    0.40    1.21
  -4  -5  11   -0.87    1.08
  -4  -5  11   -0.91    1.66
  -4  -5  10   12.57    2.87
  -4  -5  10   14.41    3.46
  -4  -5  10   17.77    2.96
  -4  -5  10   13.53    2.71
  -4  -5  10   15.95    4.37
  -4  -5  10   18.87    4.71
  -4  -5  10   15.75    3.01
  -4  -5   9    6.31    2.18
  -4  -5   9    5.73    1.90
  -4  -5   9    4.64    2.39
  -4  -5   9    6.99    2.09
  -4  -5   9   10.36    3.80
  -4  -5   9    1.99    1.25
  -4  -5   8   53.82    6.46
  -4  -5   8   78.91    6.26
  -4  -5   8   73.44    6.50
  -4  -5   8   81.42   10.30
  -4  -5   8   73.07    5.98
  -4  -5   8   76.15    8.79
  -4  -5   7   48.36    4.84
  -4  -5   7   49.26    7.14
  -4  -5   7   45.61    6.75
  -4  -5   7   50.67    8.12
  -4  -5   6   27.78    6.02
  -4  -5   6   27.13    4.06
  -4  -5   6   28.31    3.68
  -4  -5   6   29.39    5.68
  -4  -5   6   31.05    5.40
  -4  -5   5  222.92   11.32
  -4  -5   5  234.71   17.03
  -4  -5   5  246.48   25.25
  -4  -5   5  295.15   16.06
  -4  -5   5  275.04   26.16
  -4  -5   5  290.48   25.54
  -4  -5   5  267.14   16.80
  -4  -5   4   37.32   10.38
  -4  -5   4   44.87   10.39
  -4  -5   3  220.57   22.67
  -4  -5   3  219.04   23.42
   4  -5  -2  177.21   19.82
  -4  -5   2  188.59   22.34
  -4  -5   2  204.50   22.16
  -4  -5   1    6.40    4.68
   4  -5  -1    6.23    4.16
  -4  -5   1    9.98    6.23
  -4  -5   0  499.54   36.74
   4  -5   0  469.60   34.32
  -4  -5   0  471.46   37.12
   4  -5   1    6.69    4.34
  -4  -5  -1    6.08    3.56
  -4  -5  -1    7.67    4.87
  -4  -5  -2  225.35   26.46
   4  -5   4   21.78    4.12
   4  -5   4   23.91    4.23
   4  -5   4   17.18    3.82
   4  -5   5  120.46    9.48
   4  -5   5  119.91    9.19
   4  -5   5  149.61   10.52
   4  -5   5  116.81    9.28
   4  -5   5  129.19   10.02
   4  -5   6    6.72    2.27
   4  -5   6    3.62    1.86
   4  -5   6    3.93    1.87
   4  -5   6    4.47    2.08
   4  -5   6    6.63    2.75
   4  -5   7    6.61    2.29
   4  -5   7    8.58    2.40
   4  -5   7    8.75    2.49
   4  -5   7    3.75    2.09
   4  -5   7    6.32    2.23
   4  -5   7    9.32    2.74
   4  -5   8   32.35    4.13
   4  -5   8   25.54    3.52
   4  -5   8   30.47    3.84
   4  -5   8   29.07    3.91
   4  -5   8   33.26    4.05
   4  -5   8   31.45    4.02
   4  -5   9    0.49    0.79
   4  -5   9    3.47    1.26
   4  -5   9    2.29    1.09
  -4  -4  13   27.23    3.10
  -4  -4  13   22.30    3.49
  -4  -4  12   19.17    3.18
  -4  -4  12   28.46    4.42
  -4  -4  12   28.74    4.94
  -4  -4  12   20.34    2.86
  -4  -4  11   11.64    2.62
  -4  -4  11   10.13    2.40
  -4  -4  11   16.53    3.85
  -4  -4  11   10.37    2.52
  -4  -4  11   12.56    3.80
  -4  -4  10   87.58    7.16
  -4  -4  10   82.62    7.83
  -4  -4  10  104.89    7.31
  -4  -4  10  116.86   11.81
  -4  -4  10   90.12    7.09
  -4  -4  10   94.18    6.81
  -4  -4  10   95.21    9.49
  -4  -4  10  101.47    7.33
  -4  -4   9   81.13    7.91
  -4  -4   9   90.06    6.86
  -4  -4   9   86.62   10.42
  -4  -4   9   81.99    6.81
  -4  -4   9   84.38    6.60
  -4  -4   9   79.95    9.06
  -4  -4   8  221.98   10.57
  -4  -4   8  210.82   16.30
  -4  -4   8  199.14   10.45
  -4  -4   8  202.86   10.14
  -4  -4   8  207.77   14.57
  -4  -4   8  181.07   12.97
  -4  -4   8  198.69   12.31
  -4  -4   7   69.64    7.85
  -4  -4   7   68.32    5.78
  -4  -4   7   76.35    8.80
  -4  -4   7   71.59    9.35
  -4  -4   7   72.63    6.54
  -4  -4   6   66.18   11.82
  -4  -4   6   54.42   11.09
  -4  -4   6   50.93   11.62
  -4  -4   6   58.76   12.16
  -4  -4   5  450.28   29.62
  -4  -4   5  443.30   31.34
  -4  -4   5  439.10   31.17
  -4  -4   4  134.26   16.92
  -4  -4   4  157.39   17.35
  -4  -4   3  446.36   29.51
   4  -4  -3  471.14   29.29
  -4  -4   3  454.01   31.22
  -4  -4   2  133.01   16.36
   4  -4  -2  124.08   15.71
  -4  -4   2  155.25   18.57
  -4  -4   1  381.72   28.13
   4  -4  -1  390.30   28.26
  -4  -4   1  432.61   32.07
   4  -4   0  305.68   25.77
  -4  -4   0  341.24   29.45
  -4  -4   0  331.61   27.71
  -4  -4  -1   39.15    9.76
   4  -4   1   39.57    9.83
  -4  -4  -1   38.29   10.19
  -4  -4  -2  459.89   35.56
   4  -4   2  395.74   30.65
  -4  -4  -2  449.21   36.38
   4  -4   3   69.99   13.24
  -4  -4  -3   77.35   15.67
   4  -4   3   78.20   14.37
   4  -4   3   77.87    7.62
   4  -4   4   95.85    8.42
   4  -4   4   98.15    8.22
   4  -4   4  109.03    8.93
   4  -4   4  106.19    9.08
   4  -4   5  212.14   12.59
   4  -4   5  202.87   11.91
   4  -4   5  204.13   12.34
   4  -4   5  179.66   11.39
   4  -4   5  202.38   12.71
   4  -4   6  167.02   11.00
   4  -4   6  157.90   10.40
   4  -4   6  159.10   10.72
   4  -4   6  157.36   10.53
   4  -4   6  165.77   11.30
   4  -4   7   32.11    4.65
   4  -4   7   29.62    4.54
   4  -4   7   25.67    4.24
   4  -4   7   29.41    4.61
   4  -4   7   30.15    4.68
   4  -4   7   26.53    4.45
   4  -4   8   20.75    3.56
   4  -4   8   17.42    3.21
   4  -4   8   16.54    3.15
   4  -4   8   15.69    3.04
   4  -4   8   18.16    3.34
   4  -4   8   17.50    3.37
   4  -4   9    6.44    1.80
   4  -4   9    5.35    1.71
   4  -4   9    7.50    2.03
  -4  -3  13    1.54    1.22
  -4  -3  13   -0.33    1.08
  -4  -3  13    0.85    1.35
  -4  -3  12   11.26    2.23
  -4  -3  12   20.28    4.01
  -4  -3  12   16.71    3.97
  -4  -3  11   24.18    3.69
  -4  -3  11   24.75    3.75
  -4  -3  11   34.60    4.19
  -4  -3  11   35.45    5.71
  -4  -3  11   26.11    3.86
  -4  -3  11   29.11    5.77
  -4  -3  10   19.84    5.19
  -4  -3  10   15.18    3.31
  -4  -3  10   20.93    4.17
  -4  -3  10   21.62    3.65
  -4  -3  10   19.62    4.67
  -4  -3  10   21.40    3.48
  -4  -3  10   21.20    3.60
  -4  -3  10   19.87    3.37
  -4  -3   9  161.76   11.20
  -4  -3   9  172.59    9.56
  -4  -3   9  154.39    9.50
  -4  -3   9  153.70    9.02
  -4  -3   9  141.15   11.99
  -4  -3   9  166.77   14.27
  -4  -3   9  159.05    9.53
  -4  -3   8   62.77    6.89
  -4  -3   8   70.78    5.99
  -4  -3   8   59.19    7.27
  -4  -3   8   65.36    6.12
  -4  -3   8   54.12    5.17
  -4  -3   8   70.37    8.38
  -4  -3   8   69.86    9.14
  -4  -3   7  208.00   20.58
  -4  -3   7  182.15   21.21
  -4  -3   6  122.46   15.28
  -4  -3   6  120.56   16.53
  -4  -3   6  104.36   15.14
  -4  -3   5  215.32   19.10
  -4  -3   5  210.92   20.55
  -4  -3   5  204.43   19.40
  -4  -3   4  387.55   24.65
  -4  -3   4  403.03   27.14
  -4  -3   3  537.92   29.08
   4  -3  -3  564.45   30.16
  -4  -3   3  508.17   30.61
  -4  -3   2 1098.62   41.83
   4  -3  -2 1096.00   42.34
  -4  -3   2 1063.14   44.63
   4  -3  -1  602.99   31.83
  -4  -3   1  640.93   35.62
  -4  -3   1  627.90   32.16
  -4  -3   0  204.82   19.38
  -4  -3   0  201.70   20.80
   4  -3   0  188.27   18.31
   4  -3   1  577.40   31.31
   4  -3   1  586.06   33.25
  -4  -3  -1  644.02   39.49
  -4  -3  -1  641.34   36.22
   4  -3   2  311.86   24.79
   4  -3   2  304.93   25.17
  -4  -3  -2  343.22   29.88
   4  -3   3  349.74   27.73
   4  -3   3  390.68   29.74
  -4  -3  -3  390.73   33.37
   4  -3   4  204.78   23.30
   4  -3   4  213.08   12.24
   4  -3   4  194.28   21.57
   4  -3   4  204.62   11.36
   4  -3   4  217.54   12.29
   4  -3   4  183.11   11.13
  -4  -3  -4  216.75   25.77
   4  -3   4  221.54   12.89
   4  -3   5   87.27    7.96
   4  -3   5   89.27    7.76
   4  -3   5   91.05    7.99
   4  -3   5   77.62    7.46
   4  -3   5   88.88    8.45
   4  -3   6  107.30    8.85
   4  -3   6   95.47    7.95
   4  -3   6   94.57    8.03
   4  -3   6   94.46    8.13
   4  -3   6  100.50    8.69
   4  -3   7  129.33    9.39
   4  -3   7  125.66    9.10
   4  -3   7  129.73    9.21
   4  -3   7  136.67    9.75
   4  -3   7  140.77    9.74
   4  -3   7  129.21    9.67
   4  -3   8    3.37    2.10
   4  -3   8    4.76    2.04
   4  -3   8    2.41    1.59
   4  -3   8    5.55    1.97
   4  -3   8    4.51    2.01
   4  -3   8    2.55    1.83
   4  -3   9    8.91    2.33
   4  -3   9    8.18    2.08
   4  -3   9   10.17    2.39
   4  -3   9    7.77    1.99
   4  -3   9    9.72    2.29
   4  -3  10   11.42    1.98
   4  -3  10   10.15    1.79
  -4  -2  13    2.30    1.47
  -4  -2  13    1.72    1.27
  -4  -2  13    1.86    1.26
  -4  -2  12   -1.49    2.00
  -4  -2  12    2.72    1.45
  -4  -2  12   -0.48    1.45
  -4  -2  11   25.07    4.83
  -4  -2  11   26.16    3.82
  -4  -2  11   22.85    5.22
  -4  -2  10   66.50    9.06
  -4  -2  10   51.67    5.38
  -4  -2  10   68.01    8.14
  -4  -2  10   53.50    6.53
  -4  -2  10   54.05    5.66
  -4  -2   9   23.08    3.63
  -4  -2   9   20.83    3.69
  -4  -2   9   25.69    4.74
  -4  -2   9   20.68    4.57
  -4  -2   9   23.05    3.63
  -4  -2   9   28.48    3.98
  -4  -2   9   25.62    5.64
  -4  -2   8  182.80   11.57
  -4  -2   8  165.06   13.78
  -4  -2   8  172.41    9.30
  -4  -2   8  128.59   10.74
  -4  -2   8  160.65   20.52
  -4  -2   8  168.37    9.55
  -4  -2   8  144.28    8.34
  -4  -2   8  165.87   12.47
  -4  -2   8  183.69   20.57
  -4  -2   7  332.60   25.60
  -4  -2   7  324.10   27.35
  -4  -2   6  562.47   30.62
  -4  -2   6  558.87   33.99
  -4  -2   6  541.93   32.50
  -4  -2   5  565.98   28.92
  -4  -2   5  532.88   30.65
  -4  -2   5  486.08   26.75
  -4  -2   4  352.34   24.13
   4  -2  -4  434.86   25.66
  -4  -2   4  389.20   22.73
  -4  -2   3  541.55   25.92
   4  -2  -3  613.73   29.92
  -4  -2   3  544.19   29.49
  -4  -2   2  783.64   31.28
   4  -2  -2  863.42   35.58
  -4  -2   2  753.80   35.26
  -4  -2   1  189.23   15.56
   4  -2  -1  190.12   16.92
  -4  -2   1  203.00   18.70
  -4  -2   1  172.93   14.95
  -4  -2   0  326.87   21.46
   4  -2   0  300.25   21.40
  -4  -2   0  354.16   25.62
  -4  -2   0  291.19   19.70
   4  -2   1  484.46   28.00
  -4  -2  -1  594.10   35.21
   4  -2   2  203.08   19.06
  -4  -2  -2  272.30   25.60
   4  -2   3   42.77    9.38
  -4  -2  -3   61.80   13.69
   4  -2   4  198.38   20.81
  -4  -2  -4  257.47   27.81
   4  -2   5   62.52    6.62
   4  -2   5   55.92    6.00
   4  -2   5   59.93    6.23
   4  -2   5   58.76    6.37
   4  -2   5   63.37    6.77
   4  -2   6   17.26    3.88
   4  -2   6   18.37    3.66
   4  -2   6   14.55    3.21
   4  -2   6   17.65    3.43
   4  -2   6   13.18    3.18
   4  -2   6   22.81    4.10
   4  -2   7  122.01    9.18
   4  -2   7  121.42    8.83
   4  -2   7  119.66    8.95
   4  -2   7  114.12    8.77
   4  -2   7  134.12    9.55
   4  -2   7  124.34    9.48
   4  -2   8   -0.40    1.23
   4  -2   8    0.36    1.06
   4  -2   8    2.54    1.99
   4  -2   8    1.26    1.33
   4  -2   8    1.10    1.06
   4  -2   9    5.78    1.83
   4  -2   9    7.80    2.06
   4  -2   9    8.04    2.34
   4  -2   9    6.75    2.11
   4  -2   9   10.72    2.62
   4  -2  10   -0.43    0.81
   4  -2  10    0.40    0.90
   4  -2  10    0.22    0.68
  -4  -1  14   18.72    2.36
  -4  -1  14   13.11    2.13
  -4  -1  13    2.16    1.26
  -4  -1  13    1.97    0.91
  -4  -1  13    2.83    1.47
  -4  -1  13    2.04    1.40
  -4  -1  12   38.10    4.39
  -4  -1  12   38.91    5.60
  -4  -1  12   42.19    6.60
  -4  -1  11   92.53    7.24
  -4  -1  11   88.59    9.10
  -4  -1  11   94.75   10.54
  -4  -1  10   63.31    7.00
  -4  -1  10   67.55    9.15
  -4  -1  10   63.38    6.11
  -4  -1  10   62.90    7.90
  -4  -1   9  248.30   13.92
  -4  -1   9  240.79   11.84
  -4  -1   9  256.40   12.37
  -4  -1   9  230.70   11.03
  -4  -1   9  256.55   15.75
  -4  -1   9  242.88   17.19
  -4  -1   8  154.80   20.15
  -4  -1   8  135.61    8.16
  -4  -1   8  166.56   12.47
  -4  -1   8  158.90   13.43
  -4  -1   8  170.82   20.40
  -4  -1   7  357.77   28.49
  -4  -1   7  417.30   29.02
  -4  -1   6  600.56   31.39
  -4  -1   6  555.60   33.28
  -4  -1   6  526.40   31.40
  -4  -1   5  206.68   16.90
  -4  -1   5  142.66   15.22
  -4  -1   4 1729.48   44.62
   4  -1  -4 1843.21   52.57
  -4  -1   3  212.83   14.60
   4  -1  -3  245.92   18.75
  -4  -1   3  200.26   17.10
  -4  -1   2  365.48   18.71
   4  -1  -2  389.30   23.43
  -4  -1   2  338.32   21.90
  -4  -1   2  364.29   22.42
  -4  -1   1 1635.38   39.38
   4  -1  -1 1698.73   49.00
  -4  -1   1 1754.15   50.94
  -4  -1   1 1726.43   48.84
   4  -1   0   65.94   10.16
  -4  -1   0   79.78   11.92
  -4  -1   0   73.65   10.43
   4  -1   1  454.30   26.22
  -4  -1  -1  508.73   30.87
  -4  -1  -1  532.10   29.23
   4  -1   2  392.86   25.45
  -4  -1  -2  443.49   30.90
  -4  -1  -2  426.15   27.65
   4  -1   3  155.10   16.88
  -4  -1  -3  181.69   19.30
  -4  -1  -3  220.01   23.37
   4  -1   4  180.47   19.00
   4  -1   5   82.12    7.34
   4  -1   5   81.20    7.30
   4  -1   5   76.97    6.82
   4  -1   5   75.06    6.85
   4  -1   5   82.81    7.34
   4  -1   5   82.52    7.50
   4  -1   6   49.44    5.81
   4  -1   6   59.12    6.49
   4  -1   6   50.37    5.67
   4  -1   6   58.67    6.29
   4  -1   6   57.45    6.47
   4  -1   6   50.86    5.86
   4  -1   7   22.79    4.17
   4  -1   7   21.83    3.84
   4  -1   7   21.92    3.90
   4  -1   7   29.61    4.65
   4  -1   7   21.24    4.00
   4  -1   8    8.60    2.35
   4  -1   8   10.79    2.65
   4  -1   8    8.95    2.66
   4  -1   8   11.09    2.85
   4  -1   8   10.22    2.54
   4  -1   9   16.60    3.08
   4  -1   9   20.28    3.40
   4  -1   9   16.16    3.08
   4  -1   9   16.60    3.09
   4  -1  10    4.05    1.37
   4  -1  10    4.85    1.43
   4  -1  10    7.54    1.70
  -4   0  14    1.77    0.82
  -4   0  13   19.04    3.20
  -4   0  13   15.32    2.42
  -4   0  13   14.62    3.08
  -4   0  13   14.55    3.31
  -4   0  12   21.94    3.94
  -4   0  12   21.85    3.35
  -4   0  12   16.69    3.73
  -4   0  12   13.85    3.83
  -4   0  11   74.31    6.49
  -4   0  11   70.18    9.07
  -4   0  11   78.90    8.50
  -4   0  10   54.20    8.39
  -4   0  10   65.53    6.11
  -4   0  10   59.75    8.37
  -4   0   9  154.81   11.03
  -4   0   9  188.48   10.10
  -4   0   9  202.78   14.00
  -4   0   9  179.05   14.90
  -4   0   8   14.65    6.51
  -4   0   7  129.54   16.93
  -4   0   6  220.70   20.61
  -4   0   6  241.98   21.00
  -4   0   5   -0.17    2.70
  -4   0   5    0.18    2.56
  -4   0   5   -1.53    1.91
   4   0  -5    0.63    2.74
  -4   0   4  173.47   13.91
  -4   0   4  154.80   14.42
   4   0  -4  151.28   14.44
  -4   0   3  435.78   23.36
  -4   0   3  416.98   24.15
  -4   0   2  781.75   31.16
  -4   0   2  772.68   33.16
   4   0  -1 1966.30   51.88
  -4   0   1 1974.42   50.56
  -4   0   1 1960.12   53.36
   4   0   0  262.37   19.31
  -4   0   0  258.70   18.99
  -4   0   0  277.47   20.81
   4   0   1 1316.15   44.83
  -4   0  -1 1450.96   49.85
  -4   0  -1 1380.95   47.45
   4   0   2   95.54   12.50
  -4   0  -2  105.18   14.32
  -4   0  -2  115.21   15.15
   4   0   3  127.72   15.22
  -4   0  -3  143.81   17.93
  -4   0  -4  259.97   25.21
  -4   0  -5    1.67    4.29
   4   0   5    0.89    0.97
   4   0   5    0.83    1.10
   4   0   5    3.57    2.19
   4   0   5    3.37    1.79
   4   0   6  264.07   13.42
   4   0   6  274.53   13.20
   4   0   6  253.01   13.61
   4   0   6  301.17   14.31
   4   0   6  259.60   12.82
   4   0   6  262.83   13.53
   4   0   7    6.34    2.34
   4   0   7    8.21    2.57
   4   0   7    6.09    2.22
   4   0   7    6.80    2.51
   4   0   7    9.08    2.91
   4   0   8   21.19    3.66
   4   0   8   16.30    3.33
   4   0   8   19.71    3.71
   4   0   8   17.88    3.53
   4   0   9   41.60    4.74
   4   0   9   38.96    4.78
   4   0   9   45.93    4.98
   4   0  10    1.98    1.17
   4   0  10    0.61    1.04
   4   0  10    1.36    0.83
  -4   1  13    3.30    1.41
  -4   1  13    1.69    1.13
  -4   1  13    1.00    0.93
  -4   1  12   52.17    5.94
  -4   1  12   46.96    4.85
  -4   1  12   34.14    5.06
  -4   1  12   39.55    6.09
  -4   1  11  130.16   10.10
  -4   1  11  107.91    7.79
  -4   1  11  101.32    9.48
  -4   1  11  100.50   10.69
  -4   1  10   60.97    6.01
  -4   1  10   57.59    7.80
  -4   1  10   59.81    8.49
  -4   1   9  250.20   13.99
  -4   1   9  251.00   17.25
  -4   1   9  252.62   12.89
  -4   1   9  280.18   12.56
  -4   1   9  272.06   16.23
  -4   1   8  137.57    9.98
  -4   1   8  156.46   20.23
  -4   1   8  142.77    8.77
  -4   1   7  361.48   28.95
  -4   1   6  519.36   32.74
   4   1  -6  545.62   31.45
  -4   1   5  164.69   17.25
   4   1  -5  152.83   15.51
  -4   1   4 1805.34   53.53
   4   1  -4 1683.69   49.64
  -4   1   3  201.51   15.03
  -4   1   3  204.24   17.36
   4   1  -3  205.97   16.77
   4   1  -2  288.90   20.84
  -4   1   2  273.83   17.37
  -4   1   2  282.13   20.58
   4   1  -1 1897.24   54.33
  -4   1   1 1799.81   44.82
  -4   1   1 1797.99   52.09
   4   1   0   72.06   11.34
  -4   1   0   69.41    9.15
  -4   1   0   74.73   10.98
   4   1   1  567.75   30.71
  -4   1  -1  505.31   26.92
  -4   1  -1  559.27   31.74
   4   1   2  422.01   27.24
  -4   1  -2  379.82   25.48
  -4   1  -2  424.61   29.27
   4   1   3  167.81   17.84
  -4   1  -3  158.81   19.23
  -4   1  -4  230.99   24.66
  -4   1  -5   78.90   15.29
  -4   1  -5   72.49    6.65
   4   1   5   84.54    7.23
   4   1   5   82.18    7.28
   4   1   5   71.15    6.95
   4   1   5   92.45    7.77
   4   1   5   70.62    6.76
   4   1   6   47.18    5.53
   4   1   6   50.22    5.86
   4   1   6   43.55    5.71
   4   1   6   56.78    6.17
   4   1   7   22.81    3.96
   4   1   7   27.80    4.17
   4   1   7   22.16    4.09
   4   1   7   22.37    3.87
   4   1   8    7.61    2.24
   4   1   8    9.00    2.76
   4   1   8   11.46    3.17
   4   1   9   16.85    2.93
   4   1   9   15.64    3.07
   4   1   9   21.67    3.48
   4   1  10    3.55    1.28
   4   1  10    6.52    1.72
   4   1  10    4.31    1.43
  -4   2  13    3.87    1.48
  -4   2  13    1.65    1.22
  -4   2  12   -0.03    1.36
  -4   2  12   -1.38    1.50
  -4   2  11   25.66    4.47
  -4   2  11   20.77    3.56
  -4   2  10   64.20    6.49
  -4   2  10   77.10    6.76
  -4   2   9   16.24    3.67
  -4   2   9   16.45    3.19
  -4   2   9   17.56    3.64
  -4   2   8  161.67   21.48
  -4   2   8  152.95   10.50
  -4   2   8  159.57    9.77
  -4   2   8  141.35   11.73
  -4   2   8  158.65   10.09
  -4   2   7  352.04   29.57
  -4   2   6  557.06   34.30
   4   2  -6  541.43   32.94
  -4   2   5  613.03   33.70
   4   2  -5  587.31   32.36
  -4   2   4  409.89   26.01
   4   2  -4  372.13   24.49
  -4   2   3  541.31   28.63
   4   2  -3  500.91   27.70
  -4   2   3  503.45   28.57
  -4   2   2  716.99   33.84
   4   2  -2  732.29   32.92
  -4   2   1  175.38   16.90
   4   2   0  273.52   22.13
  -4   2   0  325.95   23.93
   4   2   1  441.02   28.71
  -4   2  -1  484.06   30.37
   4   2   2  239.72   21.78
  -4   2  -2  269.57   24.06
  -4   2  -3   52.03   11.26
  -4   2  -4  206.46   23.48
  -4   2  -5   57.65    6.10
   4   2   5   61.86    6.32
   4   2   5   59.48    6.41
   4   2   5   75.80    7.26
   4   2   5   64.80    6.74
  -4   2  -6   18.13    3.57
   4   2   6   12.48    3.06
   4   2   6   17.28    3.49
   4   2   6   16.55    3.58
   4   2   6   18.84    3.81
   4   2   7  104.30    8.59
   4   2   7  117.78    8.77
   4   2   7  120.74    9.16
  -4   2  -7  104.08    8.30
   4   2   8    1.56    1.47
   4   2   8    2.22    1.79
   4   2   8    2.84    1.61
   4   2   9    6.91    2.01
   4   2   9    8.68    2.23
   4   2   9    7.95    2.28
   4   2  10    0.65    0.66
   4   2  10    0.28    0.93
   4   2  10   -0.61    0.93
  -4   3  13   -0.18    0.90
  -4   3  12   20.61    3.42
  -4   3  12   21.94    3.18
  -4   3  11   36.55    5.23
  -4   3  11   33.42    4.41
  -4   3  10   27.42    4.08
  -4   3  10   21.62    3.74
  -4   3   9  165.01   10.68
  -4   3   9  183.47   11.03
  -4   3   8   63.85    6.98
  -4   3   8   55.52    6.26
  -4   3   8   64.45    6.53
  -4   3   8   50.62    7.26
  -4   3   7  178.07   22.08
  -4   3   6  125.70   17.36
   4   3  -6  122.68   16.81
  -4   3   5  214.74   21.29
   4   3  -5  219.80   21.21
  -4   3   4  327.61   24.53
   4   3  -4  328.85   24.69
   4   3  -3  466.20   28.34
  -4   3   3  463.87   28.77
   4   3  -2  883.28   39.08
  -4   3   2  988.79   41.91
   4   3  -1  478.85   29.15
  -4   3   1  537.15   31.20
  -4   3   0  203.16   17.52
   4   3   0  159.16   17.38
  -4   3   0  210.67   20.32
   4   3   1  375.11   27.05
  -4   3  -1  628.92   36.42
  -4   3  -2  311.92   26.91
   4   3   2  162.11   18.40
  -4   3  -3  374.38   31.01
  -4   3  -4  199.40   23.68
  -4   3  -4  208.81   10.96
   4   3   4  211.89   11.76
   4   3   4  197.74   11.93
   4   3   4  207.49   12.13
   4   3   4  218.38   12.53
   4   3   5   79.82    7.39
   4   3   5   82.22    7.75
   4   3   5   89.75    8.29
  -4   3  -5   82.17    7.22
  -4   3  -6   91.13    7.73
   4   3   6  103.13    8.47
   4   3   6   99.83    8.57
   4   3   6  106.84    9.03
   4   3   7  130.97    9.30
  -4   3  -7  120.78    8.78
   4   3   7  126.95    9.36
   4   3   7  127.18    9.51
   4   3   8    3.56    1.70
   4   3   8    5.15    2.06
   4   3   8    2.44    1.40
   4   3   9    6.55    1.76
   4   3   9    8.13    2.08
   4   3   9    4.96    1.85
   4   3   9    6.89    1.94
   4   3  10   12.03    2.06
   4   4 -12   24.68    3.22
  -4   4  12   35.51    3.86
  -4   4  11   19.27    3.40
  -4   4  11   16.80    3.03
  -4   4  10   91.91    7.59
  -4   4  10  104.63    8.10
  -4   4   9   88.12    7.84
  -4   4   9  105.65    8.62
  -4   4   8  214.14   12.26
  -4   4   8  195.76   11.81
  -4   4   7   66.62    7.37
  -4   4   7   82.86    7.95
  -4   4   7   84.14   17.70
  -4   4   7   60.93    6.60
  -4   4   7   61.02    7.72
  -4   4   7   88.20    7.89
   4   4  -6   53.19   11.70
   4   4  -5  400.30   30.21
   4   4  -4  168.42   19.18
   4   4  -3  460.78   30.84
  -4   4   3  415.42   28.58
   4   4  -2  127.42   16.30
  -4   4   2  121.31   15.32
  -4   4   1  429.64   28.13
   4   4  -1  339.60   26.74
  -4   4   1  378.11   27.69
  -4   4   0  283.09   22.98
  -4   4   0  260.73   23.95
  -4   4  -1   30.39    8.52
  -4   4  -1   34.32    7.98
   4   4   1   27.03    7.45
  -4   4  -2  364.94   30.81
  -4   4  -3   78.25    6.84
   4   4   3   84.63    7.67
   4   4   3   86.64    8.04
   4   4   3   78.29    7.61
   4   4   3   82.45    7.84
  -4   4  -3   91.81   15.92
   4   4   4  114.33    9.18
   4   4   4  118.47    9.60
   4   4   4  103.58    9.18
   4   4   4  119.47    9.78
  -4   4  -4  112.92    8.31
  -4   4  -5  195.44   10.87
   4   4   5  181.92   11.59
   4   4   5  200.41   12.58
   4   4   5  180.11   11.65
   4   4   5  183.94   12.19
  -4   4  -6  156.09    9.72
   4   4   6  178.93   11.73
   4   4   6  156.32   10.69
   4   4   6  172.57   11.62
   4   4   6  171.87   11.07
  -4   4  -7   32.55    4.45
   4   4   7   29.63    4.55
   4   4   7   37.05    5.10
   4   4   7   41.19    5.36
   4   4   7   30.19    4.71
   4   4   8   15.14    2.96
   4   4   8   17.61    3.24
   4   4   8   19.86    3.38
   4   4   8   12.66    2.91
   4   4   9    4.77    1.53
   4   4   9    6.94    1.87
   4   5 -12   18.01    2.51
  -4   5  11    0.35    1.17
   4   5 -11    2.34    1.20
  -4   5  11    0.21    0.92
  -4   5  10   17.25    3.34
  -4   5  10   18.41    3.40
  -4   5   9    5.37    2.05
  -4   5   9    2.28    1.71
  -4   5   8   74.17    7.38
  -4   5   8   88.59    7.97
  -4   5   7   52.02    7.00
  -4   5   7   48.33    5.98
  -4   5   6   33.13    5.06
  -4   5   6   25.60    4.60
  -4   5   6   31.28    4.83
  -4   5   5  222.15   12.38
   4   5  -5  270.07   26.29
  -4   5   5  248.30   13.41
   4   5  -4   42.84   10.43
   4   5  -3  187.89   21.45
  -4   5   3  134.48   17.08
   4   5  -2  186.83   21.49
  -4   5   2  185.81   20.37
  -4   5   1    4.20    2.24
   4   5  -1   14.88    6.22
  -4   5   1   11.19    5.14
   4   5   0  375.10   31.23
  -4   5   0  446.22   31.93
  -4   5   0  426.66   32.63
  -4   5  -1    9.08    5.00
   4   5   1    9.36    2.56
  -4   5  -1   13.01    6.69
  -4   5  -2  198.26   10.57
   4   5   2  214.22   12.62
   4   5   2  221.36   13.00
   4   5   2  219.92   12.82
   4   5   2  189.20   12.11
  -4   5  -2  210.08   11.87
  -4   5  -2  219.57   25.42
  -4   5  -2  198.33   10.74
  -4   5  -3   34.35    4.65
   4   5   3   32.89    5.17
   4   5   3   37.17    5.72
   4   5   3   34.67    5.31
   4   5   3   32.41    5.28
  -4   5  -4   23.48    4.04
   4   5   4   19.66    4.03
   4   5   4   24.35    4.65
   4   5   4   20.16    4.09
   4   5   4   17.75    4.16
   4   5   5  142.99   10.52
   4   5   5  143.46   10.87
   4   5   5  137.77   10.21
   4   5   5  124.90   10.21
  -4   5  -5  135.10    8.97
  -4   5  -6    6.02    2.05
   4   5   6    0.96    1.01
   4   5   6    6.57    2.56
   4   5   6    5.36    2.08
   4   5   6    5.21    2.37
  -4   5  -7    6.13    2.24
   4   5   7    4.86    1.93
   4   5   7   13.09    3.15
   4   5   7    6.28    2.29
   4   5   7    8.07    2.56
   4   5   8   23.85    3.40
   4   5   8   31.65    4.02
   4   6 -11   19.30    2.76
  -4   6  11   17.51    2.63
  -4   6  10   59.73    5.51
  -4   6   9   17.59    3.52
  -4   6   8   57.94    6.28
  -4   6   8   65.68    6.77
  -4   6   7   88.29    8.56
  -4   6   7   87.74    7.91
  -4   6   6   27.45    4.67
  -4   6   6   23.38    4.36
  -4   6   5  225.68   12.71
  -4   6   5  219.02   12.80
  -4   6   4   45.47    5.67
  -4   6   4   43.79    5.71
  -4   6   4   60.67    6.61
  -4   6   3   79.26    7.32
  -4   6   3   62.52    6.65
  -4   6   3   75.50    7.33
  -4   6   2  420.24   17.36
  -4   6   2  498.74   17.38
  -4   6   1   63.91    6.86
  -4   6   1   66.25    6.33
   4   6  -1   60.01   13.32
  -4   6   0  359.53   16.63
  -4   6   0  346.99   14.51
  -4   6   0  339.70   14.25
  -4   6  -1   47.19    5.38
  -4   6  -1   53.63    6.71
  -4   6  -1   54.94    6.11
  -4   6  -2  145.21    9.13
   4   6   2  149.74   11.18
  -4   6  -2  160.37   10.50
  -4   6  -2  147.98    9.49
  -4   6  -3   72.15    6.52
   4   6   3   74.07    8.02
  -4   6  -3   72.34    7.68
  -4   6  -3   73.48    6.75
  -4   6  -4    0.40    1.13
  -4   6  -4    1.27    1.09
  -4   6  -5   84.21    6.71
   4   6   5   90.29    8.52
   4   6   5   88.75    7.96
  -4   6  -6   26.40    3.70
   4   6   6   22.95    4.11
   4   7 -11   22.33    2.46
   4   7 -10   24.94    3.25
  -4   7  10   28.50    3.49
  -4   7   9   14.65    2.91
  -4   7   8   46.28    5.44
   4   7  -7   39.58    4.71
  -4   7   7   42.44    5.43
  -4   7   6   21.23    4.09
  -4   7   6   14.84    3.35
   4   7  -6   15.99    3.30
  -4   7   5  108.80    8.88
  -4   7   5   84.03    7.94
  -4   7   4   52.21    6.23
  -4   7   4   50.43    6.21
  -4   7   4   40.48    5.52
  -4   7   3   25.55    4.38
  -4   7   3   18.59    3.98
  -4   7   2  303.82   15.01
  -4   7   2  373.91   15.18
  -4   7   1   99.39    8.69
  -4   7   1  114.20    8.46
  -4   7   0   99.87    8.88
  -4   7   0   98.13    7.79
  -4   7   0  109.02    8.28
  -4   7  -1   27.34    4.37
  -4   7  -1   20.91    4.48
  -4   7  -1   19.38    3.65
  -4   7  -2   26.22    4.92
  -4   7  -2   33.89    5.24
  -4   7  -2   29.67    4.34
  -4   7  -3   67.89    7.89
  -4   7  -3   64.83    6.03
  -4   7  -3   74.02    6.58
  -4   7  -4    9.16    3.21
  -4   7  -4    7.57    2.19
  -4   7  -4    6.97    2.03
  -4   7  -5   34.65    3.96
  -4   7  -5   32.56    5.14
  -4   7  -6    5.60    2.06
  -4   7  -7    3.03    1.20
   4   8 -10   12.20    1.74
   4   8  -9    6.08    1.63
  -4   8   8   57.25    5.46
  -4   8   7   24.20    3.99
   4   8  -7   29.79    3.60
  -4   8   6   43.04    5.39
   4   8  -6   53.59    5.47
   4   8  -5   71.08    6.65
  -4   8   5   52.29    6.15
  -4   8   4   10.76    3.15
  -4   8   4    6.19    2.43
   4   8  -4    6.78    2.34
  -4   8   3  116.88    9.27
  -4   8   3  128.90    9.09
   4   8  -3  113.20    8.78
  -4   8   2   64.41    7.06
   4   8  -2   70.31    7.23
  -4   8   2   84.32    7.28
  -4   8   1    7.92    2.34
  -4   8   1    5.56    2.27
   4   8  -1    6.16    2.21
  -4   8   0   56.33    6.74
  -4   8   0   60.82    6.23
   4   8   0   53.26    6.03
   4   8   1   65.60    6.21
  -4   8  -1   76.41    7.94
  -4   8  -1   79.55    7.00
  -4   8  -2   25.61    4.68
  -4   8  -2   35.99    5.00
  -4   8  -2   30.90    4.36
  -4   8  -3   72.89    7.67
  -4   8  -3   87.78    6.79
  -4   8  -4   42.69    5.48
  -4   8  -4   47.68    4.55
  -4   8  -5   31.19    4.26
  -4   8  -6   24.66    3.32
   4   9  -8    9.39    1.54
   4   9  -7   12.52    1.96
   4   9  -7   22.24    2.57
  -4   9   6   31.08    4.71
   4   9  -6   25.18    3.22
  -4   9   5    1.70    2.02
   4   9  -5    1.53    1.37
  -4   9   4   59.77    6.42
   4   9  -4   54.72    5.49
  -4   9   3   56.29    6.14
  -4   9   3   64.65    6.29
   4   9  -3   51.94    5.53
  -4   9   2   72.46    7.20
  -4   9   2   93.06    7.37
   4   9  -2   81.99    7.02
  -4   9   1   38.84    5.21
  -4   9   1   51.15    5.43
   4   9  -1   48.86    5.32
  -4   9   0   10.59    3.36
   4   9   0   12.37    2.60
  -4   9   0   20.48    3.82
  -4   9  -1   57.23    6.41
  -4   9  -1   63.71    5.80
   4   9   1   47.74    4.58
  -4   9  -2   10.54    3.17
  -4   9  -3   56.16    5.85
  -4   9  -4    9.81    2.43
  -4   9  -5    5.71    1.55
   4  10  -5    0.03    0.71
  -4  10   5    8.57    2.49
  -4  10   4   43.81    4.96
   4  10  -4   49.75    4.28
  -4  10   3    3.30    2.01
   4  10  -3    5.57    1.75
  -4  10   2   22.26    3.74
   4  10  -2   15.03    2.58
  -4  10   1   26.62    4.04
   4  10  -1   25.50    3.22
  -4  10   0    6.71    2.19
   4  10   0   10.08    1.87
  -4  10  -1   47.30    5.06
  -4  10  -2    3.90    1.55
  -4  10  -3   13.11    2.31
  -5 -10   5    4.11    1.15
  -5 -10   2   13.77    1.75
  -5  -9   7   11.20    1.81
  -5  -9   7    8.76    1.66
  -5  -9   7    9.00    1.70
  -5  -9   6   12.87    2.20
  -5  -9   5   28.08    2.80
  -5  -9   4   23.80    2.84
  -5  -9  -2    1.43    0.94
  -5  -9  -3   18.25    2.15
  -5  -8   9    1.84    0.88
  -5  -8   9    3.64    1.13
  -5  -8   9    2.63    1.09
  -5  -8   9    1.34    0.79
  -5  -8   8   15.78    2.87
  -5  -8   8   23.99    2.86
  -5  -8   8   19.23    2.74
  -5  -8   7   24.47    3.35
  -5  -8   7   16.57    3.23
  -5  -8   7   17.75    2.90
  -5  -8   6   18.50    2.71
  -5  -8   5   36.86    3.89
  -5  -8   3   52.42    5.33
  -5  -8  -4    4.83    1.44
   5  -8   4    4.21    1.43
  -5  -7  10    0.33    0.86
  -5  -7  10    0.49    0.78
  -5  -7  10    1.21    0.74
  -5  -7  10   -0.33    0.78
  -5  -7   9   17.91    3.29
  -5  -7   9   22.93    2.94
  -5  -7   9   18.49    2.84
  -5  -7   9   24.53    3.21
  -5  -7   8    5.23    2.03
  -5  -7   8    9.52    2.28
  -5  -7   8    7.86    2.04
  -5  -7   8    9.87    2.97
  -5  -7   8   10.18    2.03
  -5  -7   7   21.42    3.30
  -5  -7   7   27.66    3.38
  -5  -7   7   21.65    4.48
  -5  -7   6   15.77    3.84
  -5  -7   6   13.59    3.63
  -5  -7   6   17.65    2.91
  -5  -7   5   24.83    3.91
  -5  -7   5   27.32    3.62
  -5  -7   5   22.35    4.89
  -5  -7   4   43.67    5.29
  -5  -7   4   38.67    6.46
  -5  -7   3   69.99    9.05
   5  -7   3   28.77    4.44
   5  -7   4   12.65    2.65
   5  -7   4   12.26    2.66
   5  -7   5   16.57    2.79
   5  -7   5   10.53    2.34
   5  -7   6    6.05    1.52
   5  -7   6    5.96    1.49
  -5  -6  11   17.75    2.31
  -5  -6  11   21.54    2.78
  -5  -6  11   21.38    3.21
  -5  -6  11   24.41    3.85
  -5  -6  11   18.69    2.52
  -5  -6  10   15.77    2.64
  -5  -6  10   16.11    2.96
  -5  -6  10   29.64    3.42
  -5  -6  10   19.57    3.04
  -5  -6  10   21.12    3.80
  -5  -6  10   22.13    4.39
  -5  -6  10   25.39    3.24
  -5  -6   9   40.23    5.17
  -5  -6   9   58.72    5.16
  -5  -6   9   52.56    5.09
  -5  -6   9   60.29    4.91
  -5  -6   9   57.50    6.97
  -5  -6   9   60.23    7.88
  -5  -6   8   39.64    5.45
  -5  -6   8   56.02    5.19
  -5  -6   8   41.82    4.67
  -5  -6   8   49.24    4.55
  -5  -6   8   45.39    6.43
  -5  -6   8   58.25    8.44
  -5  -6   7    8.33    2.24
  -5  -6   7   13.25    3.59
  -5  -6   7   12.76    3.92
  -5  -6   7   14.78    2.91
  -5  -6   7    9.59    3.36
  -5  -6   6  143.06    9.33
  -5  -6   6  147.00    8.27
  -5  -6   6  133.96   12.02
  -5  -6   6  153.29   14.00
  -5  -6   6  150.33   11.88
  -5  -6   5   99.85    7.88
  -5  -6   5   90.11   10.03
  -5  -6   5  111.30   10.31
  -5  -6   5   94.56   11.11
  -5  -6   4   63.86    7.91
  -5  -6   4   54.36    8.00
  -5  -6   3  392.79   19.99
  -5  -6  -3   47.74    5.46
   5  -6   3   52.46    6.18
   5  -6   3   44.75    5.73
   5  -6   4   83.71    7.60
  -5  -6  -4   78.48    6.55
   5  -6   4   89.19    7.65
  -5  -6  -5   35.51    4.10
   5  -6   5   34.08    4.62
   5  -6   5   33.51    4.57
  -5  -6  -6    4.08    1.49
   5  -6   6    5.07    1.68
   5  -6   6    3.64    1.78
  -5  -6  -7   13.82    2.06
   5  -6   7   14.44    2.34
   5  -6   7   17.88    2.64
  -5  -5  12    2.14    0.99
  -5  -5  12    3.79    1.29
  -5  -5  12    4.29    1.76
  -5  -5  11    1.20    0.99
  -5  -5  11    0.57    0.91
  -5  -5  11    1.87    1.30
  -5  -5  11    3.47    1.57
  -5  -5  11    0.66    1.16
  -5  -5  10   14.52    2.73
  -5  -5  10   13.22    2.85
  -5  -5  10   22.80    3.22
  -5  -5  10   17.77    3.09
  -5  -5  10   22.22    4.18
  -5  -5  10   18.15    2.84
  -5  -5  10   21.98    4.85
  -5  -5  10   23.75    3.27
  -5  -5   9   21.29    3.38
  -5  -5   9   20.25    3.35
  -5  -5   9   23.10    3.36
  -5  -5   9   18.11    4.11
  -5  -5   9   20.61    4.88
  -5  -5   9   16.09    3.53
  -5  -5   8   23.07    3.57
  -5  -5   8   27.31    5.07
  -5  -5   8   24.67    3.80
  -5  -5   8   26.68    3.60
  -5  -5   8   31.77    5.70
  -5  -5   8   23.50    5.32
  -5  -5   7   32.47    4.47
  -5  -5   7   36.62    5.95
  -5  -5   7   32.77    4.01
  -5  -5   7   35.35    6.22
  -5  -5   7   32.56    6.38
  -5  -5   6   38.52    4.27
  -5  -5   6   31.00    6.02
  -5  -5   6   41.12    5.01
  -5  -5   6   47.52    6.70
  -5  -5   6   44.33    7.79
  -5  -5   5   16.81    4.91
  -5  -5   5   15.32    3.24
  -5  -5   5   16.32    4.43
  -5  -5   5   19.88    4.41
  -5  -5   4   55.58    8.69
  -5  -5   4   79.36    8.70
  -5  -5   3   54.20    6.48
  -5  -5   3   46.66    5.10
  -5  -5   3   46.96    8.30
  -5  -5   2   64.30   13.22
   5  -5  -2   66.89   13.95
  -5  -5   2   61.22    9.45
  -5  -5   2   71.02    7.65
  -5  -5   1   47.55    6.42
  -5  -5   1   54.80    9.19
  -5  -5   0   29.92    7.09
  -5  -5  -1   55.84    6.18
   5  -5   2   55.63    6.77
   5  -5   2   42.76    5.86
   5  -5   3   15.41    3.79
   5  -5   3   12.22    3.26
   5  -5   4   76.21    7.57
   5  -5   4   66.60    6.72
   5  -5   4   73.51    7.15
   5  -5   4   75.52    7.40
   5  -5   5   14.42    3.39
   5  -5   5   15.28    3.08
   5  -5   5   15.70    3.59
   5  -5   6    2.52    1.74
   5  -5   6    1.72    1.41
   5  -5   6    0.13    1.34
   5  -5   7    6.29    2.00
   5  -5   7    2.23    0.99
   5  -5   7    8.31    2.16
  -5  -5  -8   12.98    1.98
   5  -5   8   10.24    1.88
   5  -5   8   12.35    2.02
  -5  -4  12    1.47    0.97
  -5  -4  12    2.94    1.69
  -5  -4  12    3.43    1.99
  -5  -4  11   33.60    4.55
  -5  -4  11   35.64    3.88
  -5  -4  11   36.28    5.35
  -5  -4  11   41.75    6.42
  -5  -4  11   26.15    3.42
  -5  -4  10   53.85    7.94
  -5  -4  10   53.26    6.05
  -5  -4  10   69.23    5.78
  -5  -4  10   60.87    5.74
  -5  -4  10   67.15    5.69
  -5  -4  10   60.90    7.45
  -5  -4  10   63.52    5.62
  -5  -4   9   62.77    6.87
  -5  -4   9   74.94    6.23
  -5  -4   9   68.66    6.26
  -5  -4   9   69.56    5.96
  -5  -4   9   65.12    8.07
  -5  -4   9   77.95    9.82
  -5  -4   8  192.40    9.85
  -5  -4   8  168.52    9.66
  -5  -4   8  170.94    9.10
  -5  -4   8  169.50   13.02
  -5  -4   8  168.64   12.21
  -5  -4   8  165.63   14.35
  -5  -4   7   35.82    4.75
  -5  -4   7   34.96    4.15
  -5  -4   7   34.51    6.00
  -5  -4   7   35.39    5.68
  -5  -4   7   30.24    6.25
  -5  -4   6  169.81   10.05
  -5  -4   6  188.20   15.33
  -5  -4   6  174.79    8.81
  -5  -4   6  179.35   13.54
  -5  -4   6  215.82   13.81
  -5  -4   5  158.97   18.35
  -5  -4   5  157.16    9.40
  -5  -4   5  177.55   21.50
  -5  -4   5  147.18   13.65
  -5  -4   5  165.56   13.06
  -5  -4   5  197.92   13.36
  -5  -4   4    6.82    3.43
  -5  -4   4   14.71    6.90
  -5  -4   3  383.32   28.88
   5  -4  -3  423.75   31.79
  -5  -4   3  454.25   34.38
  -5  -4   2   76.47   13.55
   5  -4  -2   71.94   13.70
  -5  -4   2   84.17   15.34
  -5  -4   1  115.70   16.71
   5  -4  -1  123.37   18.11
  -5  -4   1  130.57   19.73
   5  -4   0  310.20   28.68
  -5  -4   0  361.64   33.46
   5  -4   2  123.48    9.81
   5  -4   2  105.27    8.62
   5  -4   3   41.65    5.89
   5  -4   3   41.59    5.63
   5  -4   3   37.25    5.49
   5  -4   3   41.42    5.91
   5  -4   4   29.31    4.92
   5  -4   4   27.45    4.44
   5  -4   4   34.68    5.20
   5  -4   4   28.69    4.76
   5  -4   4   32.89    5.30
   5  -4   5   22.37    4.25
   5  -4   5   22.02    4.01
   5  -4   5   19.78    3.67
   5  -4   5   30.30    4.62
   5  -4   5   24.09    4.28
   5  -4   5   20.49    3.95
   5  -4   6    8.29    2.61
   5  -4   6    9.74    2.50
   5  -4   6    7.03    2.36
   5  -4   6    7.48    2.40
   5  -4   7   32.63    4.11
   5  -4   7   37.72    4.56
   5  -4   7   38.79    4.59
   5  -4   8    4.69    1.47
   5  -4   8    3.61    1.21
   5  -4   8    3.42    1.39
  -5  -3  13    1.45    1.06
  -5  -3  13    0.30    0.83
  -5  -3  13    2.34    1.37
  -5  -3  12   21.17    2.83
  -5  -3  12   21.94    4.02
  -5  -3  12   22.78    4.58
  -5  -3  11    2.20    1.59
  -5  -3  11    2.58    1.44
  -5  -3  11    2.64    1.75
  -5  -3  11    4.65    2.67
  -5  -3  11    2.01    1.27
  -5  -3  10   42.17    5.52
  -5  -3  10   42.95    4.91
  -5  -3  10   45.17    5.10
  -5  -3  10   40.28    4.56
  -5  -3  10   42.79    6.39
  -5  -3  10   39.46    6.78
  -5  -3  10   42.22    4.73
  -5  -3   9   73.62    7.61
  -5  -3   9   86.15   10.12
  -5  -3   9   99.81    7.27
  -5  -3   9   94.73    7.29
  -5  -3   9   84.13    6.55
  -5  -3   9   75.09    8.60
  -5  -3   9   79.87    8.57
  -5  -3   8  204.14   10.23
  -5  -3   8  199.90   10.60
  -5  -3   8  197.90   15.33
  -5  -3   8  179.67    9.28
  -5  -3   8  187.50   13.48
  -5  -3   8  185.93   12.78
  -5  -3   7  163.92    8.85
  -5  -3   7  144.27    9.25
  -5  -3   7  138.09    8.00
  -5  -3   7  151.34   12.06
  -5  -3   7  154.55   11.45
  -5  -3   7  140.28   12.90
  -5  -3   6   41.27    4.79
  -5  -3   6   46.87    9.87
  -5  -3   6   39.01    6.94
  -5  -3   6   23.28    8.38
  -5  -3   6   38.87    9.82
  -5  -3   6   33.28    3.84
  -5  -3   6   49.54    6.94
  -5  -3   6   47.04    6.33
  -5  -3   5  144.05   16.42
  -5  -3   5  156.27   18.71
  -5  -3   4  209.66   19.27
  -5  -3   4  238.31   22.99
  -5  -3   3  152.45   16.62
   5  -3  -3  179.60   19.83
  -5  -3   3  156.32   19.09
   5  -3  -2   41.66    9.81
  -5  -3   2   44.97   11.14
  -5  -3   2   35.12    8.76
   5  -3  -1  236.12   23.22
  -5  -3   1  256.04   25.81
   5  -3   0  219.67   22.72
  -5  -3   0  249.12   26.34
   5  -3   1  130.52   17.70
  -5  -3  -1  138.69   20.42
   5  -3   2  110.47   16.59
   5  -3   2  125.38    9.65
   5  -3   2  119.00    9.22
   5  -3   2  112.12    8.66
  -5  -3  -2  124.87   19.93
   5  -3   2  121.14    9.72
   5  -3   3   39.28    5.47
   5  -3   3   36.73    5.06
   5  -3   3   39.50    5.35
   5  -3   3   37.60    5.14
   5  -3   3   38.17    5.62
   5  -3   4   51.49    6.24
   5  -3   4   46.11    5.78
   5  -3   4   44.27    5.58
   5  -3   4   46.19    5.81
   5  -3   4   47.87    5.90
   5  -3   4   42.79    5.96
   5  -3   5   40.89    5.46
   5  -3   5   37.00    5.23
   5  -3   5   33.32    4.78
   5  -3   5   37.63    5.17
   5  -3   5   41.16    5.40
   5  -3   5   44.12    5.85
   5  -3   6   89.49    7.72
   5  -3   6  101.22    8.04
   5  -3   6   98.77    8.02
   5  -3   6   99.88    8.40
   5  -3   7   38.66    4.80
   5  -3   7   39.59    4.85
   5  -3   7   39.01    4.88
   5  -3   8    7.07    1.89
   5  -3   8    5.49    1.80
  -5  -3  -9   10.70    1.94
   5  -3   9    9.09    1.68
   5  -3   9    9.43    1.74
  -5  -2  13   20.23    2.85
  -5  -2  13   15.96    2.15
  -5  -2  13   16.27    2.90
  -5  -2  13   14.97    3.19
  -5  -2  12    4.52    2.12
  -5  -2  12    3.44    1.67
  -5  -2  12    2.25    2.08
  -5  -2  11   16.18    3.47
  -5  -2  11   16.44    3.94
  -5  -2  11   20.21    3.30
  -5  -2  11   17.09    4.49
  -5  -2  10   43.77    5.83
  -5  -2  10   51.55    7.95
  -5  -2  10   54.43    5.43
  -5  -2  10   57.28    7.40
  -5  -2   9   12.60    3.29
  -5  -2   9   12.68    2.77
  -5  -2   9   12.16    3.69
  -5  -2   9    9.51    2.54
  -5  -2   9   14.87    4.00
  -5  -2   9    9.99    2.45
  -5  -2   9    8.50    3.53
  -5  -2   9   11.11    2.43
  -5  -2   8  104.11    9.52
  -5  -2   8  109.16    7.46
  -5  -2   8  114.80    8.07
  -5  -2   8  102.30    7.01
  -5  -2   8  115.40   10.54
  -5  -2   8  111.90   11.49
  -5  -2   7   37.71    4.64
  -5  -2   7   47.76   10.00
  -5  -2   7   36.64    5.05
  -5  -2   7   46.79   11.30
  -5  -2   7   43.99    4.86
  -5  -2   7   48.12   10.79
  -5  -2   7   38.87    4.30
  -5  -2   7   41.29    6.44
  -5  -2   7   43.74    6.06
  -5  -2   7   48.57    7.50
  -5  -2   6   88.34   12.88
  -5  -2   6   84.90   14.46
  -5  -2   6   82.41   13.42
  -5  -2   5   66.76   10.84
  -5  -2   5   67.51   11.63
   5  -2  -4  183.65   19.57
  -5  -2   4  162.19   18.28
   5  -2  -3  427.98   28.94
  -5  -2   3  385.76   28.09
   5  -2  -2  100.26   14.23
  -5  -2   2   99.66   14.68
   5  -2  -1   71.88   12.22
  -5  -2   1   79.25   13.83
   5  -2   0  103.83   14.61
  -5  -2   0  118.18   17.23
   5  -2   1   57.52   11.22
  -5  -2  -1   62.13   13.22
   5  -2   2  136.15   17.72
  -5  -2  -2  161.20   22.33
   5  -2   3   57.08    6.30
   5  -2   3   50.92    5.78
   5  -2   3   54.14    6.12
   5  -2   3   52.92    6.03
   5  -2   3   56.69    6.41
   5  -2   3   56.59    6.48
   5  -2   4  189.84   11.45
   5  -2   4  193.78   11.30
   5  -2   4  208.46   12.08
   5  -2   4  201.24   11.62
   5  -2   4  195.85   11.94
   5  -2   4  199.76   12.30
   5  -2   5   41.09    5.39
   5  -2   5   46.70    5.67
   5  -2   5   37.21    5.30
   5  -2   5   42.74    5.66
   5  -2   6   99.80    8.40
   5  -2   6  110.11    8.49
   5  -2   6   99.93    8.19
   5  -2   6  102.56    8.28
   5  -2   7   26.84    4.05
   5  -2   7   26.48    4.06
   5  -2   7   26.58    4.05
   5  -2   8    2.34    1.25
   5  -2   8    0.11    1.02
   5  -2   8    0.83    1.08
  -5  -2  -9   13.86    2.50
   5  -2   9   10.32    1.90
   5  -2   9   12.75    2.18
   5  -2   9   12.74    2.12
  -5  -1  13    1.26    1.07
  -5  -1  13    1.17    1.05
  -5  -1  13    0.74    1.24
  -5  -1  13   -0.31    1.09
  -5  -1  12   95.57    7.45
  -5  -1  12   98.40    6.65
  -5  -1  12   82.51    7.78
  -5  -1  12   84.80    8.88
  -5  -1  11   14.29    3.50
  -5  -1  11   20.26    3.30
  -5  -1  11   21.97    5.05
  -5  -1  10   70.26    7.21
  -5  -1  10   57.42    6.71
  -5  -1  10   70.27    6.19
  -5  -1  10   69.67    8.21
  -5  -1  10   72.45    9.40
  -5  -1   9  340.10   16.00
  -5  -1   9  378.77   15.02
  -5  -1   9  340.26   13.32
  -5  -1   9  354.70   18.69
  -5  -1   9  357.53   20.74
  -5  -1   8   30.88    4.91
  -5  -1   8   26.75    4.47
  -5  -1   8   38.84    4.74
  -5  -1   8   35.30    4.35
  -5  -1   8   33.98    5.72
  -5  -1   8   25.29    4.86
  -5  -1   8   32.04    6.35
  -5  -1   7  223.47   23.75
  -5  -1   7  201.65    9.71
  -5  -1   6  497.61   33.98
  -5  -1   6  471.95   31.15
  -5  -1   5  240.80   21.29
   5  -1  -4  513.70   31.65
  -5  -1   4  431.92   28.04
   5  -1  -3  225.75   20.78
  -5  -1   3  197.82   18.74
   5  -1  -2 1243.49   47.88
  -5  -1   2 1161.55   46.76
  -5  -1   2 1083.27   44.48
   5  -1  -1  523.67   31.20
  -5  -1   1  585.52   34.31
  -5  -1   1  494.75   30.64
   5  -1   0  194.99   19.68
  -5  -1   0  197.65   21.05
  -5  -1   0  186.51   19.30
   5  -1   1  478.51   31.06
  -5  -1  -1  511.34   35.45
  -5  -1  -1  488.37   32.78
   5  -1   2   11.25    4.69
  -5  -1  -2    1.85    3.36
   5  -1   3  228.43   23.07
   5  -1   3  222.37   12.17
   5  -1   3  224.76   11.99
   5  -1   3  217.95   11.68
  -5  -1  -3  266.74   29.13
   5  -1   4   99.37    8.31
   5  -1   4  108.48    8.40
   5  -1   4  104.15    8.23
   5  -1   4  110.07    8.95
   5  -1   5   38.42    5.11
   5  -1   5   46.44    5.63
   5  -1   5   40.04    5.19
   5  -1   6   63.11    6.50
   5  -1   6   64.60    6.54
   5  -1   6   57.60    6.17
   5  -1   7    9.89    2.59
   5  -1   7    6.04    1.96
   5  -1   7    8.15    2.44
   5  -1   8   13.48    2.73
   5  -1   8   18.94    3.27
   5  -1   8   17.45    3.05
  -5  -1  -9    5.79    1.67
   5  -1   9    5.96    1.49
   5  -1   9    5.10    1.47
   5  -1   9    6.39    1.71
  -5   0  13    0.07    0.83
  -5   0  13   -0.52    0.86
  -5   0  13    0.34    0.92
  -5   0  13    1.13    1.30
  -5   0  12    7.04    2.08
  -5   0  12    8.66    2.76
  -5   0  12    9.29    2.28
  -5   0  12    5.47    2.55
  -5   0  11    9.50    3.27
  -5   0  11    9.18    2.31
  -5   0  11   12.69    3.81
  -5   0  10   75.18    9.57
  -5   0  10   64.21    7.11
  -5   0  10   83.94    6.73
  -5   0  10   70.86    8.33
  -5   0  10   67.91    6.53
  -5   0   9   89.18    8.34
  -5   0   9   99.28    7.30
  -5   0   9  103.35   10.11
  -5   0   9   87.21   10.41
  -5   0   8   58.31    6.61
  -5   0   8   59.86    5.71
  -5   0   8   60.70    7.60
  -5   0   8   35.11    5.95
  -5   0   8   56.79    8.24
  -5   0   7   42.26   10.81
  -5   0   6  252.60   24.11
  -5   0   6  223.72   21.17
  -5   0   5   25.46    7.68
  -5   0   5   25.96    7.11
   5   0  -5   22.84    6.45
   5   0  -4  329.46   25.38
  -5   0   4  277.28   21.87
   5   0  -3   -0.38    2.22
  -5   0   3    1.57    2.40
  -5   0   3   -6.40    3.82
   5   0  -2  252.83   21.91
  -5   0   2  221.89   19.17
  -5   0   2  222.29   20.73
   5   0  -1  991.77   43.02
  -5   0   1  892.83   39.74
  -5   0   1  906.56   42.55
   5   0   0  311.53   24.60
  -5   0   0  301.48   24.39
   5   0   1   75.73   12.54
  -5   0  -1   69.10   12.33
  -5   0  -1   79.23   13.72
  -5   0  -2    4.84    2.75
   5   0   2    8.17    4.35
  -5   0  -2    4.94    3.87
   5   0   3  117.00   16.36
   5   0   3  114.64    8.61
   5   0   3  120.70    8.60
   5   0   3  115.09    8.43
  -5   0  -3  125.32   19.39
   5   0   4   29.66    4.47
   5   0   4   28.34    4.43
   5   0   4   34.56    4.79
   5   0   5   10.78    2.95
   5   0   5    8.95    2.55
   5   0   5    9.17    2.81
   5   0   6   12.54    2.98
   5   0   6    9.67    2.64
   5   0   6   11.40    2.84
   5   0   7    5.87    2.15
   5   0   7    4.63    1.97
   5   0   7    2.83    1.39
   5   0   7    3.03    1.71
   5   0   8   33.70    4.18
   5   0   8   29.39    3.86
   5   0   8   28.92    3.73
   5   0   8   32.34    4.12
   5   0   9    0.81    0.90
   5   0   9    1.01    0.77
   5   0   9    2.21    1.10
  -5   1  13    0.29    0.97
  -5   1  12   80.93    6.61
  -5   1  12   85.33    6.28
  -5   1  12   63.59    6.41
  -5   1  11   17.04    3.88
  -5   1  11   23.84    3.60
  -5   1  11   20.57    3.51
  -5   1  11   15.85    4.32
  -5   1  10   66.89    7.27
  -5   1  10   58.46    8.39
  -5   1  10   75.77    6.69
  -5   1  10   64.68    8.00
  -5   1  10   67.00    6.68
  -5   1   9  307.25   14.36
  -5   1   9  269.86   14.45
  -5   1   9  244.98   15.57
  -5   1   9  268.58   17.84
  -5   1   8   27.32    4.69
  -5   1   8   27.48    5.40
  -5   1   8   31.16    4.26
  -5   1   7  194.78   22.37
  -5   1   7  174.41   10.96
  -5   1   7  180.07   12.96
  -5   1   6  513.82   34.71
  -5   1   5  245.17   23.04
   5   1  -5  255.26   22.28
  -5   1   4  509.73   31.96
   5   1  -4  449.93   28.86
  -5   1   3  190.61   19.43
   5   1  -2 1149.33   47.30
  -5   1   2 1020.71   45.06
   5   1  -1  694.59   37.20
  -5   1   1  620.00   35.86
   5   1   0  167.05   18.74
  -5   1   0  203.52   21.40
   5   1   1  541.26   34.34
  -5   1  -1  583.87   38.19
  -5   1  -2    7.74    4.15
   5   1   2    9.43    5.07
   5   1   3  234.22   12.15
   5   1   3  245.83   12.47
  -5   1  -3  260.69   28.22
   5   1   3  257.04   12.69
   5   1   4   98.91    8.04
   5   1   4  110.26    8.56
   5   1   4  113.05    8.72
   5   1   5   41.72    5.27
   5   1   5   37.73    4.98
   5   1   5   43.81    5.39
   5   1   6   75.85    6.81
   5   1   6   77.45    7.08
   5   1   6   62.27    6.47
   5   1   6   70.97    6.73
   5   1   7    8.20    2.41
   5   1   7   10.30    2.67
   5   1   7    8.77    2.55
   5   1   7    9.12    2.34
   5   1   8   13.80    2.76
   5   1   8   14.96    2.78
   5   1   8   18.03    3.11
   5   1   9    5.62    1.57
   5   1   9    7.78    1.91
   5   1   9    5.36    1.47
   5   1   9    5.96    1.58
  -5   2  13   23.25    2.80
  -5   2  12    1.53    1.20
  -5   2  11   22.87    3.59
  -5   2  11   18.06    3.25
  -5   2  10   50.77    5.87
  -5   2  10   46.66    5.97
  -5   2  10   60.76    6.09
  -5   2   9   12.21    3.25
  -5   2   9   15.25    3.38
  -5   2   9   20.00    3.96
  -5   2   8  107.45    8.94
  -5   2   8  119.93    9.25
  -5   2   8  126.68    9.03
  -5   2   8  113.29   10.69
  -5   2   7   47.19    5.84
  -5   2   7   38.35   10.02
  -5   2   7   46.20    5.65
  -5   2   7   44.68    5.34
  -5   2   7   39.85    6.24
  -5   2   6   88.82   15.51
   5   2  -6   82.79   14.10
  -5   2   5   58.70   12.05
   5   2  -5   62.54   11.67
  -5   2   4  144.43   17.83
   5   2  -4  155.06   17.57
  -5   2   4  133.37   16.88
  -5   2   3  361.58   27.42
   5   2  -3  345.45   25.84
  -5   2   3  315.51   25.64
  -5   2   2  115.92   15.69
   5   2  -2   99.24   13.79
  -5   2   1   85.05   13.65
   5   2   0  108.59   15.72
  -5   2   0  122.97   17.21
  -5   2  -1   73.42   14.66
   5   2   1   59.06   11.68
   5   2   2  133.59   17.98
  -5   2  -2  142.56   20.30
   5   2   3   52.37    5.83
   5   2   3   61.80    6.42
   5   2   3   57.73    6.10
   5   2   4  187.91   10.92
   5   2   4  199.70   11.70
   5   2   4  170.55   11.02
   5   2   4  205.51   11.65
   5   2   5   41.00    5.17
   5   2   5   36.40    5.07
   5   2   5   33.55    4.93
   5   2   5   36.34    4.88
   5   2   6   97.17    7.82
   5   2   6  100.64    8.09
   5   2   6   92.05    7.84
   5   2   6  101.00    8.04
   5   2   7   25.27    3.90
   5   2   7   20.14    3.52
   5   2   7   23.40    3.73
   5   2   8    1.30    1.34
   5   2   8    0.16    1.06
   5   2   8    0.61    0.80
   5   2   8    1.62    1.23
   5   2   9    8.96    1.87
   5   2   9   10.84    2.02
   5   2   9    8.70    1.71
   5   2   9    7.79    1.63
  -5   3  13    2.80    1.02
  -5   3  12   23.03    3.17
  -5   3  11    4.10    1.86
  -5   3  11    6.50    2.32
  -5   3  10   59.63    6.22
  -5   3  10   66.88    6.41
  -5   3   9   95.78    8.61
  -5   3   9  111.56    8.68
  -5   3   9  107.54    8.74
  -5   3   8  210.69   12.79
  -5   3   8  218.90   12.26
  -5   3   8  189.75   13.77
  -5   3   8  204.89   12.19
  -5   3   7  122.61    9.75
  -5   3   7  170.46   11.38
  -5   3   7  157.91   10.46
  -5   3   7  164.56   12.37
  -5   3   7  160.86   10.78
  -5   3   6   58.74    6.82
  -5   3   6   45.14   11.28
  -5   3   6   38.08    5.50
   5   3  -6   36.40    9.52
  -5   3   6   39.76    6.06
   5   3  -5  114.87   16.68
   5   3  -4  221.06   22.19
  -5   3   4  162.97   19.19
   5   3  -3  134.17   16.91
  -5   3   3  133.20   17.36
   5   3  -2   25.04    7.68
  -5   3   2   31.45    8.86
   5   3  -1  207.59   21.42
  -5   3   1  224.14   23.11
   5   3   0  204.11   21.61
  -5   3   0  244.77   24.81
   5   3   1  110.06   16.24
  -5   3  -1  134.38   19.31
   5   3   2  121.96    8.84
   5   3   2  126.99    9.44
   5   3   2  122.22    9.21
   5   3   2   99.62   15.80
  -5   3  -2  122.81   19.43
   5   3   3   29.75    4.44
   5   3   3   34.25    5.07
   5   3   3   26.66    4.49
   5   3   3   34.64    4.96
   5   3   4   46.00    5.58
   5   3   4   44.22    5.80
   5   3   4   38.88    5.37
   5   3   4   42.98    5.52
   5   3   5   41.10    5.20
   5   3   5   33.65    4.94
   5   3   5   37.62    5.16
   5   3   5   37.11    5.37
   5   3   6   86.30    7.31
   5   3   6   79.03    7.19
   5   3   6   91.80    7.74
   5   3   7   32.96    4.26
   5   3   7   33.29    4.42
   5   3   7   33.21    4.48
   5   3   7   35.31    4.57
   5   3   8    4.92    1.64
   5   3   8    3.75    1.67
   5   3   8    3.38    1.35
   5   3   8    3.87    1.51
   5   4 -12    2.05    0.84
  -5   4  12    2.30    1.29
  -5   4  12    1.54    0.96
  -5   4  11   48.16    4.99
  -5   4  11   39.99    4.47
  -5   4  10   57.12    5.99
  -5   4  10   70.46    6.56
  -5   4   9   79.01    7.36
  -5   4   9   65.32    6.93
  -5   4   8  161.74   11.60
  -5   4   8  171.90   11.19
  -5   4   8  170.40   12.89
  -5   4   8  173.50   11.36
  -5   4   7   40.42    5.75
  -5   4   7   41.79    5.96
  -5   4   7   35.30    5.94
  -5   4   7   40.18    5.70
  -5   4   6  152.79   10.61
  -5   4   6  174.88   11.97
  -5   4   6  180.51   12.83
  -5   4   6  166.22   11.55
  -5   4   5  141.05    9.98
  -5   4   5  168.63   11.53
   5   4  -5  142.41   19.50
  -5   4   5  162.89   12.03
  -5   4   5  114.85    9.49
   5   4  -4    7.03    5.10
   5   4  -3  415.39   32.04
  -5   4   3  344.51   28.82
   5   4  -2   64.94   12.89
  -5   4   2   63.19   12.33
  -5   4   1   87.34   14.81
   5   4  -1   72.95   13.42
   5   4   0  288.92   13.91
   5   4   0  297.30   14.74
   5   4   0  309.05   14.69
  -5   4   0  323.99   29.73
   5   4   1   97.31    8.08
   5   4   1   99.80    8.72
   5   4   1  102.15    8.50
   5   4   1   95.53    8.35
   5   4   2  117.13    8.98
   5   4   2  117.76    9.59
   5   4   2  118.85    9.32
   5   4   2  111.29    9.12
   5   4   2  120.59    9.33
   5   4   3   41.15    5.39
   5   4   3   44.89    6.00
   5   4   3   44.64    5.68
   5   4   3   45.63    5.93
   5   4   3   40.52    5.56
   5   4   4   35.04    4.91
   5   4   4   30.25    4.96
   5   4   4   34.28    5.03
   5   4   4   30.42    4.78
   5   4   4   33.24    4.87
   5   4   5   22.14    3.85
   5   4   5   20.53    3.83
   5   4   5   20.86    3.87
   5   4   5   28.81    4.64
   5   4   6    7.19    2.30
   5   4   6    7.09    2.49
   5   4   6    7.43    2.45
   5   4   6    7.06    2.18
   5   4   7   33.67    4.21
   5   4   7   38.41    4.49
   5   4   7   33.75    4.18
   5   4   7   36.40    4.48
   5   4   8    1.21    0.93
   5   4   8    3.63    1.44
   5   4   8    1.44    0.89
   5   4   8   -0.10    0.92
   5   5 -12    3.37    1.15
  -5   5  11    0.57    0.94
  -5   5  11    1.52    1.20
  -5   5  10   23.81    3.72
  -5   5  10   19.46    3.40
  -5   5   9   21.45    3.91
  -5   5   9   25.79    4.02
  -5   5   8   25.03    4.78
  -5   5   8   20.96    4.34
  -5   5   7   35.34    5.60
  -5   5   7   29.86    5.30
  -5   5   7   38.07    6.00
  -5   5   7   30.18    5.07
  -5   5   6   36.94    5.74
  -5   5   6   38.60    5.73
  -5   5   6   39.99    6.24
  -5   5   6   31.81    5.37
  -5   5   5   15.92    3.56
  -5   5   5    7.96    2.90
  -5   5   5   16.67    4.10
  -5   5   4   52.94    6.30
  -5   5   4   41.46    5.83
  -5   5   3   48.80    6.75
  -5   5   3   47.49    5.92
  -5   5   2   62.84    6.87
  -5   5   2   80.79    8.68
  -5   5   2   50.07   12.11
  -5   5   1   46.55    6.17
  -5   5   0   37.72    5.55
   5   5   0   38.50    5.75
   5   5   0   45.28    5.99
  -5   5  -1   54.09    6.70
   5   5   1   48.75    6.40
   5   5   1   60.90    6.77
   5   5   1   49.67    6.14
   5   5   2   53.41    6.39
   5   5   2   49.36    6.50
   5   5   2   52.03    6.16
   5   5   2   50.77    6.30
   5   5   3   13.32    3.53
   5   5   3   15.35    3.41
   5   5   3   16.46    3.71
   5   5   3   16.32    3.70
   5   5   3   13.15    3.24
   5   5   4   82.98    7.64
   5   5   4   99.93    8.54
   5   5   4   85.27    7.73
   5   5   4   84.81    7.91
   5   5   5   16.48    3.23
   5   5   5   16.53    3.62
   5   5   5   12.82    3.05
   5   5   5   15.18    3.53
   5   5   6    2.51    1.66
   5   5   6    5.87    2.44
   5   5   6    4.99    1.88
   5   5   6    2.27    1.82
   5   5   7    6.29    1.81
   5   6 -11   27.93    3.06
  -5   6  11   29.73    3.21
  -5   6  10   27.28    3.72
  -5   6   9   71.55    6.60
  -5   6   8   66.87    6.88
  -5   6   7   18.46    4.02
  -5   6   7    9.54    3.17
  -5   6   6  148.69   10.75
  -5   6   6  109.26    9.42
  -5   6   5  112.40    9.03
  -5   6   5   65.91    7.49
  -5   6   4   52.41    6.16
  -5   6   4   35.79    5.49
  -5   6   4   47.72    6.68
  -5   6   3  367.23   16.34
  -5   6   3  368.84   18.61
  -5   6   2   50.38    6.29
  -5   6   2   52.81    7.41
  -5   6   1  223.10   13.02
  -5   6   1  263.42   16.42
  -5   6   0  202.88   12.62
  -5   6  -1    8.18    3.44
  -5   6  -2  137.66   10.65
   5   6   2  145.74   10.51
  -5   6  -3   43.80    5.94
   5   6   3   48.46    6.04
  -5   6  -4   69.94    7.17
   5   6   4   89.26    7.89
  -5   6  -5   28.23    4.34
   5   6   5   30.42    4.27
  -5   6  -6    2.67    2.19
  -5   6  -7   13.50    2.25
   5   7 -10    1.80    0.97
  -5   7  10    2.82    1.28
  -5   7   9   28.11    3.81
  -5   7   8   12.97    2.90
   5   7  -7   26.60    3.76
  -5   7   7   25.17    4.35
  -5   7   6   20.76    4.14
  -5   7   6    9.35    2.81
  -5   7   5   36.30    5.21
  -5   7   5   24.01    4.27
  -5   7   4   48.46    5.92
  -5   7   4   45.64    5.71
  -5   7   3   78.14    7.56
  -5   7   2   92.43    8.29
  -5   7   1   51.05    6.29
  -5   7   1   61.56    7.82
  -5   7   0  101.97    8.96
  -5   7   0  152.11   12.43
  -5   7  -1   53.73    6.43
  -5   7  -2   29.84    4.78
  -5   7  -3   34.85    5.20
  -5   7  -4    9.74    2.64
  -5   7  -5   13.49    2.77
  -5   7  -6    5.24    1.54
   5   8  -9    3.04    1.02
  -5   8   8   29.37    3.83
  -5   8   7   26.77    3.97
   5   8  -7   22.89    3.08
  -5   8   6   15.45    3.67
  -5   8   6   11.87    2.99
   5   8  -6   16.11    2.89
   5   8  -5   29.94    4.20
  -5   8   5   28.70    4.34
   5   8  -4   31.43    4.55
  -5   8   4   41.30    5.47
  -5   8   3   41.46    5.49
   5   8  -3   27.73    4.32
  -5   8   2   30.32    4.62
   5   8  -2   20.72    3.77
  -5   8   1    0.91    1.98
   5   8  -1    4.79    2.12
  -5   8   0   76.77    7.29
   5   8   0   70.66    6.57
  -5   8  -1   18.44    3.87
  -5   8  -2   19.72    3.78
  -5   8  -2   28.37    4.83
  -5   8  -3   29.39    4.20
  -5   8  -3   46.33    5.87
  -5   8  -4    3.56    1.62
  -5   8  -4    6.88    2.13
  -5   8  -5   18.80    2.64
  -5   9   6   20.40    3.80
   5   9  -6   20.88    2.74
  -5   9   5   32.64    4.59
   5   9  -5   34.46    3.84
  -5   9   4   25.65    4.13
   5   9  -4   16.79    2.95
   5   9  -3    1.95    1.22
  -5   9   3    6.04    2.20
  -5   9   2   45.40    5.26
   5   9  -2   33.68    4.26
  -5   9   1    1.57    1.36
   5   9  -1    3.58    1.52
  -5   9   0    4.14    1.45
   5   9   0    7.94    1.92
  -5   9  -1   22.91    3.46
  -5   9  -2   -0.93    1.41
  -5   9  -3   10.87    2.20
  -5  10   4   12.16    2.53
   5  10  -4   12.12    1.87
   5  10  -3    1.35    0.93
  -5  10   3   -1.53    1.41
  -5  10   2   15.47    2.75
   5  10  -2   17.70    2.29
  -5  10   1   17.30    2.92
   5  10  -1   15.37    1.91
  -5  10   0   12.22    2.33
  -6  -9   6    0.89    0.70
  -6  -9   6    0.71    0.71
  -6  -9   5    3.51    1.17
  -6  -9   5    5.21    1.26
  -6  -9   4   23.98    2.49
  -6  -9   3   15.61    2.14
  -6  -9   2   11.73    1.88
  -6  -9   2   23.28    2.54
  -6  -9   1   11.20    1.85
  -6  -9   0   23.18    2.54
  -6  -8   8   10.09    2.26
  -6  -8   8   12.67    1.84
  -6  -8   8    9.62    1.76
  -6  -8   7    0.04    0.82
  -6  -8   7    0.94    0.94
  -6  -8   7    1.62    0.94
  -6  -8   7    1.66    0.91
  -6  -8   6   30.39    3.36
  -6  -8   6   40.53    3.58
  -6  -8   5   20.55    2.70
  -6  -8   4   28.39    3.54
  -6  -8   4   37.58    3.73
  -6  -8   3   25.34    3.45
  -6  -8   1   41.55    4.01
  -6  -8   0   12.96    2.31
  -6  -8  -1    2.42    1.16
  -6  -8  -2   34.27    3.43
  -6  -8  -3    7.81    1.51
  -6  -7   9    5.96    1.72
  -6  -7   9    8.66    1.73
  -6  -7   9    8.94    1.83
  -6  -7   9    7.05    1.99
  -6  -7   9    9.54    1.63
  -6  -7   9    8.68    1.84
  -6  -7   8    1.29    1.07
  -6  -7   8    1.68    0.86
  -6  -7   8   -0.57    1.14
  -6  -7   8    0.97    1.34
  -6  -7   8    1.95    1.02
  -6  -7   7   32.14    3.60
  -6  -7   7   27.00    3.44
  -6  -7   7   35.75    3.71
  -6  -7   7   28.89    4.78
  -6  -7   6    2.64    1.24
  -6  -7   6    2.85    1.81
  -6  -7   6    1.10    1.54
  -6  -7   6    3.34    1.54
  -6  -7   5   21.50    3.43
  -6  -7   5   26.52    3.40
  -6  -7   5   18.87    4.40
  -6  -7   5   17.52    3.90
  -6  -7   4    2.30    1.35
  -6  -7   4    2.31    1.49
  -6  -7   4    5.86    2.48
  -6  -7   3   28.76    5.60
  -6  -7   2    7.00    3.13
  -6  -7   2    4.53    1.71
  -6  -7   1   64.56    5.91
  -6  -7   0   30.91    4.12
  -6  -7  -1    0.33    1.50
  -6  -7  -2   29.85    3.92
  -6  -7  -3   11.10    2.34
  -6  -7  -4    3.81    1.37
  -6  -7  -4    6.04    1.60
  -6  -6  10    8.68    2.33
  -6  -6  10    3.20    1.15
  -6  -6  10    4.70    1.96
  -6  -6  10    3.61    1.17
  -6  -6  10    6.71    2.28
  -6  -6  10    4.22    1.30
  -6  -6  10    7.55    1.66
  -6  -6   9    4.80    2.07
  -6  -6   9    5.20    1.58
  -6  -6   9    6.64    1.82
  -6  -6   9    6.55    2.15
  -6  -6   9   10.44    2.12
  -6  -6   9    8.38    2.62
  -6  -6   8   31.48    4.58
  -6  -6   8   51.81    4.71
  -6  -6   8   36.98    4.09
  -6  -6   8   51.35    4.55
  -6  -6   8   49.92    6.45
  -6  -6   8   46.54    6.80
  -6  -6   7    6.29    1.83
  -6  -6   7    5.65    1.94
  -6  -6   7    8.19    2.82
  -6  -6   7    6.86    2.65
  -6  -6   7    5.73    1.77
  -6  -6   7    4.24    2.84
  -6  -6   6   48.39    5.32
  -6  -6   6   51.14    6.66
  -6  -6   6   43.58    4.46
  -6  -6   6   41.79    6.35
  -6  -6   6   38.65    6.80
  -6  -6   5   47.36    5.36
  -6  -6   5   43.86    4.60
  -6  -6   5   44.38    6.96
  -6  -6   5   42.94    7.49
  -6  -6   5   55.76    7.23
  -6  -6   4    2.31    2.30
  -6  -6   4    6.70    3.31
  -6  -6   4    4.97    2.74
  -6  -6   3  121.67    8.45
  -6  -6   3  101.78   11.68
  -6  -6   3  110.07   10.38
  -6  -6   2   42.22    7.60
  -6  -6   2   49.58    6.20
  -6  -6   2   51.64    5.69
  -6  -6   1  170.03   11.51
  -6  -6   1  164.77   10.99
  -6  -6   1  140.06   13.81
  -6  -6   1  170.30   10.17
  -6  -6   0   24.72    5.80
  -6  -6   0   32.49    4.84
  -6  -6   0   32.58    5.19
  -6  -6  -1   61.00    6.78
  -6  -6  -1   72.92    7.27
  -6  -6  -2   33.79    4.51
  -6  -6  -2   24.94    4.22
  -6  -6  -3    0.41    1.29
   6  -6   3   -0.62    1.19
  -6  -6  -3    0.53    1.09
  -6  -6  -4   19.88    2.97
   6  -6   4   22.64    3.30
   6  -6   4   21.51    3.09
  -6  -6  -5    8.93    1.96
   6  -6   5    8.80    1.83
   6  -6   5   10.60    2.03
  -6  -5  11    0.19    1.17
  -6  -5  11    1.74    1.06
  -6  -5  11    1.52    0.83
  -6  -5  11    3.64    1.76
  -6  -5  11    2.18    1.03
  -6  -5  10    6.24    1.89
  -6  -5  10    9.18    2.17
  -6  -5  10    9.39    2.15
  -6  -5  10   10.21    2.81
  -6  -5  10    9.19    2.11
  -6  -5  10   11.75    3.33
  -6  -5  10    6.09    1.56
  -6  -5   9   16.92    2.88
  -6  -5   9   12.42    2.49
  -6  -5   9   17.58    3.92
  -6  -5   9   16.16    2.84
  -6  -5   9   15.44    3.25
  -6  -5   9   16.04    4.08
  -6  -5   8   10.93    2.40
  -6  -5   8    9.22    2.42
  -6  -5   8    6.02    2.63
  -6  -5   8    8.59    2.19
  -6  -5   8    5.87    2.80
  -6  -5   8   11.04    3.79
  -6  -5   7    7.28    2.35
  -6  -5   7    9.10    3.27
  -6  -5   7    7.62    2.18
  -6  -5   7    9.33    3.03
  -6  -5   7    7.07    3.31
  -6  -5   6    8.96    3.53
  -6  -5   6    5.75    2.17
  -6  -5   6    5.24    2.79
  -6  -5   6    7.72    2.08
  -6  -5   6   10.78    3.46
  -6  -5   5    9.95    3.76
  -6  -5   5   11.34    2.79
  -6  -5   5   14.02    3.88
  -6  -5   5   10.58    3.84
  -6  -5   5   10.98    2.35
  -6  -5   5   11.45    2.79
  -6  -5   4    0.34    1.82
  -6  -5   4    5.69    3.18
  -6  -5   4    1.03    1.58
  -6  -5   3   65.53    6.99
  -6  -5   3   65.21    6.40
  -6  -5   3   70.52    7.58
  -6  -5   3   62.67    9.69
  -6  -5   2   47.52    8.26
  -6  -5   2   48.43    6.05
  -6  -5   2   55.58    6.83
  -6  -5   2   46.37    5.50
  -6  -5   1   23.33    6.23
  -6  -5   1   24.43    4.30
  -6  -5   1   21.68    4.41
  -6  -5   1   28.76    5.23
  -6  -5   0    1.33    2.40
  -6  -5   0    1.12    1.75
  -6  -5   0    2.01    1.71
  -6  -5   0   -1.35    2.00
  -6  -5  -1   25.39    6.27
  -6  -5  -1   20.09    4.03
  -6  -5  -2   10.74    4.43
  -6  -5  -2    9.71    2.66
   6  -5   2    9.67    2.55
  -6  -5  -3   -0.69    1.80
  -6  -5  -3    0.45    1.42
   6  -5   3    0.58    1.13
   6  -5   3    0.63    1.29
  -6  -5  -4   17.73    4.45
  -6  -5  -4   24.69    3.95
   6  -5   4   19.41    3.56
   6  -5   4   17.70    3.23
  -6  -5  -5    5.81    2.49
  -6  -5  -5    9.33    2.24
   6  -5   5    8.61    2.32
   6  -5   5    7.11    2.16
  -6  -5  -6   23.15    2.98
   6  -5   6   22.43    3.03
   6  -5   6   24.58    3.10
  -6  -5  -6   20.49    2.56
  -6  -4  12   -1.44    1.16
  -6  -4  12    1.38    0.87
  -6  -4  12    2.15    1.36
  -6  -4  11   31.17    4.02
  -6  -4  11   49.20    4.16
  -6  -4  11   41.74    5.21
  -6  -4  11   49.77    6.55
  -6  -4  10    2.00    1.30
  -6  -4  10    7.07    1.90
  -6  -4  10    6.13    1.82
  -6  -4  10    3.87    1.77
  -6  -4  10    7.85    2.06
  -6  -4  10    8.94    3.20
  -6  -4  10    5.90    1.78
  -6  -4   9   76.34    7.24
  -6  -4   9   94.46    6.60
  -6  -4   9   97.66    7.03
  -6  -4   9  105.03    6.88
  -6  -4   9   84.88    8.69
  -6  -4   9   92.31    8.75
  -6  -4   9   99.72   10.44
  -6  -4   8  104.57    7.17
  -6  -4   8   95.11   10.52
  -6  -4   8   96.00    7.22
  -6  -4   8  103.48    6.88
  -6  -4   8   89.93    9.33
  -6  -4   8  102.07    9.33
  -6  -4   7   15.90    3.01
  -6  -4   7   15.96    3.29
  -6  -4   7   18.29    4.27
  -6  -4   7   15.00    2.95
  -6  -4   7   20.82    4.30
  -6  -4   7   19.59    5.09
  -6  -4   6  219.75   11.40
  -6  -4   6  214.67   16.49
  -6  -4   6  220.56   10.16
  -6  -4   6  215.93   14.78
  -6  -4   6  256.80   15.15
  -6  -4   5   60.93    6.12
  -6  -4   5   51.32    6.10
  -6  -4   5   56.75    5.15
  -6  -4   5   57.99    7.92
  -6  -4   5   63.21    7.78
  -6  -4   5   61.53    9.03
  -6  -4   5   59.46    5.92
  -6  -4   4  270.78   13.82
  -6  -4   4  265.80   12.42
  -6  -4   4  275.50   14.41
  -6  -4   4  259.39   18.73
  -6  -4   3  199.72   12.04
  -6  -4   3  221.96   13.19
  -6  -4   3  212.24   17.33
  -6  -4   3  190.50   10.60
  -6  -4   2    8.11    3.46
  -6  -4   2    8.93    2.84
  -6  -4   2    6.74    2.49
  -6  -4   2    5.94    2.33
  -6  -4   2    5.02    2.11
  -6  -4   1  325.12   15.14
  -6  -4   1  341.87   15.79
  -6  -4   1  371.59   18.04
  -6  -4   1  341.65   22.62
  -6  -4   0   47.46    8.58
  -6  -4   0   45.45    5.95
  -6  -4  -1  133.38    9.98
   6  -4   2  233.01   13.55
  -6  -4  -2  234.79   13.03
  -6  -4  -3    9.57    2.89
   6  -4   3   14.89    3.52
   6  -4   3   10.21    2.78
  -6  -4  -4   69.71    6.86
   6  -4   4   68.59    6.85
   6  -4   4   62.87    6.29
  -6  -4  -5   16.38    3.15
   6  -4   5   18.65    3.56
   6  -4   5   14.88    3.19
   6  -4   6   15.08    2.81
   6  -4   6   12.52    2.49
  -6  -4  -6   12.41    2.60
  -6  -4  -7   14.27    2.31
   6  -4   7   15.54    2.36
  -6  -4  -7   16.81    2.44
   6  -4   7   13.90    2.13
  -6  -3  12   15.49    3.38
  -6  -3  12   14.24    2.92
  -6  -3  12   17.74    2.43
  -6  -3  11    3.41    1.72
  -6  -3  11    1.05    1.30
  -6  -3  11    2.89    1.57
  -6  -3  11    3.11    2.10
  -6  -3  10   54.24    6.01
  -6  -3  10   68.28    8.56
  -6  -3  10   64.68    5.76
  -6  -3  10   73.37    5.80
  -6  -3  10   68.57    7.71
  -6  -3   9   53.02    6.17
  -6  -3   9   71.54    6.00
  -6  -3   9   73.09    6.29
  -6  -3   9   72.48    5.88
  -6  -3   9   69.06    8.06
  -6  -3   9   68.79    7.76
  -6  -3   9   69.28    9.00
  -6  -3   8   35.01    4.25
  -6  -3   8   33.55    4.46
  -6  -3   8   29.94    3.84
  -6  -3   8   29.73    5.73
  -6  -3   8   34.66    5.50
  -6  -3   8   31.27    6.08
  -6  -3   7   90.46    7.23
  -6  -3   7   80.55    7.62
  -6  -3   7   87.15    6.94
  -6  -3   7   87.35    6.39
  -6  -3   7   84.29    9.30
  -6  -3   7  100.54    9.41
  -6  -3   7   88.73   10.42
  -6  -3   6   16.93    4.71
  -6  -3   6   20.40    3.52
  -6  -3   6   16.96    3.66
  -6  -3   6   21.95    4.89
  -6  -3   6   17.38    3.00
  -6  -3   6   20.52    4.44
  -6  -3   5  106.12    7.78
  -6  -3   5   95.28    8.06
  -6  -3   5   96.29    6.77
  -6  -3   5   98.30   10.06
  -6  -3   5  104.38   11.40
  -6  -3   5   94.12    7.33
  -6  -3   4  216.94   12.10
  -6  -3   4  205.86   12.24
  -6  -3   4  224.09   17.00
  -6  -3   4  215.25   10.88
  -6  -3   3   15.91    4.94
  -6  -3   3   18.01    3.58
  -6  -3   3   15.16    3.46
  -6  -3   3   18.52    3.30
  -6  -3   2  167.83    9.60
  -6  -3   2  181.38   10.92
   6  -3  -2  172.75   21.69
  -6  -3   2  182.85   11.13
  -6  -3   2  186.88   12.17
  -6  -3   2  181.56   15.90
  -6  -3   1   45.85    5.57
  -6  -3   1   46.98    5.89
  -6  -3   1   47.19    6.42
  -6  -3   1   55.76    9.13
  -6  -3   1   44.92    5.01
  -6  -3   0   41.37    5.59
  -6  -3  -1  104.42    8.70
   6  -3   1   96.41    8.60
  -6  -3  -2   38.41    5.43
   6  -3   2   42.83    5.87
   6  -3   2   33.74    4.89
   6  -3   3   42.94    5.75
   6  -3   3   41.92    5.53
   6  -3   4   40.57    5.42
   6  -3   4   40.82    5.18
   6  -3   5   27.68    4.06
   6  -3   5   31.03    4.42
   6  -3   5   28.84    4.30
  -6  -3  -6   43.54    4.95
   6  -3   6   43.66    4.62
   6  -3   6   44.09    4.90
   6  -3   6   43.16    4.72
  -6  -3  -7   -0.15    1.01
   6  -3   7    1.28    0.99
   6  -3   7    1.47    0.88
  -6  -3  -7    1.23    0.81
   6  -3   7    2.73    1.38
  -6  -2  13    5.93    1.33
  -6  -2  13    3.13    1.25
  -6  -2  13    3.47    1.40
  -6  -2  12    0.81    1.30
  -6  -2  12   -0.08    0.93
  -6  -2  12    0.40    1.13
  -6  -2  11   15.10    3.01
  -6  -2  11   25.96    3.46
  -6  -2  11   20.65    4.05
  -6  -2  11   27.87    5.49
  -6  -2  10   15.41    3.33
  -6  -2  10   20.93    4.36
  -6  -2  10   22.72    3.39
  -6  -2  10   22.99    5.18
  -6  -2   9    1.57    1.10
  -6  -2   9    3.65    1.72
  -6  -2   9    4.51    1.89
  -6  -2   9    3.27    1.96
  -6  -2   9    3.77    2.27
  -6  -2   9    3.68    1.73
  -6  -2   9    3.93    2.31
  -6  -2   8   60.51    6.69
  -6  -2   8   81.56    6.71
  -6  -2   8   77.09    6.12
  -6  -2   8   68.28    8.22
  -6  -2   8   66.92    7.79
  -6  -2   8   73.71    9.51
  -6  -2   7   13.82    4.31
  -6  -2   7   11.84    2.90
  -6  -2   7   10.28    2.79
  -6  -2   7   14.27    3.00
  -6  -2   7   11.54    3.37
  -6  -2   7   11.97    3.73
  -6  -2   7    9.44    2.31
  -6  -2   6   45.49    5.09
  -6  -2   6   47.46    5.72
  -6  -2   6   45.26    4.61
  -6  -2   6   50.16    7.05
  -6  -2   6   44.28    6.47
  -6  -2   6   48.39    7.75
  -6  -2   5   72.64    6.44
  -6  -2   5   84.48    7.60
  -6  -2   5   65.11   12.38
  -6  -2   5   79.76    6.03
  -6  -2   5   84.47    9.18
  -6  -2   5   81.92    9.88
   6  -2  -4   85.09   15.43
  -6  -2   4   61.82    6.51
  -6  -2   4   67.34    6.60
  -6  -2   4   64.21    5.92
  -6  -2   4   69.23   12.91
  -6  -2   4   69.60    9.28
   6  -2  -3   69.11   13.65
  -6  -2   3   53.62   11.68
   6  -2  -2   11.51    6.02
  -6  -2   2   10.61    5.22
  -6  -2   1   83.91    7.42
  -6  -2   1   83.43    7.39
   6  -2  -1   74.23   13.62
  -6  -2   1   88.15   16.01
  -6  -2   1   76.21    6.41
  -6  -2   0   57.74    6.25
   6  -2   0   55.77    6.40
  -6  -2   0   64.21   14.66
  -6  -2  -1   20.95    3.99
   6  -2   1   25.88    4.48
  -6  -2  -2   49.89    5.97
   6  -2   2   55.27    6.39
   6  -2   2   50.36    5.87
   6  -2   3    3.12    2.15
   6  -2   3    0.48    1.29
   6  -2   4   13.74    3.23
   6  -2   4   13.26    3.26
   6  -2   4   11.98    3.15
   6  -2   5    9.31    2.62
   6  -2   5   13.51    3.05
   6  -2   5   11.66    2.98
  -6  -2  -6   26.22    4.10
   6  -2   6   25.47    3.78
   6  -2   6   21.09    3.47
   6  -2   6   26.61    3.81
  -6  -2  -7   13.46    2.68
   6  -2   7   13.13    2.51
   6  -2   7   11.83    2.40
   6  -2   7   13.32    2.48
   6  -2   8    6.34    1.48
   6  -2   8    5.92    1.42
  -6  -1  13    7.80    1.55
  -6  -1  13    4.17    1.33
  -6  -1  13    7.30    1.97
  -6  -1  12   46.17    4.31
  -6  -1  12   36.65    5.44
  -6  -1  11   14.29    2.74
  -6  -1  11   13.49    3.37
  -6  -1  11   18.65    3.13
  -6  -1  11   14.26    3.66
  -6  -1  10   69.43    6.97
  -6  -1  10   93.88    6.80
  -6  -1  10   84.95    8.70
  -6  -1  10   83.06    6.81
  -6  -1  10   82.53    9.61
  -6  -1   9   91.88    8.33
  -6  -1   9  107.25    8.06
  -6  -1   9  109.48    7.57
  -6  -1   9  117.21   10.58
  -6  -1   9   79.33    8.62
  -6  -1   9  121.99   11.92
  -6  -1   8   59.07    6.68
  -6  -1   8   74.33    6.19
  -6  -1   8   68.58    8.19
  -6  -1   8   57.28    7.04
  -6  -1   8   64.89    8.88
  -6  -1   7  346.19   15.74
  -6  -1   7  365.58   18.81
  -6  -1   7  378.84   19.83
  -6  -1   7  335.53   16.85
  -6  -1   7  356.39   20.72
  -6  -1   6   23.35    5.36
  -6  -1   6   21.62    3.49
  -6  -1   6   22.79    4.01
  -6  -1   6   21.05    6.97
  -6  -1   6   25.48    3.63
  -6  -1   6   28.33    5.29
  -6  -1   6   23.59    4.86
  -6  -1   6   21.06    4.44
  -6  -1   5  179.92   10.05
  -6  -1   5  164.14   10.33
  -6  -1   5  160.99   18.92
  -6  -1   5  178.76   14.56
   6  -1  -4  288.40   26.77
  -6  -1   4  230.33   22.39
   6  -1  -3   57.83   12.23
  -6  -1   3   51.85   10.85
   6  -1  -2  367.33   30.01
  -6  -1   2  349.14   28.63
  -6  -1   2  299.65   26.56
   6  -1  -1   51.78   10.57
  -6  -1   1   62.58   12.72
   6  -1   0  308.48   27.53
  -6  -1   0  323.50   14.22
  -6  -1   0  339.69   14.91
  -6  -1   0  315.84   29.90
  -6  -1   0  294.70   12.68
  -6  -1  -1  115.11    8.71
   6  -1   1  116.42    9.07
  -6  -1  -1   96.90   17.96
  -6  -1  -1  101.80    7.47
  -6  -1  -2    7.68    2.53
   6  -1   2    8.17    2.50
   6  -1   2    5.34    2.15
   6  -1   2    5.66    2.01
  -6  -1  -2    6.64    2.18
   6  -1   3  146.05   10.28
   6  -1   3  155.62   10.24
   6  -1   3  134.05    9.54
   6  -1   4   43.65    5.57
   6  -1   4   43.56    5.44
   6  -1   4   51.29    5.77
   6  -1   5   35.15    4.81
   6  -1   5   37.31    4.91
   6  -1   5   32.94    4.49
  -6  -1  -6   24.74    3.76
   6  -1   6   21.84    3.53
   6  -1   6   22.17    3.65
   6  -1   6   25.71    3.77
  -6  -1  -7    4.76    1.70
   6  -1   7    4.36    1.69
   6  -1   7    6.12    1.83
   6  -1   7    6.55    1.86
   6  -1   8    8.41    1.66
   6  -1   8   10.97    2.01
   6  -1   8    7.70    1.71
  -6   0  13    2.16    1.08
  -6   0  13    6.44    1.57
  -6   0  12    3.90    1.67
  -6   0  12    6.50    1.71
  -6   0  12    7.18    2.60
  -6   0  11    2.04    1.56
  -6   0  11    2.37    1.72
  -6   0  11    1.47    1.40
  -6   0  11    3.48    2.23
  -6   0  10   -0.33    1.53
  -6   0  10   -0.29    1.39
  -6   0  10    1.82    1.65
  -6   0  10    0.07    1.95
  -6   0  10    0.83    1.23
  -6   0   9    3.35    1.96
  -6   0   9    4.89    2.57
  -6   0   9    4.05    1.63
  -6   0   9    2.72    1.98
  -6   0   8    4.16    2.06
  -6   0   8    2.06    1.85
  -6   0   8    2.02    1.56
  -6   0   8    4.09    1.47
  -6   0   8    0.85    1.59
  -6   0   8    3.50    2.01
  -6   0   7    2.55    1.70
  -6   0   7    3.54    1.85
  -6   0   7    4.77    1.91
  -6   0   7    3.37    2.25
  -6   0   7    2.85    1.65
  -6   0   7    2.02    1.98
  -6   0   6   22.41    5.20
  -6   0   6   23.55    3.82
  -6   0   6   23.87    4.20
  -6   0   6   19.12    7.46
  -6   0   6   26.29    3.72
  -6   0   6   17.99    4.80
  -6   0   6   26.69    5.17
  -6   0   6   19.29    3.90
  -6   0   5    5.28    2.10
   6   0  -5    7.48    4.24
   6   0  -4    8.40    4.65
   6   0  -3    6.48    4.49
  -6   0   3    4.68    3.38
   6   0  -2  717.55   41.40
  -6   0   2  582.00   38.31
   6   0  -1   77.75   13.55
  -6   0   1   59.81   12.68
   6   0   0   42.13   10.27
  -6   0   0   46.42   11.51
  -6   0  -1   93.94   16.82
  -6   0  -1  101.42    8.11
   6   0   1   82.76    7.63
   6   0   1   96.12    8.05
  -6   0  -1   99.60    8.27
  -6   0  -2    5.13    1.84
   6   0   2    6.75    2.29
   6   0   2    5.30    2.06
  -6   0  -2    5.13    2.35
   6   0   2    5.56    2.18
  -6   0  -3   32.45    4.76
   6   0   3   30.40    4.70
   6   0   3   31.72    4.65
   6   0   3   31.41    4.71
  -6   0  -4    0.12    2.06
   6   0   4   -0.09    1.27
   6   0   4    1.22    1.52
   6   0   4    0.98    1.23
  -6   0  -5    5.86    2.45
   6   0   5    4.56    2.05
   6   0   5    1.98    1.23
   6   0   5    6.14    2.11
  -6   0  -6    2.25    1.19
   6   0   6    3.27    1.63
   6   0   6    4.33    1.84
   6   0   6    4.90    1.61
  -6   0  -7    0.12    0.96
   6   0   7    0.48    0.92
   6   0   7    0.05    0.93
   6   0   7   -1.59    1.40
   6   0   8    2.33    1.05
   6   0   8    3.08    1.32
   6   0   8    1.41    0.85
  -6   1  13    9.25    1.72
  -6   1  12   52.15    4.70
  -6   1  11   18.76    3.24
  -6   1  11   18.90    3.25
  -6   1  10   93.59    7.59
  -6   1  10  107.91    7.79
  -6   1   9  156.51    9.61
  -6   1   9  134.25    9.52
  -6   1   8   70.13    7.23
  -6   1   8   82.45    7.20
  -6   1   8   71.73    8.46
  -6   1   7  332.81   15.30
  -6   1   7  355.47   18.33
  -6   1   6   26.77    4.36
  -6   1   6   28.47    5.18
  -6   1   5  193.14   22.30
  -6   1   5  198.46   11.53
   6   1  -5  187.50   21.04
  -6   1   5  194.47   13.22
  -6   1   4  266.52   25.86
   6   1  -4  235.71   23.06
   6   1  -3   69.25   12.68
  -6   1   3   50.05   11.15
   6   1  -2  347.29   28.92
  -6   1   2  370.16   30.93
   6   1  -1   66.72   12.71
  -6   1   1   67.20   13.42
   6   1   0  301.51   27.35
   6   1   0  296.82   13.95
  -6   1   0  322.79   31.01
  -6   1  -1  107.71    8.31
   6   1   1  102.83    8.54
   6   1   1  108.93    8.48
   6   1   1   90.76    7.61
  -6   1  -2    8.65    2.59
   6   1   2    8.49    2.41
   6   1   2    7.62    2.62
   6   1   2    5.53    2.16
  -6   1  -3  134.52    9.39
   6   1   3  130.03    9.42
   6   1   3  146.17    9.74
   6   1   3  130.93    9.15
  -6   1  -4   40.52    5.06
   6   1   4   41.93    5.35
   6   1   4   47.56    5.63
   6   1   4   46.05    5.39
   6   1   5   38.71    4.99
   6   1   5   44.66    5.19
   6   1   5   38.65    4.78
   6   1   6   24.07    3.75
   6   1   6   24.73    3.68
   6   1   6   22.83    3.66
   6   1   7    5.03    1.65
   6   1   7    5.91    1.80
   6   1   7    5.16    1.72
   6   1   8    6.84    1.62
   6   1   8    6.95    1.69
   6   1   8    7.09    1.63
  -6   2  13    7.47    1.54
  -6   2  12   -0.95    1.17
  -6   2  12    2.08    1.24
  -6   2  11   22.82    3.37
  -6   2  11   24.81    3.67
  -6   2  10   21.60    4.09
  -6   2  10   25.94    3.91
  -6   2  10   26.03    4.20
  -6   2   9    4.98    1.94
  -6   2   9    2.06    1.58
  -6   2   9    8.19    2.40
  -6   2   8   73.94    7.53
  -6   2   8   91.64    7.67
  -6   2   8   68.09    8.20
  -6   2   8   79.10    7.54
  -6   2   7   11.53    2.79
  -6   2   7   19.65    3.63
  -6   2   7   18.95    3.91
  -6   2   7   19.11    4.24
  -6   2   6   53.99    6.30
  -6   2   6   52.50    6.87
  -6   2   5   91.09    8.16
  -6   2   5   88.89    8.95
   6   2  -5   78.36   13.96
  -6   2   4   78.78    8.39
   6   2  -4   63.08   12.40
   6   2  -3   45.47   10.50
  -6   2   3   35.28    9.57
   6   2  -2   28.39    8.48
  -6   2   2   22.51    8.52
   6   2  -1   66.83    6.72
   6   2  -1   66.72   12.54
  -6   2   1   58.81   13.47
   6   2   0   59.10    6.45
   6   2   0   51.10    5.88
   6   2   0   52.22    6.11
   6   2   1   33.15    4.85
   6   2   1   31.19    4.56
   6   2   1   30.61    4.67
   6   2   1   30.45    4.65
   6   2   2   54.16    6.07
   6   2   2   56.41    6.14
   6   2   2   60.73    6.43
   6   2   3    1.54    1.05
   6   2   3   -1.11    1.54
   6   2   3    1.59    1.63
   6   2   4   13.50    3.03
   6   2   4    9.86    2.54
   6   2   4    8.83    2.45
   6   2   5   11.61    2.81
   6   2   5    9.27    2.49
   6   2   5    9.07    2.52
   6   2   6   25.15    3.61
   6   2   6   20.67    3.35
   6   2   6   25.83    3.93
   6   2   6   26.79    3.75
   6   2   7    6.32    1.60
   6   2   7   10.90    2.26
   6   2   7   12.23    2.43
   6   2   7   11.38    2.36
   6   2   8    4.20    1.25
   6   2   8    5.34    1.40
   6   2   8    4.21    1.25
  -6   3  12   17.91    2.62
  -6   3  12   14.12    2.17
  -6   3  11    4.47    1.78
  -6   3  11    3.72    1.52
  -6   3  10   90.14    7.12
  -6   3  10   84.34    7.23
  -6   3   9   64.38    6.96
  -6   3   9   83.74    7.43
  -6   3   9   72.84    7.04
  -6   3   8   28.92    4.88
  -6   3   8   32.82    4.96
  -6   3   8   32.42    5.70
  -6   3   8   33.46    5.14
  -6   3   7  100.72    8.98
  -6   3   7   96.36    9.46
  -6   3   7  120.46    9.78
  -6   3   6   19.70    4.23
  -6   3   6   27.87    4.82
  -6   3   6   21.06    4.40
  -6   3   5  106.20    9.38
  -6   3   5  124.73   10.56
  -6   3   5  112.89    9.70
  -6   3   4  201.25   12.58
  -6   3   4  211.85   12.63
  -6   3   3   16.82    3.92
   6   3  -3   16.07    3.73
   6   3  -2  158.19   10.76
  -6   3   2  215.61   14.21
   6   3  -1   43.23    5.59
   6   3  -1   40.09    5.32
   6   3  -1   38.48    5.17
   6   3   0   51.28    5.98
   6   3   0   58.32    6.39
   6   3   0   54.81    6.27
   6   3   0   47.75    5.76
   6   3   1   99.42    8.31
   6   3   1  100.54    8.35
   6   3   1  101.69    8.55
   6   3   1   93.73    8.10
   6   3   2   36.39    4.94
   6   3   2   38.13    5.17
   6   3   2   37.62    5.28
   6   3   2   34.45    4.90
   6   3   3   44.06    5.40
   6   3   3   45.10    5.53
   6   3   3   47.88    5.83
   6   3   3   47.05    5.63
   6   3   4   37.82    4.86
   6   3   4   43.70    5.38
   6   3   4   33.94    4.71
   6   3   4   37.51    4.96
   6   3   5   25.48    3.82
   6   3   5   24.36    3.90
   6   3   5   29.20    4.48
   6   3   5   28.82    4.10
   6   3   6   40.70    4.47
   6   3   6   34.18    4.01
   6   3   6   37.43    4.38
   6   3   6   32.16    4.09
   6   3   7    1.43    1.12
   6   3   7    0.55    0.82
   6   3   7    2.68    1.34
  -6   4  12    1.17    0.90
  -6   4  12    2.12    1.05
  -6   4  11   54.51    4.77
  -6   4  11   52.39    4.86
  -6   4  10    5.80    2.09
  -6   4  10    6.83    2.09
  -6   4   9  110.49    8.12
  -6   4   9  110.93    8.67
  -6   4   8  105.03    9.21
  -6   4   8  108.13    9.93
  -6   4   8  124.39    9.78
  -6   4   7   26.45    4.93
  -6   4   7   16.21    3.67
  -6   4   7   15.47    3.80
  -6   4   7   14.79    3.69
  -6   4   6  211.97   13.13
  -6   4   6  232.26   14.10
  -6   4   6  245.36   14.97
  -6   4   6  262.58   14.96
  -6   4   5   51.94    6.76
  -6   4   5   71.63    7.81
  -6   4   5   73.61    8.22
  -6   4   4  321.48   17.02
  -6   4   4  274.96   14.71
  -6   4   3  291.24   16.34
  -6   4   2   10.56    3.32
   6   4  -2    9.98    3.04
   6   4  -1  359.67   16.21
   6   4  -1  344.01   16.01
   6   4   0   36.66    5.21
   6   4   0   42.50    5.64
   6   4   0   34.57    5.03
   6   4   1  108.77    8.66
   6   4   1  116.12    9.32
   6   4   1  102.38    8.65
   6   4   1  111.83    8.99
   6   4   2  219.32   12.00
   6   4   2  231.45   12.99
   6   4   2  223.02   12.54
   6   4   2  227.52   12.62
   6   4   3   12.46    3.27
   6   4   3   10.46    2.76
   6   4   3    5.79    2.17
   6   4   3   10.70    2.90
   6   4   4   64.68    6.23
   6   4   4   65.06    6.44
   6   4   4   56.17    5.91
   6   4   4   61.25    6.20
   6   4   5   17.23    3.16
   6   4   5   13.38    2.77
   6   4   5   16.80    3.15
   6   4   6   10.33    2.30
   6   4   6    8.69    2.17
   6   4   6    9.31    2.17
   6   4   7   15.86    2.31
  -6   5  11    0.88    0.94
  -6   5  10   12.57    2.63
  -6   5   9   20.48    3.77
  -6   5   8   14.50    3.55
  -6   5   8   10.88    2.99
  -6   5   7   13.28    3.64
  -6   5   7    5.35    2.39
  -6   5   7   14.07    3.51
  -6   5   7    4.33    2.26
  -6   5   6    7.67    2.72
  -6   5   6    9.19    2.99
  -6   5   6    9.32    3.23
  -6   5   5   16.05    3.83
  -6   5   5   18.80    4.08
  -6   5   5   14.80    3.85
  -6   5   4    1.60    1.63
  -6   5   4    0.33    1.46
  -6   5   3   45.66    6.03
  -6   5   3   80.04    8.74
  -6   5   2   39.91    5.67
  -6   5   2   55.15    7.37
  -6   5   1   22.61    4.26
  -6   5   1   31.76    5.85
  -6   5   0    1.54    1.62
   6   5   0   -0.05    1.26
  -6   5  -1   14.59    3.35
   6   5   1   24.49    4.24
   6   5   1   23.25    4.16
  -6   5  -2    8.40    2.53
   6   5   2    9.99    3.21
   6   5   2    8.71    2.65
   6   5   2    7.60    2.63
  -6   5  -3    1.40    1.55
   6   5   3   -0.29    1.28
   6   5   3    0.22    1.14
   6   5   3   -0.16    1.63
  -6   5  -4    8.57    2.19
   6   5   4   13.97    3.00
   6   5   4   15.80    3.13
   6   5   4   17.30    3.23
  -6   5  -5    3.42    1.59
   6   5   5    7.50    2.18
   6   5   6   26.63    3.17
   6   6 -11   17.66    2.12
  -6   6  11   25.09    2.62
  -6   6  10    4.88    1.66
  -6   6   9   15.55    3.07
  -6   6   8   57.86    6.15
  -6   6   7   13.24    3.67
  -6   6   7    6.35    2.26
  -6   6   7    7.06    2.44
  -6   6   6   50.13    6.07
  -6   6   6   43.93    6.12
  -6   6   6   55.67    6.57
  -6   6   5   46.01    5.84
  -6   6   5   49.84    6.53
  -6   6   5   55.16    6.43
  -6   6   4    3.54    2.04
  -6   6   4    6.35    2.65
  -6   6   3   99.96    8.59
  -6   6   3  145.29   11.53
  -6   6   2   41.66    5.47
  -6   6   2   60.74    7.71
  -6   6   1  125.24    9.64
  -6   6   1  193.91   13.56
  -6   6   0   27.33    4.54
  -6   6   0   47.78    6.81
  -6   6  -1   55.09    6.31
  -6   6  -1   97.32    9.73
  -6   6  -2   21.95    3.90
  -6   6  -3    0.40    1.06
  -6   6  -4   14.65    2.89
  -6   6  -5    3.61    1.35
   6   7 -10    2.15    0.86
  -6   7  10    1.76    0.93
  -6   7   9   15.28    2.69
  -6   7   8    1.87    1.28
  -6   7   7   41.88    5.37
  -6   7   7   39.58    4.88
   6   7  -7   33.77    3.94
  -6   7   6    7.04    2.65
  -6   7   6    2.70    1.73
  -6   7   5   23.98    4.08
  -6   7   5   20.38    3.59
  -6   7   4    4.99    2.40
  -6   7   4    3.92    2.03
  -6   7   3   34.70    4.89
  -6   7   3   43.60    5.92
  -6   7   2   -0.95    1.73
  -6   7   2    4.77    2.25
  -6   7   1   41.12    5.43
  -6   7   1   75.66    8.04
  -6   7   0   31.91    4.67
  -6   7   0   51.15    6.63
  -6   7  -1    1.82    1.51
  -6   7  -1    1.66    1.64
  -6   7  -2   19.65    3.36
  -6   7  -2   36.18    5.26
  -6   7  -3    6.63    2.04
  -6   7  -3   11.38    2.80
  -6   7  -4    1.46    0.89
  -6   7  -4    4.63    1.80
  -6   8   7    1.96    1.25
   6   8  -7    1.96    0.93
  -6   8   6   41.83    4.89
  -6   8   6   39.62    4.15
   6   8  -6   41.90    4.11
  -6   8   5   14.99    3.08
   6   8  -5   20.11    3.20
  -6   8   4   29.92    4.29
   6   8  -4   30.67    4.05
  -6   8   3   17.00    3.29
   6   8  -3   18.63    3.30
  -6   8   2    0.07    1.54
   6   8  -2    2.54    1.07
  -6   8   1   30.94    4.28
   6   8  -1   40.45    4.36
  -6   8   0    7.57    2.02
   6   8   0   11.98    2.28
  -6   8  -1   -2.80    1.74
  -6   8  -1    1.30    1.02
  -6   8  -2   20.50    3.05
  -6   8  -2   25.14    3.56
  -6   8  -3    0.49    0.90
  -6   9   5    8.28    2.29
   6   9  -5    6.77    1.52
  -6   9   4   17.12    2.87
   6   9  -4   29.97    3.14
  -6   9   3   15.78    2.86
   6   9  -3   12.74    2.15
  -6   9   2   18.93    3.07
   6   9  -2   24.49    2.76
  -6   9   1   12.99    2.53
   6   9  -1   16.91    2.12
  -6   9   0   15.07    2.56
  -6   9  -1    4.10    1.36
  -7  -8   6    2.52    1.13
  -7  -8   6    1.78    0.98
  -7  -8   6    4.49    1.11
  -7  -8   5    1.11    0.68
  -7  -8   5    7.80    1.54
  -7  -8   4    5.02    1.26
  -7  -8   4    6.84    1.53
  -7  -8   3   10.40    2.01
  -7  -8   3   14.00    2.02
  -7  -8   2    7.38    1.62
  -7  -8   2    9.82    1.72
  -7  -8   1   10.21    1.95
  -7  -8   1    9.73    1.56
  -7  -8   1    9.73    1.62
  -7  -8   0    3.78    1.20
  -7  -8   0    4.46    1.06
  -7  -7   8    7.73    1.95
  -7  -7   8    7.64    1.63
  -7  -7   8   11.59    2.46
  -7  -7   8   13.23    1.87
  -7  -7   7    2.85    1.28
  -7  -7   7    1.69    0.87
  -7  -7   7    3.39    1.27
  -7  -7   7    4.93    1.78
  -7  -7   7    4.76    1.32
  -7  -7   6    0.52    0.79
  -7  -7   6    3.72    1.75
  -7  -7   6    2.33    1.23
  -7  -7   6    2.12    1.46
  -7  -7   6    4.14    1.34
  -7  -7   6    0.30    0.96
  -7  -7   5   22.91    3.25
  -7  -7   5   23.99    2.90
  -7  -7   5   21.20    3.94
  -7  -7   5   19.94    3.43
  -7  -7   4    8.89    2.27
  -7  -7   4    4.37    1.89
  -7  -7   4    6.35    2.33
  -7  -7   4    7.37    1.79
  -7  -7   3   23.26    3.39
  -7  -7   3   28.52    3.28
  -7  -7   3   21.63    4.25
  -7  -7   3   17.93    3.29
  -7  -7   3   25.62    3.26
  -7  -7   2   10.03    3.07
  -7  -7   2    4.23    1.78
  -7  -7   2   10.91    2.24
  -7  -7   1    9.55    3.02
  -7  -7   1   15.70    2.66
  -7  -7   0    8.76    1.96
  -7  -7   0    7.01    1.69
  -7  -7  -1    0.17    0.66
  -7  -7  -1   -0.16    1.03
  -7  -7  -2   10.87    1.97
  -7  -7  -2    8.67    1.74
  -7  -6  10    0.72    0.98
  -7  -6   9   13.64    2.47
  -7  -6   9    9.14    1.56
  -7  -6   9   19.73    3.56
  -7  -6   9   16.74    2.47
  -7  -6   9   23.12    2.63
  -7  -6   9   18.07    3.22
  -7  -6   9   21.03    2.55
  -7  -6   8    8.54    2.24
  -7  -6   8    9.02    1.88
  -7  -6   8   10.22    2.02
  -7  -6   8   14.82    3.27
  -7  -6   8   17.23    2.55
  -7  -6   8   13.73    3.41
  -7  -6   7    5.90    1.63
  -7  -6   7    9.22    2.06
  -7  -6   7    9.92    2.87
  -7  -6   7    9.27    2.09
  -7  -6   7    9.30    2.76
  -7  -6   7   10.83    3.25
  -7  -6   6  122.02    7.89
  -7  -6   6  143.20    7.37
  -7  -6   6  120.77   10.10
  -7  -6   6  134.73    9.86
  -7  -6   6  119.07   10.84
  -7  -6   5    6.52    2.98
  -7  -6   5    5.94    2.01
  -7  -6   5    5.64    2.33
  -7  -6   5    4.48    2.14
  -7  -6   5    6.64    2.02
  -7  -6   4   72.64    6.36
  -7  -6   4   79.24    5.90
  -7  -6   4   54.63    7.23
  -7  -6   4   69.67    7.48
  -7  -6   4   64.55    8.46
  -7  -6   3   80.79    9.16
  -7  -6   3   66.41    7.64
  -7  -6   3   86.52    9.97
  -7  -6   3   98.54    7.23
  -7  -6   2   23.20    5.21
  -7  -6   2   33.58    4.57
  -7  -6   2   31.29    4.28
  -7  -6   1  122.74    8.58
  -7  -6   1  129.40    8.97
  -7  -6   1  124.67    8.09
  -7  -6   0   21.26    4.62
  -7  -6   0   26.69    4.04
  -7  -6   0   33.74    4.42
  -7  -6   0   28.07    3.79
  -7  -6  -1   19.34    4.12
  -7  -6  -1   31.72    3.95
  -7  -6  -1   29.51    4.15
  -7  -6  -1   24.62    3.77
  -7  -6  -2   48.00    4.82
  -7  -6  -2   32.54    3.96
  -7  -6  -2   42.62    4.22
  -7  -6  -3    9.24    2.09
  -7  -6  -3    5.40    1.48
  -7  -6  -3   10.19    2.05
  -7  -6  -4    4.61    1.33
  -7  -5  11    1.39    1.02
  -7  -5  10    2.96    1.38
  -7  -5  10    5.38    1.92
  -7  -5  10    4.87    1.35
  -7  -5  10    6.74    2.26
  -7  -5  10    2.72    1.04
  -7  -5   9    5.99    2.07
  -7  -5   9    6.80    1.79
  -7  -5   9    7.63    2.39
  -7  -5   9    8.58    1.88
  -7  -5   9   11.57    3.45
  -7  -5   8    7.79    1.95
  -7  -5   8    6.90    2.45
  -7  -5   8    9.11    1.96
  -7  -5   8    7.05    2.88
  -7  -5   8    8.96    3.82
  -7  -5   7   14.18    2.85
  -7  -5   7    9.09    2.19
  -7  -5   7   12.58    3.41
  -7  -5   7   13.45    2.38
  -7  -5   7   17.38    3.81
  -7  -5   7   11.52    3.62
  -7  -5   6    6.26    3.08
  -7  -5   6    4.69    1.81
  -7  -5   6    5.95    2.81
  -7  -5   6    4.07    1.70
  -7  -5   6    4.78    2.40
  -7  -5   5    5.44    3.24
  -7  -5   5    5.94    2.23
  -7  -5   5    4.50    2.69
  -7  -5   5    8.21    2.25
  -7  -5   5    4.41    2.46
  -7  -5   4   11.59    4.01
  -7  -5   4   13.11    2.89
  -7  -5   4   11.06    2.82
  -7  -5   4   12.55    3.91
  -7  -5   4   12.43    2.54
  -7  -5   4   10.94    3.21
  -7  -5   4   10.56    2.54
  -7  -5   3    2.21    2.81
  -7  -5   3    1.89    1.60
  -7  -5   3    2.19    1.51
  -7  -5   2    4.53    2.71
  -7  -5   2    5.54    2.15
  -7  -5   2    3.78    1.97
  -7  -5   2    4.33    1.94
  -7  -5   1    4.08    2.75
  -7  -5   1    5.82    2.26
  -7  -5   1    5.54    2.52
  -7  -5   1    4.76    2.28
  -7  -5   0    1.67    1.42
  -7  -5   0    2.69    2.60
  -7  -5   0    4.12    1.92
  -7  -5   0    3.60    2.20
  -7  -5   0    3.12    1.89
  -7  -5  -1   18.36    4.89
  -7  -5  -1   15.26    3.37
  -7  -5  -1   18.01    3.52
  -7  -5  -1   16.81    3.16
  -7  -5  -1   20.87    3.95
  -7  -5  -2    7.50    2.94
  -7  -5  -2   14.62    3.07
  -7  -5  -2   15.12    3.38
  -7  -5  -2   15.53    3.11
  -7  -5  -2   12.68    2.65
  -7  -5  -3    4.92    2.25
  -7  -5  -3    6.81    2.06
   7  -5   3    6.53    1.74
  -7  -5  -3    9.22    2.28
  -7  -5  -3    3.70    1.80
  -7  -5  -3    6.27    1.82
  -7  -5  -4   11.31    2.91
  -7  -5  -4   16.81    2.77
   7  -5   4   16.23    2.48
  -7  -5  -4   16.38    2.81
  -7  -5  -4   13.67    2.63
  -7  -5  -4   17.12    2.41
  -7  -5  -5    2.39    1.39
  -7  -4  11   23.09    2.67
  -7  -4  11   21.80    3.36
  -7  -4  11   22.15    3.85
  -7  -4  10    4.18    1.71
  -7  -4  10    2.02    1.35
  -7  -4  10    3.12    1.55
  -7  -4  10    3.45    1.89
  -7  -4   9   20.14    3.53
  -7  -4   9   34.00    3.84
  -7  -4   9   32.13    3.63
  -7  -4   9   22.24    4.24
  -7  -4   9   34.49    4.94
  -7  -4   9   24.53    5.03
  -7  -4   8   21.15    3.26
  -7  -4   8   28.57    3.57
  -7  -4   8   22.76    4.51
  -7  -4   8   26.33    4.62
  -7  -4   8   24.37    5.36
  -7  -4   7    8.10    2.26
  -7  -4   7    9.12    2.18
  -7  -4   7   13.40    3.70
  -7  -4   7   13.36    2.59
  -7  -4   7    9.27    2.90
  -7  -4   7   10.44    3.45
  -7  -4   6   56.41    5.71
  -7  -4   6   55.08    6.12
  -7  -4   6   63.70    5.47
  -7  -4   6   55.41    7.37
  -7  -4   6   63.27    7.47
  -7  -4   6   50.73    8.04
  -7  -4   5    8.81    3.81
  -7  -4   5    3.77    1.83
  -7  -4   5    5.19    2.18
  -7  -4   5    6.35    2.89
  -7  -4   5    5.69    1.84
  -7  -4   5    7.57    2.86
  -7  -4   4   64.96    6.43
  -7  -4   4   65.06    6.98
  -7  -4   4   68.03    5.81
  -7  -4   4   56.84    8.94
  -7  -4   4   68.00    6.41
  -7  -4   3   33.48    7.05
  -7  -4   3   35.30    5.25
  -7  -4   3   33.21    5.33
  -7  -4   3   36.49    4.77
  -7  -4   2   55.09    6.42
  -7  -4   2   44.08    6.12
  -7  -4   2   46.04    8.13
  -7  -4   2   47.41    5.42
  -7  -4   1   51.57    6.32
  -7  -4   1   55.74    6.50
  -7  -4   1   65.75    7.45
  -7  -4   1   54.10    8.78
  -7  -4   1   44.42    5.37
  -7  -4   0   22.69    6.06
  -7  -4   0   20.87    4.08
  -7  -4   0   24.00    4.57
  -7  -4   0   23.83    4.60
  -7  -4   0   25.37    4.11
  -7  -4  -1  107.46    8.66
  -7  -4  -1  104.35    8.56
  -7  -4  -1  103.24    9.47
  -7  -4  -1   99.51   11.94
  -7  -4  -1   94.42    7.36
  -7  -4  -2   -0.45    2.14
  -7  -4  -2   -1.06    1.59
   7  -4   2    2.60    1.77
  -7  -4  -2    3.55    1.57
  -7  -4  -2    0.38    1.34
  -7  -4  -2   -0.32    1.25
  -7  -4  -3    2.64    2.30
  -7  -4  -3    2.76    2.05
   7  -4   3    3.27    1.60
  -7  -4  -3    4.80    2.23
  -7  -4  -3    2.05    1.15
  -7  -4  -4   48.48    4.97
   7  -4   4   48.91    4.96
  -7  -4  -4   49.81    5.04
   7  -4   4   39.07    4.05
  -7  -4  -4   46.71    6.73
  -7  -4  -4   43.97    4.05
  -7  -4  -5    1.48    1.35
  -7  -4  -5    6.33    1.87
   7  -4   5    5.19    1.56
  -7  -4  -5    4.84    1.49
   7  -4   5    5.29    1.42
  -7  -4  -5    5.42    1.87
  -7  -3  12    0.39    0.68
  -7  -3  12    0.50    0.70
  -7  -3  12    0.18    0.92
  -7  -3  11   21.42    2.82
  -7  -3  11   17.04    3.34
  -7  -3  11   24.10    4.24
  -7  -3  10   28.95    3.84
  -7  -3  10   52.22    4.55
  -7  -3  10   36.02    5.17
  -7  -3  10   45.82    6.52
  -7  -3   9   13.97    2.86
  -7  -3   9   18.48    3.07
  -7  -3   9   27.23    3.51
  -7  -3   9   24.97    4.69
  -7  -3   9   22.65    4.21
  -7  -3   9   23.39    5.11
  -7  -3   8   21.80    3.79
  -7  -3   8   27.91    3.73
  -7  -3   8   35.56    4.14
  -7  -3   8   29.34    5.23
  -7  -3   8   30.54    5.19
  -7  -3   8   36.55    6.35
  -7  -3   7   37.33    6.65
  -7  -3   7   36.21    4.66
  -7  -3   7   32.96    4.79
  -7  -3   7   30.47    4.03
  -7  -3   7   37.56    4.29
  -7  -3   7   29.80    5.44
  -7  -3   7   41.69    6.06
  -7  -3   6    5.77    3.44
  -7  -3   6   12.79    2.86
  -7  -3   6   12.54    3.34
  -7  -3   6   12.35    3.87
  -7  -3   6   11.30    2.57
  -7  -3   6    6.48    2.75
  -7  -3   5   56.21    5.94
  -7  -3   5   49.15    6.05
  -7  -3   5   47.70    4.95
  -7  -3   5   50.42    7.32
  -7  -3   5   52.59    8.21
  -7  -3   4    1.47    2.05
  -7  -3   4    1.16    1.44
  -7  -3   4    3.47    1.91
  -7  -3   4    2.34    1.74
  -7  -3   4    1.71    1.51
  -7  -3   4    2.96    1.91
  -7  -3   3   38.98    7.39
  -7  -3   3   44.07    5.77
  -7  -3   3   39.55    4.55
  -7  -3   3   39.19    5.52
  -7  -3   3   42.98    5.19
  -7  -3   2   43.21    8.04
  -7  -3   2   51.65    6.18
  -7  -3   2   43.09    6.04
  -7  -3   2   47.18    5.39
  -7  -3   1   30.43    6.69
  -7  -3   1   28.59    4.80
  -7  -3   1   24.33    4.42
  -7  -3   1   26.13    4.79
  -7  -3   1   30.92    4.46
  -7  -3   0   69.47    7.29
  -7  -3   0   63.06    6.85
  -7  -3   0   69.41    7.87
  -7  -3   0   67.86   10.20
  -7  -3   0   65.13    6.26
  -7  -3  -1   41.97    5.67
   7  -3   1   40.44    5.42
  -7  -3  -1   49.07    5.99
  -7  -3  -1   36.40    4.76
  -7  -3  -2   38.18    5.31
   7  -3   2   45.40    5.70
  -7  -3  -2   45.45    5.79
  -7  -3  -2   36.30    4.49
  -7  -3  -3   15.35    3.50
   7  -3   3   13.99    3.16
  -7  -3  -3   10.87    3.01
   7  -3   3    9.75    2.51
  -7  -3  -3   11.37    2.43
  -7  -3  -4    2.99    1.73
   7  -3   4    2.24    1.46
  -7  -3  -4    3.39    1.72
   7  -3   4    1.96    1.54
  -7  -3  -4    2.70    1.38
  -7  -3  -5   10.63    2.53
   7  -3   5    8.46    2.14
  -7  -3  -5    7.93    1.96
   7  -3   5    9.15    1.99
  -7  -3  -6   15.28    3.37
  -7  -3  -6   20.38    2.76
   7  -3   6   18.31    2.51
   7  -3   6   16.79    2.19
  -7  -3  -6   16.48    2.76
  -7  -2  12    2.85    1.41
  -7  -2  12    3.70    1.14
  -7  -2  12    2.34    1.45
  -7  -2  11   16.45    2.49
  -7  -2  11   21.37    2.84
  -7  -2  11   16.10    3.14
  -7  -2  11   18.20    3.99
  -7  -2  10    4.41    1.75
  -7  -2  10    4.45    1.82
  -7  -2  10    7.66    2.08
  -7  -2  10    7.28    2.87
  -7  -2   9   56.94    6.10
  -7  -2   9   74.72    5.85
  -7  -2   9   56.40    6.99
  -7  -2   9   56.61    6.66
  -7  -2   9   62.61    8.16
  -7  -2   8   26.01    4.33
  -7  -2   8   28.72    3.93
  -7  -2   8   23.86    4.66
  -7  -2   8   34.19    5.43
  -7  -2   8   34.22    6.32
  -7  -2   7   25.39    5.38
  -7  -2   7   23.34    3.83
  -7  -2   7   22.38    4.12
  -7  -2   7   30.26    3.98
  -7  -2   7   20.79    4.77
  -7  -2   7   26.99    4.95
  -7  -2   6   96.00    7.54
  -7  -2   6   87.17    7.88
  -7  -2   6  107.89    7.24
  -7  -2   6   94.06    9.79
  -7  -2   6  114.41   10.26
  -7  -2   6  105.72   11.42
  -7  -2   5   33.18    6.72
  -7  -2   5   29.90    4.24
  -7  -2   5   26.37    5.17
  -7  -2   5   30.89    3.94
  -7  -2   5   32.04    5.98
  -7  -2   4  184.68   10.57
  -7  -2   4  196.90   11.71
  -7  -2   4  172.04    9.05
  -7  -2   4  171.31   11.12
  -7  -2   4  202.20   16.31
  -7  -2   4  193.18   10.49
  -7  -2   3   32.51    6.69
  -7  -2   3   29.96    4.68
  -7  -2   3   24.91    4.40
  -7  -2   3   28.41    4.13
  -7  -2   2   20.45    5.67
  -7  -2   2   22.65    4.26
  -7  -2   2   22.18    4.20
  -7  -2   2   23.86    4.55
  -7  -2   2   23.35    3.88
  -7  -2   1   37.25    5.25
  -7  -2   1   49.36    6.03
  -7  -2   1   48.38    6.50
  -7  -2   1   49.42    8.79
  -7  -2   1   39.29    5.01
  -7  -2   0   57.07    6.37
   7  -2   0   47.26    5.92
  -7  -2   0   61.04    6.70
  -7  -2   0   56.35    7.38
  -7  -2   0   56.14    5.85
  -7  -2  -1   44.96    5.77
   7  -2   1   44.57    5.82
  -7  -2  -1   43.38    5.73
  -7  -2  -1   39.00    4.85
  -7  -2  -2   25.08    4.32
   7  -2   2   25.54    4.38
  -7  -2  -2   28.03    4.68
  -7  -2  -2   23.05    3.65
  -7  -2  -3   19.62    3.96
   7  -2   3   17.63    3.46
  -7  -2  -3   18.47    3.69
   7  -2   3   13.77    3.15
  -7  -2  -4   14.54    3.31
   7  -2   4   12.39    2.87
  -7  -2  -4   14.02    3.10
   7  -2   4   11.80    2.78
  -7  -2  -5    1.62    1.28
   7  -2   5    1.06    1.12
   7  -2   5    0.92    1.60
  -7  -2  -5    1.72    1.06
   7  -2   5    1.61    1.13
  -7  -2  -6   24.03    3.06
   7  -2   6   23.27    2.96
   7  -2   6   14.31    2.15
   7  -2   6   23.24    2.85
  -7  -1  12   47.25    3.80
  -7  -1  12   36.95    4.62
  -7  -1  11   12.53    2.55
  -7  -1  11   20.38    3.01
  -7  -1  11   12.72    2.95
  -7  -1  11   16.31    2.70
  -7  -1  11   17.91    3.82
  -7  -1  10   40.01    5.02
  -7  -1  10   58.81    5.11
  -7  -1  10   44.70    5.90
  -7  -1  10   57.14    5.36
  -7  -1  10   53.18    7.06
  -7  -1   9   12.21    3.02
  -7  -1   9   18.11    3.91
  -7  -1   9   16.18    2.99
  -7  -1   9   18.97    4.01
  -7  -1   9   23.64    5.10
  -7  -1   8   59.75    6.51
  -7  -1   8   77.56    6.31
  -7  -1   8   62.34    7.65
  -7  -1   8   62.60    7.17
  -7  -1   8   62.84    8.47
  -7  -1   7   68.46    6.99
  -7  -1   7   80.61    6.45
  -7  -1   7   75.68    8.55
  -7  -1   7   67.48    8.58
  -7  -1   7   77.86    8.08
  -7  -1   7   74.40    9.54
  -7  -1   6   25.72    5.79
  -7  -1   6   29.17    4.31
  -7  -1   6   33.47    5.49
  -7  -1   6   24.27    4.24
  -7  -1   6   28.66    4.08
  -7  -1   6   28.74    5.39
  -7  -1   6   23.35    5.11
  -7  -1   5  193.24   10.70
  -7  -1   5  195.45   11.54
  -7  -1   5  196.82    9.73
  -7  -1   5  174.21   13.41
  -7  -1   5  208.39   16.08
  -7  -1   4   35.17    4.69
  -7  -1   4   38.76    5.21
  -7  -1   4   36.95    5.19
  -7  -1   4   48.94    7.97
  -7  -1   3   46.69    5.29
  -7  -1   3   53.53    6.20
  -7  -1   3   47.51    5.98
  -7  -1   3   56.73    8.67
  -7  -1   3   52.54    5.62
  -7  -1   2  285.20   14.07
  -7  -1   2  262.13   14.44
  -7  -1   2  301.41   20.75
  -7  -1   2  273.81   12.73
  -7  -1   1  152.05   10.16
   7  -1  -1  142.94   10.27
  -7  -1   1  161.04   10.72
  -7  -1   1  173.60   12.02
  -7  -1   1  177.09   16.41
  -7  -1   1  151.07    9.43
  -7  -1   0  124.91    9.31
   7  -1   0  112.54    9.18
  -7  -1   0  125.32    9.49
  -7  -1   0  133.68   10.97
  -7  -1   0  110.52    8.07
  -7  -1  -1   19.99    3.89
   7  -1   1   24.60    4.46
  -7  -1  -1   21.90    4.30
  -7  -1  -1   20.04    3.46
  -7  -1  -2  104.38    8.56
   7  -1   2   99.08    8.25
  -7  -1  -2  103.23    8.47
   7  -1   2   92.63    7.63
  -7  -1  -3   59.53    6.27
   7  -1   3   53.52    5.81
   7  -1   3   52.46    5.81
  -7  -1  -3   55.74    6.01
   7  -1   3   49.37    5.53
  -7  -1  -4    6.31    2.21
   7  -1   4    7.21    2.23
   7  -1   4    4.73    1.69
  -7  -1  -4    4.14    1.76
   7  -1   4    7.08    2.08
  -7  -1  -5   17.36    3.14
   7  -1   5   17.04    3.03
   7  -1   5   14.05    2.62
   7  -1   5   14.72    2.67
  -7  -1  -6    1.21    0.89
   7  -1   6    0.56    0.95
   7  -1   6    1.07    0.77
   7  -1   6    3.44    1.32
  -7   0  12    1.24    1.04
  -7   0  12    0.58    0.68
  -7   0  11    1.01    1.17
  -7   0  11    1.94    1.39
  -7   0  11    0.47    0.82
  -7   0  11    2.12    1.64
  -7   0  10    1.59    1.54
  -7   0  10   -1.16    1.42
  -7   0  10    0.05    1.13
  -7   0  10    2.28    1.67
  -7   0  10   -0.45    1.60
  -7   0   9    0.48    1.20
  -7   0   9    1.47    1.77
  -7   0   9    1.38    1.36
  -7   0   9    2.41    2.33
  -7   0   8    8.73    2.78
  -7   0   8    8.33    2.38
  -7   0   8    7.34    3.21
  -7   0   8    7.46    2.82
  -7   0   7    2.03    2.25
  -7   0   7    3.73    2.13
  -7   0   7    1.39    1.11
  -7   0   7    3.23    2.06
  -7   0   6   32.66    6.39
  -7   0   6   39.80    5.34
  -7   0   6   38.16    6.32
  -7   0   6   36.52    5.59
  -7   0   5   21.40    5.24
  -7   0   5   12.61    2.86
  -7   0   5   14.06    3.35
  -7   0   5   13.55    3.82
  -7   0   4   16.56    4.83
  -7   0   4   13.69    3.17
  -7   0   4   13.19    3.78
  -7   0   3   33.62    6.76
  -7   0   3   31.97    4.83
  -7   0   3   27.72    4.54
  -7   0   3   30.09    5.45
  -7   0   2   37.71    7.29
   7   0  -2   41.57    5.63
  -7   0   2   43.81    5.66
  -7   0   2   37.48    5.55
  -7   0   2   29.97    5.62
  -7   0   2   38.37    5.00
  -7   0   1   22.78    6.11
  -7   0   1   24.49    4.32
   7   0  -1   19.18    3.96
  -7   0   1   24.44    4.38
  -7   0   1   22.16    4.24
  -7   0   1   21.94    3.79
  -7   0   0  139.35    9.76
   7   0   0  136.34    9.96
  -7   0   0  138.39    9.99
  -7   0   0  141.25   10.84
  -7   0   0  114.78    8.19
  -7   0  -1    4.05    1.82
   7   0   1    2.07    1.74
  -7   0  -1    3.72    1.69
  -7   0  -2    2.04    2.00
   7   0   2    1.31    1.66
   7   0   2    1.12    1.03
  -7   0  -2   -0.79    1.41
   7   0   2   -0.03    1.48
  -7   0  -3   -0.01    1.71
   7   0   3    3.37    1.88
   7   0   3    1.91    1.50
   7   0   3    0.31    1.16
  -7   0  -4    6.59    2.13
   7   0   4    8.89    2.67
   7   0   4    6.73    1.99
   7   0   4    5.01    1.74
  -7   0  -5    2.81    1.52
   7   0   5    1.64    1.23
   7   0   5    1.11    1.03
   7   0   5    3.22    1.57
   7   0   6    7.59    1.75
   7   0   6    6.86    1.83
   7   0   6    6.62    1.69
   7   0   6    5.25    1.56
  -7   1  12   44.75    3.74
  -7   1  12   32.36    3.13
  -7   1  11   19.91    3.01
  -7   1  11   20.35    3.01
  -7   1  10   54.85    5.19
  -7   1  10   61.08    5.81
  -7   1   9   18.62    3.75
  -7   1   9   21.83    3.67
  -7   1   9   16.80    3.33
  -7   1   8   53.41    6.33
  -7   1   8   70.82    6.37
  -7   1   8   59.21    7.71
  -7   1   8   77.44    7.04
  -7   1   7   76.03    7.42
  -7   1   7   82.82    9.08
  -7   1   6   27.54    4.71
  -7   1   6   30.07    5.49
  -7   1   5  194.88   11.94
  -7   1   5  200.71   14.02
  -7   1   4   42.52    5.63
  -7   1   4   38.29    6.23
   7   1  -3   41.33    5.57
  -7   1   3   48.03    6.08
  -7   1   3   47.43    7.12
  -7   1   3   26.27    4.46
   7   1  -2  292.28   14.68
  -7   1   2  304.68   15.06
  -7   1   2  292.82   17.22
  -7   1   2  277.41   19.15
   7   1  -1  143.25   10.18
  -7   1   1  145.48   10.45
  -7   1   1  134.99   11.99
  -7   1   1  147.73   14.43
  -7   1   0  126.99    9.36
   7   1   0  128.95    9.75
   7   1   0  139.58    9.86
  -7   1   0  138.81   10.00
  -7   1   0  115.82   11.28
  -7   1  -1   24.56    4.19
   7   1   1   26.28    4.32
   7   1   1   23.69    4.30
   7   1   1   25.05    4.39
  -7   1  -1   20.44    4.96
  -7   1  -2   91.29    7.69
   7   1   2   88.69    7.83
   7   1   2   92.32    7.63
   7   1   2   85.15    7.65
   7   1   2   78.97    7.04
  -7   1  -3   60.58    5.95
   7   1   3   60.06    6.27
   7   1   3   63.02    6.13
   7   1   3   63.47    6.35
   7   1   3   59.83    5.97
   7   1   4    7.99    2.11
   7   1   4    4.08    1.86
   7   1   4    6.58    2.00
   7   1   4    7.20    2.10
   7   1   5   13.47    2.51
   7   1   5   18.36    3.18
   7   1   5   13.97    2.83
   7   1   5   13.75    2.56
   7   1   6    0.94    0.77
   7   1   6    2.40    1.27
   7   1   6    2.42    1.17
   7   1   6    0.22    0.73
  -7   2  12    2.68    0.99
  -7   2  12    1.75    0.81
  -7   2  11   20.22    2.90
  -7   2  11   21.23    3.17
  -7   2  10    6.36    2.15
  -7   2  10    9.46    2.33
  -7   2  10    8.15    2.37
  -7   2   9   79.86    6.55
  -7   2   9   78.64    7.01
  -7   2   8   26.41    4.40
  -7   2   8   33.36    4.95
  -7   2   8   25.96    5.10
  -7   2   7   21.50    4.16
  -7   2   7   32.24    4.93
  -7   2   7   22.10    4.71
  -7   2   6  118.39    9.50
  -7   2   6  134.89   10.05
  -7   2   5   29.09    4.84
  -7   2   5   37.69    5.60
  -7   2   5   29.12    5.44
  -7   2   4  193.02   12.18
  -7   2   4  198.33   13.79
   7   2  -3   37.60    5.37
  -7   2   3   37.25    5.46
  -7   2   3   32.35    5.84
   7   2  -2   25.51    4.45
  -7   2   2   27.51    4.76
  -7   2   2   23.36    5.17
   7   2  -1   34.33    5.08
  -7   2   1   34.13    6.22
   7   2   0   56.81    6.47
   7   2   0   47.39    5.77
  -7   2   0   49.69    7.40
   7   2   1   39.31    5.31
   7   2   1   36.25    4.95
   7   2   1   40.55    5.35
   7   2   1   40.96    5.24
   7   2   2   19.80    3.56
   7   2   2   19.36    3.66
   7   2   2   22.17    3.87
   7   2   2   18.63    3.59
   7   2   3   17.72    3.30
   7   2   3   13.21    2.99
   7   2   3   17.08    3.34
   7   2   3   14.81    3.10
   7   2   4   13.85    2.86
   7   2   4   13.76    2.77
   7   2   4   12.29    2.69
   7   2   4   13.39    2.78
   7   2   5    0.86    0.77
   7   2   5   -0.23    0.85
   7   2   5    0.32    1.11
   7   2   5    0.14    0.84
  -7   2  -5    1.37    1.56
   7   2   6   18.34    2.56
   7   2   6   14.02    2.15
   7   2   6   17.76    2.54
   7   2   6   19.68    2.65
  -7   3  12    0.07    0.54
  -7   3  11   26.30    3.05
  -7   3  11   21.84    3.05
  -7   3  10   58.64    4.99
  -7   3  10   63.13    5.82
  -7   3   9   14.67    3.30
  -7   3   9   27.41    4.17
  -7   3   8   35.27    5.23
  -7   3   8   33.08    5.66
  -7   3   8   41.06    5.50
  -7   3   7   31.51    4.96
  -7   3   7   34.14    5.70
  -7   3   7   45.74    5.89
  -7   3   6    9.78    2.95
  -7   3   6    7.53    2.75
  -7   3   6    8.52    2.94
  -7   3   5   53.05    6.67
  -7   3   5   54.55    7.05
  -7   3   5   64.74    7.15
  -7   3   4    0.22    1.42
  -7   3   4    3.04    2.10
   7   3  -3   44.48    5.89
  -7   3   3   44.36    6.63
   7   3  -2   40.20    5.47
  -7   3   2   33.56    5.82
   7   3  -1   24.53    4.20
   7   3  -1   24.65    4.21
  -7   3   1   27.50    5.59
   7   3   0   60.52    6.47
   7   3   0   58.20    6.44
   7   3   0   56.02    6.16
  -7   3   0   63.37    8.14
   7   3   1   40.32    5.24
   7   3   1   35.13    4.83
   7   3   1   33.55    4.75
   7   3   1   32.79    4.61
   7   3   2   40.66    5.07
   7   3   2   42.13    5.19
   7   3   2   41.51    5.17
   7   3   2   39.86    5.07
   7   3   3   10.42    2.66
   7   3   3    9.39    2.47
   7   3   3    8.11    2.27
   7   3   3    8.74    2.47
   7   3   4    2.91    1.52
   7   3   4    4.58    1.71
   7   3   4    1.33    1.25
   7   3   4    3.71    1.42
   7   3   5    8.11    1.98
   7   3   5    6.76    1.87
   7   3   5    6.84    1.84
   7   3   5    6.92    1.84
  -7   3  -5    6.42    2.21
   7   3   6   16.51    2.29
   7   3   6   13.16    2.01
  -7   4  11   18.28    2.65
  -7   4  10    4.25    1.75
  -7   4   9   32.63    4.44
  -7   4   8   27.43    4.52
  -7   4   8   36.76    5.15
  -7   4   8   27.74    4.90
  -7   4   7    7.76    2.62
  -7   4   7   16.17    3.93
  -7   4   7   10.52    3.23
  -7   4   6   50.67    6.53
  -7   4   6   43.09    6.56
  -7   4   6   61.66    6.88
  -7   4   5    5.34    2.41
  -7   4   5    4.35    2.30
  -7   4   4   75.42    8.26
  -7   4   3   36.00    5.94
  -7   4   2   53.67    7.22
   7   4  -1   46.95    5.84
  -7   4   1   51.36    7.07
   7   4   0   24.61    4.15
   7   4   0   22.96    4.13
  -7   4   0   21.07    4.75
   7   4   1   89.09    7.62
   7   4   1   96.99    7.99
   7   4   1   83.85    7.28
  -7   4  -1   92.59    9.34
   7   4   2    5.71    1.91
   7   4   2   -0.16    1.32
   7   4   2    2.72    1.90
   7   4   3    2.33    1.42
   7   4   3    2.78    1.68
   7   4   3    2.87    1.35
   7   4   4   33.63    3.98
   7   4   4   41.47    4.35
   7   4   4   40.74    4.26
   7   4   5    4.94    1.64
  -7   4  -5    3.68    1.57
  -7   5  11    2.71    1.06
  -7   5  10    4.84    1.54
  -7   5   9    6.68    2.02
  -7   5   8    9.00    2.63
  -7   5   8   10.39    2.63
  -7   5   7   15.13    3.37
  -7   5   7   19.61    3.75
  -7   5   7   12.96    3.36
  -7   5   6    5.33    2.07
  -7   5   6    5.19    2.33
  -7   5   5    4.80    2.34
  -7   5   4   13.74    3.67
  -7   5   3    2.51    1.76
  -7   5   2    6.72    2.58
  -7   5   1    4.88    2.24
  -7   5   0    2.26    1.71
  -7   5  -1   20.06    4.18
  -7   5  -2   10.63    3.07
  -7   5  -3    5.15    2.09
  -7   5  -4    9.40    2.50
  -7   6  10    3.55    1.20
  -7   6   9   28.26    3.43
  -7   6   8   19.74    3.14
  -7   6   7   11.22    2.64
  -7   6   7    9.57    2.44
  -7   6   6   98.18    7.58
  -7   6   6  115.43    9.06
  -7   6   5    4.26    2.06
  -7   6   5    2.49    1.81
  -7   6   4   46.17    5.45
  -7   6   4   52.97    6.52
  -7   6   3   62.46    6.22
  -7   6   3   87.47    8.23
  -7   6   2   14.34    3.04
  -7   6   2   32.00    5.06
  -7   6   1   61.35    6.20
  -7   6   1   91.99    8.57
  -7   6   0   10.11    2.59
  -7   6   0   18.10    3.80
  -7   6  -1    5.76    1.99
  -7   6  -1   23.16    4.30
  -7   6  -2   27.78    4.27
  -7   6  -3    5.78    2.01
  -7   6  -4    3.84    1.44
  -7   7   8   14.67    2.26
  -7   7   7    3.02    1.22
   7   7  -7    3.29    1.21
  -7   7   6    3.58    2.09
  -7   7   5   15.22    3.03
  -7   7   5   19.45    3.39
  -7   7   4    7.96    2.21
  -7   7   4    5.09    1.97
  -7   7   3   15.69    3.10
  -7   7   3   19.79    3.80
  -7   7   2    8.52    2.30
  -7   7   2    9.75    2.74
  -7   7   1    4.62    1.80
  -7   7   1   11.63    3.01
  -7   7   0    0.17    0.96
  -7   7   0    4.89    1.92
  -7   7  -1   -0.10    0.90
  -7   7  -1    0.93    1.05
  -7   7  -2    2.70    1.34
   7   8  -6    4.76    1.21
  -7   8   5    7.57    2.03
   7   8  -5    8.32    1.64
  -7   8   4    1.99    1.32
   7   8  -4    7.19    1.62
  -7   8   3    7.29    1.92
   7   8  -3   11.98    2.01
  -7   8   2    6.36    1.78
   7   8  -2    7.35    1.61
  -7   8   1    5.80    1.64
   7   8  -1    8.74    1.48
  -8  -7   6   12.76    1.78
  -8  -7   5    1.62    0.97
  -8  -7   5    0.37    0.58
  -8  -7   5    3.86    1.67
  -8  -7   5    3.80    1.03
  -8  -7   4    0.84    0.85
  -8  -7   4    1.69    1.10
  -8  -7   4    1.55    0.91
  -8  -7   3    4.92    1.47
  -8  -7   3    3.90    1.64
  -8  -7   3    4.87    1.13
  -8  -7   2    0.61    0.83
  -8  -7   2    1.28    1.16
  -8  -7   2    0.50    0.61
  -8  -7   1    2.17    0.88
  -8  -6   8   -0.15    0.83
  -8  -6   8    1.86    1.13
  -8  -6   8    2.21    0.88
  -8  -6   7    1.65    0.90
  -8  -6   7    4.75    1.80
  -8  -6   7    6.74    1.48
  -8  -6   7    3.35    1.49
  -8  -6   7    5.30    2.07
  -8  -6   6    3.76    1.48
  -8  -6   6    0.90    0.83
  -8  -6   6    3.21    1.83
  -8  -6   6    4.30    1.46
  -8  -6   6    1.89    1.35
  -8  -6   6    3.63    1.54
  -8  -6   5    0.36    1.07
  -8  -6   5    0.68    1.17
  -8  -6   5    1.87    1.19
  -8  -6   5    1.88    1.38
  -8  -6   5    1.56    1.46
  -8  -6   4   15.15    3.36
  -8  -6   4   15.11    2.73
  -8  -6   4   15.21    3.49
  -8  -6   4   17.77    2.42
  -8  -6   4   11.92    2.89
  -8  -6   3   11.92    3.09
  -8  -6   3   11.96    2.36
  -8  -6   3   10.86    3.04
  -8  -6   3    8.13    1.73
  -8  -6   3   11.33    2.64
  -8  -6   2   17.48    3.60
  -8  -6   2   22.68    3.08
  -8  -6   2   23.98    3.16
  -8  -6   2   21.43    2.60
  -8  -6   2   15.56    3.56
  -8  -6   2   14.39    2.99
  -8  -6   2   27.39    3.39
  -8  -6   1   14.63    3.08
  -8  -6   1   16.70    2.75
  -8  -6   1   22.96    3.10
  -8  -6   1   12.23    3.07
  -8  -6   1   14.65    2.00
  -8  -6   1    6.89    2.38
  -8  -6   1   21.00    2.91
  -8  -6   0    0.62    0.80
  -8  -6   0    4.46    1.48
  -8  -6   0    5.29    1.60
  -8  -6   0    0.46    0.91
  -8  -6   0    3.76    1.34
  -8  -6  -1   10.69    1.78
  -8  -6  -1   14.60    2.19
  -8  -6  -1   14.81    2.06
  -8  -5   9    5.04    1.42
  -8  -5   9    9.88    2.25
  -8  -5   9   11.16    1.82
  -8  -5   9    8.35    2.31
  -8  -5   8    2.12    1.14
  -8  -5   8    0.43    0.84
  -8  -5   8    2.23    1.39
  -8  -5   8    0.67    1.06
  -8  -5   8    0.57    1.15
  -8  -5   8    3.01    1.69
  -8  -5   7    1.45    1.05
  -8  -5   7    3.85    2.02
  -8  -5   7    5.02    1.58
  -8  -5   7    4.82    1.97
  -8  -5   7    0.96    1.39
  -8  -5   6    2.45    1.54
  -8  -5   6    1.42    0.95
  -8  -5   6    2.33    1.80
  -8  -5   6    6.55    1.81
  -8  -5   6    2.42    1.77
  -8  -5   6    2.88    2.01
  -8  -5   5   13.33    3.78
  -8  -5   5   11.55    2.65
  -8  -5   5   10.78    2.52
  -8  -5   5   12.26    3.29
  -8  -5   5   13.30    2.45
  -8  -5   5   10.61    2.76
  -8  -5   4    2.40    2.31
  -8  -5   4    0.86    1.16
  -8  -5   4    1.15    1.17
  -8  -5   4    0.58    1.63
  -8  -5   4    0.81    1.08
  -8  -5   4   -0.20    1.81
  -8  -5   3    8.59    3.28
  -8  -5   3   11.13    2.58
  -8  -5   3    8.52    2.32
  -8  -5   3    9.99    3.29
  -8  -5   3    8.58    1.95
  -8  -5   3    8.36    2.65
  -8  -5   3    9.88    2.40
  -8  -5   2    2.59    2.16
  -8  -5   2    3.03    1.44
  -8  -5   2    3.65    1.73
  -8  -5   2    2.79    1.33
  -8  -5   2    4.93    1.90
  -8  -5   1   13.96    4.00
  -8  -5   1   18.18    3.29
  -8  -5   1   13.70    2.98
  -8  -5   1   17.26    3.00
  -8  -5   0    0.56    1.74
  -8  -5   0    3.17    1.68
  -8  -5   0    1.50    1.22
  -8  -5   0    1.93    1.30
  -8  -5  -1    9.57    2.80
  -8  -5  -1    9.90    2.31
  -8  -5  -1   10.25    2.37
  -8  -5  -1    9.31    2.00
  -8  -5  -2    1.44    0.84
  -8  -5  -2    0.71    0.94
  -8  -5  -2    0.71    0.84
  -8  -5  -2   -0.02    0.81
  -8  -4  10    3.91    1.41
  -8  -4  10    4.36    1.25
  -8  -4  10    3.81    1.17
  -8  -4  10    3.44    1.74
  -8  -4   9   44.64    3.78
  -8  -4   9   35.61    4.68
  -8  -4   9   32.81    4.97
  -8  -4   8    8.66    2.62
  -8  -4   8    9.73    1.90
  -8  -4   8   11.51    2.84
  -8  -4   8    8.76    2.99
  -8  -4   7   36.36    4.27
  -8  -4   7   51.28    4.49
  -8  -4   7   36.90    5.65
  -8  -4   7   45.36    6.77
  -8  -4   6   59.22    5.52
  -8  -4   6   57.71    5.74
  -8  -4   6   66.86    5.23
  -8  -4   6   58.47    7.14
  -8  -4   6   59.73    6.76
  -8  -4   6   67.20    8.23
  -8  -4   5    3.83    2.92
  -8  -4   5    1.90    1.60
  -8  -4   5    3.99    1.94
  -8  -4   5   -0.13    1.47
  -8  -4   5    2.65    1.37
  -8  -4   5    2.10    1.71
  -8  -4   4   85.38    6.76
  -8  -4   4   90.19    7.61
  -8  -4   4   80.41    5.74
  -8  -4   4   82.47    8.93
  -8  -4   4   59.43    7.08
  -8  -4   4   80.73    9.69
  -8  -4   3    2.81    2.18
  -8  -4   3    3.20    1.44
  -8  -4   3    4.12    1.81
  -8  -4   3    4.20    1.56
  -8  -4   3    3.26    1.69
  -8  -4   2   36.78    6.91
  -8  -4   2   34.37    4.54
  -8  -4   2   37.84    5.04
  -8  -4   2   34.93    4.96
  -8  -4   2   41.74    4.83
  -8  -4   1   46.48    5.55
  -8  -4   1   47.15    5.71
  -8  -4   1   45.14    7.45
  -8  -4   1   41.67    4.72
  -8  -4   0    3.54    2.69
  -8  -4   0    9.71    2.51
  -8  -4   0    5.09    2.02
  -8  -4   0    8.35    2.20
  -8  -4  -1   29.49    5.44
  -8  -4  -1   34.49    4.41
  -8  -4  -1   32.77    4.61
  -8  -4  -1   25.78    3.48
  -8  -4  -2    9.73    3.16
  -8  -4  -2    8.97    2.23
  -8  -4  -2   11.82    2.70
  -8  -4  -2    6.75    1.68
  -8  -4  -3   18.63    3.63
  -8  -4  -3   24.17    3.09
  -8  -4  -3   21.65    3.09
  -8  -4  -3   16.30    2.05
  -8  -3  11    1.58    0.98
  -8  -3  11    3.12    0.98
  -8  -3  10   16.00    2.96
  -8  -3  10   16.24    2.35
  -8  -3  10   17.16    2.49
  -8  -3  10   16.97    3.54
  -8  -3   9    0.39    0.77
  -8  -3   9    1.95    1.76
  -8  -3   9    1.55    1.04
  -8  -3   9    0.81    1.35
  -8  -3   9    0.76    1.20
  -8  -3   8   13.46    2.66
  -8  -3   8   18.19    3.82
  -8  -3   8   19.39    2.87
  -8  -3   8   19.89    3.84
  -8  -3   8   18.05    4.12
  -8  -3   7    2.58    1.41
  -8  -3   7    1.40    1.89
  -8  -3   7    2.69    1.44
  -8  -3   7    5.12    2.28
  -8  -3   7    3.33    2.18
  -8  -3   6   -1.42    2.49
  -8  -3   6   -0.23    1.41
  -8  -3   6    0.54    1.47
  -8  -3   6   -1.37    2.31
  -8  -3   6    0.40    1.24
  -8  -3   6    0.26    1.34
  -8  -3   5   49.43    5.34
  -8  -3   5   54.08    6.08
  -8  -3   5   51.91    4.74
  -8  -3   5   45.89    6.67
  -8  -3   5   49.71    6.49
  -8  -3   5   54.77    8.01
  -8  -3   4    1.73    1.90
  -8  -3   4    1.72    1.28
  -8  -3   4    1.67    1.56
  -8  -3   4    1.34    1.91
  -8  -3   4    1.06    1.11
  -8  -3   3   43.14    5.09
  -8  -3   3   55.61    6.18
  -8  -3   3   40.14    5.60
  -8  -3   3   49.07    7.95
  -8  -3   3   44.86    5.01
  -8  -3   2    1.73    2.77
  -8  -3   2    3.34    1.85
  -8  -3   2    1.37    1.36
  -8  -3   2    3.03    1.75
  -8  -3   2    3.93    2.04
  -8  -3   1    4.96    2.91
  -8  -3   1    3.35    2.01
  -8  -3   1    3.58    2.25
  -8  -3   1    2.30    1.27
  -8  -3   0   10.08    3.67
  -8  -3   0   12.55    3.08
  -8  -3   0   18.02    3.87
  -8  -3   0   10.19    2.55
  -8  -3  -1   15.28    4.35
  -8  -3  -1   15.77    3.26
   8  -3   1   13.27    2.75
  -8  -3  -1   15.04    3.12
  -8  -3  -1   16.31    3.60
  -8  -3  -1   15.95    2.86
  -8  -3  -2    5.98    2.50
  -8  -3  -2    6.11    2.40
   8  -3   2    6.89    1.99
  -8  -3  -2    5.41    1.99
  -8  -3  -2    5.27    1.92
  -8  -3  -2    4.46    1.48
  -8  -3  -3    9.46    3.12
  -8  -3  -3   13.75    2.70
   8  -3   3   10.79    2.23
  -8  -3  -3   12.33    2.52
  -8  -3  -3   11.48    2.74
  -8  -3  -4    2.40    1.59
   8  -3   4    1.98    0.96
  -8  -3  -4    1.38    0.74
  -8  -3  -4    2.01    1.21
  -8  -2  11    3.59    1.29
  -8  -2  11    4.53    1.37
  -8  -2  11    3.57    1.09
  -8  -2  11    3.54    1.58
  -8  -2  10   10.47    2.12
  -8  -2  10    8.81    2.43
  -8  -2  10   14.38    2.29
  -8  -2  10   12.27    2.26
  -8  -2  10   11.28    3.04
  -8  -2   9   14.76    2.94
  -8  -2   9   13.60    3.15
  -8  -2   9   18.73    2.90
  -8  -2   9   13.89    3.13
  -8  -2   9   17.15    4.01
  -8  -2   8    3.77    1.83
  -8  -2   8    3.71    2.42
  -8  -2   8    4.16    1.41
  -8  -2   8    2.47    1.59
  -8  -2   8    5.03    2.48
  -8  -2   7   17.11    4.14
  -8  -2   7   20.85    3.61
  -8  -2   7   20.11    3.25
  -8  -2   7   17.34    3.98
  -8  -2   7   23.72    4.35
  -8  -2   6   15.08    4.36
  -8  -2   6   12.12    2.66
  -8  -2   6   10.39    2.64
  -8  -2   6   10.37    3.21
  -8  -2   6   13.52    2.44
  -8  -2   6   13.26    3.46
  -8  -2   5    9.18    3.54
  -8  -2   5    7.36    2.11
  -8  -2   5   13.76    3.12
  -8  -2   5    9.88    3.07
  -8  -2   5    9.89    2.22
  -8  -2   5    9.31    3.34
  -8  -2   4   32.76    6.60
  -8  -2   4   24.47    3.91
  -8  -2   4   27.45    4.41
  -8  -2   4   31.22    5.84
  -8  -2   3   29.95    6.42
  -8  -2   3   22.83    3.68
  -8  -2   3   33.67    4.94
  -8  -2   3   24.06    4.35
  -8  -2   2   17.55    5.17
  -8  -2   2   17.78    3.17
  -8  -2   2   20.48    3.90
  -8  -2   2   13.52    3.45
  -8  -2   2   17.67    3.31
  -8  -2   1   10.45    4.06
  -8  -2   1   12.57    3.11
  -8  -2   1   11.25    3.22
  -8  -2   1    7.12    2.43
  -8  -2   0    2.94    2.79
  -8  -2   0    1.36    1.74
   8  -2   0    2.44    1.58
  -8  -2   0    6.09    2.22
  -8  -2   0    4.13    1.97
  -8  -2   0    1.45    1.56
  -8  -2  -1   21.15    5.52
  -8  -2  -1   26.36    4.40
   8  -2   1   24.87    3.95
  -8  -2  -1   25.77    4.06
  -8  -2  -1   26.82    4.47
  -8  -2  -1   17.62    2.96
  -8  -2  -2    3.61    2.94
  -8  -2  -2    4.40    2.60
   8  -2   2    4.86    1.80
  -8  -2  -2    5.31    1.91
  -8  -2  -2    3.41    1.84
  -8  -2  -3    4.52    2.65
  -8  -2  -3    0.94    1.40
   8  -2   3    2.21    1.32
  -8  -2  -3   -0.19    0.89
  -8  -2  -3    1.00    1.43
  -8  -2  -4   18.28    4.04
  -8  -2  -4   15.89    2.53
   8  -2   4   15.99    2.46
  -8  -2  -4   10.57    1.78
  -8  -2  -4   16.33    2.81
  -8  -1  11    1.76    0.79
  -8  -1  11    1.96    1.05
  -8  -1  11    2.32    1.47
  -8  -1  10   16.57    2.89
  -8  -1  10   24.15    3.10
  -8  -1  10   11.66    2.65
  -8  -1  10   21.63    3.03
  -8  -1  10   17.10    3.61
  -8  -1   9   -0.03    0.97
  -8  -1   9    1.92    1.51
  -8  -1   9    1.55    1.12
  -8  -1   9   -1.54    1.42
  -8  -1   9   -0.50    1.54
  -8  -1   8   12.73    2.82
  -8  -1   8    9.89    2.89
  -8  -1   8   12.26    2.49
  -8  -1   8   11.91    3.00
  -8  -1   8   15.36    4.17
  -8  -1   7   47.68    5.54
  -8  -1   7   50.72    4.89
  -8  -1   7   44.37    6.13
  -8  -1   7   55.58    6.61
  -8  -1   7   44.40    7.04
  -8  -1   6   73.61    7.08
  -8  -1   6   60.72    7.45
  -8  -1   6   70.36    7.54
  -8  -1   6   76.13    9.39
  -8  -1   5   39.64    4.77
  -8  -1   5   41.29    5.30
  -8  -1   5   41.46    6.46
  -8  -1   5   40.79    6.01
  -8  -1   5   41.41    7.16
  -8  -1   4   28.42    6.11
  -8  -1   4   19.70    3.37
  -8  -1   4   25.24    4.28
  -8  -1   4   19.10    4.34
  -8  -1   3   85.23    7.69
  -8  -1   3   74.41    7.39
  -8  -1   3   83.92   10.67
  -8  -1   2   54.00    6.20
  -8  -1   2   51.89    6.32
  -8  -1   2   60.37    9.32
  -8  -1   1   37.89    7.48
   8  -1  -1   37.85    5.21
  -8  -1   1   39.22    5.35
  -8  -1   1   35.02    5.21
   8  -1   0   49.33    5.72
  -8  -1   0   57.70    6.23
  -8  -1   0   53.95    6.63
  -8  -1   0   70.07   10.05
  -8  -1   0   50.72    5.08
  -8  -1  -1    5.67    3.13
  -8  -1  -1    8.25    2.85
   8  -1   1    8.04    2.42
  -8  -1  -1    6.07    2.06
  -8  -1  -1    7.50    2.82
  -8  -1  -2   27.25    6.03
  -8  -1  -2   27.43    4.20
   8  -1   2   24.19    3.86
  -8  -1  -2   22.57    3.43
  -8  -1  -2   28.41    4.42
  -8  -1  -3    4.59    2.51
  -8  -1  -3    4.48    2.00
   8  -1   3    8.17    2.05
  -8  -1  -3    5.42    1.63
  -8  -1  -3    3.89    1.79
  -8  -1  -4    5.74    2.60
   8  -1   4    4.36    1.44
   8  -1   4    4.52    1.39
  -8  -1  -4    4.30    1.66
  -8   0  11   11.46    1.79
  -8   0  11    0.30    0.71
  -8   0  10    0.19    0.94
  -8   0  10    1.98    1.12
  -8   0  10    2.19    1.44
  -8   0   9    0.93    1.36
  -8   0   9    0.32    0.96
  -8   0   9    3.66    1.45
  -8   0   9    1.34    1.27
  -8   0   8   20.28    3.48
  -8   0   8   20.71    3.12
  -8   0   8   18.66    4.24
  -8   0   7    6.93    2.31
  -8   0   7    8.81    3.07
  -8   0   7    6.64    2.49
  -8   0   6    1.38    1.40
  -8   0   6    2.09    1.69
  -8   0   6   -0.29    1.70
  -8   0   5   10.11    2.88
  -8   0   5    3.74    2.06
  -8   0   5    4.90    2.25
  -8   0   4   19.17    4.86
  -8   0   4   22.40    4.04
  -8   0   4   12.94    3.56
  -8   0   3    7.58    3.43
  -8   0   3    3.28    1.84
   8   0  -2   -0.56    1.09
  -8   0   2    0.88    1.18
  -8   0   2    1.07    1.77
  -8   0   1    6.39    3.38
   8   0  -1   12.21    3.04
  -8   0   1   10.72    2.96
  -8   0   1    9.74    2.89
   8   0   0    3.37    1.95
  -8   0   0    3.44    1.71
  -8   0   0    2.69    2.18
  -8   0  -1    2.16    2.39
   8   0   1    1.67    1.43
  -8   0  -1    0.67    1.33
  -8   0  -1    1.50    1.40
  -8   0  -2    5.19    2.44
   8   0   2    4.66    1.81
  -8   0  -2    2.24    1.33
  -8   0  -3    1.47    1.73
   8   0   3   -0.32    0.94
   8   0   3   -0.97    0.92
   8   0   3   -0.82    0.76
  -8   0  -3   -0.54    1.15
  -8   0  -4    1.39    1.60
   8   0   4    0.03    0.83
   8   0   4    1.50    1.00
   8   0   4    0.56    0.60
   8   0   5    7.56    1.52
  -8   1  11    1.12    0.81
  -8   1  11    2.07    1.12
  -8   1  10   21.09    3.39
  -8   1  10   20.79    2.76
  -8   1  10   24.00    3.32
  -8   1   9    1.32    1.28
  -8   1   9    2.43    1.41
  -8   1   8    9.59    2.63
  -8   1   8    9.10    3.22
  -8   1   8   16.48    3.15
  -8   1   7   45.59    5.54
  -8   1   7   40.52    6.05
  -8   1   6   58.13    6.36
  -8   1   6   52.80    7.11
  -8   1   5   52.18    6.03
  -8   1   5   45.02    6.65
  -8   1   4   27.33    4.42
  -8   1   4   23.89    4.91
   8   1  -3   87.25    7.92
  -8   1   3   86.96    7.92
  -8   1   3   63.16    7.82
   8   1  -2   55.90    6.33
  -8   1   2   55.54    6.27
  -8   1   2   36.77    6.25
   8   1  -1   42.19    5.39
  -8   1   1   35.88    5.04
  -8   1   1   42.78    7.36
  -8   1   1   30.54    5.51
   8   1   0   53.12    5.97
  -8   1   0   54.46    8.17
  -8   1  -1    8.06    3.20
   8   1   1    2.52    1.32
   8   1   1    5.40    2.00
  -8   1  -2   25.25    5.29
   8   1   2   28.60    3.98
   8   1   2   30.41    4.08
  -8   1  -3    3.57    1.88
   8   1   3    5.14    1.69
   8   1   3    5.24    1.70
   8   1   3    4.28    1.53
   8   1   3    4.03    1.45
  -8   1  -4    4.48    1.91
   8   1   4    5.26    1.51
   8   1   4    5.87    1.71
   8   1   4    5.83    1.57
   8   1   4    2.71    0.94
  -8   2  11    3.23    1.19
  -8   2  10   12.03    2.48
  -8   2  10   14.20    2.53
  -8   2   9   18.64    3.39
  -8   2   9   27.28    3.89
  -8   2   8    1.24    1.10
  -8   2   8    2.94    1.73
  -8   2   8    2.90    1.97
  -8   2   7   23.11    3.99
  -8   2   7   31.93    4.44
  -8   2   7   19.31    4.33
  -8   2   6    7.56    2.40
  -8   2   6    9.53    2.75
  -8   2   6    8.95    2.95
  -8   2   5   10.36    2.97
  -8   2   5   12.95    3.00
  -8   2   5   10.98    3.35
  -8   2   4   29.91    4.72
  -8   2   4   26.48    5.04
   8   2  -3   29.11    4.65
  -8   2   3   26.75    4.30
  -8   2   3   20.84    4.73
   8   2  -2   10.72    2.76
  -8   2   2   13.18    3.00
  -8   2   2   10.97    3.16
   8   2  -1    9.52    2.54
  -8   2   1    4.69    2.41
   8   2   0    5.58    2.19
  -8   2   0    4.21    2.79
   8   2   1   21.11    3.60
  -8   2  -1   10.63    3.61
   8   2   2    3.81    1.43
   8   2   2    4.74    1.58
   8   2   2    3.16    1.49
  -8   2  -2    1.25    1.30
   8   2   3    2.56    1.39
   8   2   3    2.63    1.02
   8   2   3    1.39    0.91
  -8   2  -3    0.95    1.16
   8   2   4   17.76    2.57
   8   2   4   14.96    2.25
   8   2   4   14.13    2.23
  -8   3  11    3.82    1.15
  -8   3  10   15.32    2.50
  -8   3   9    1.15    1.13
  -8   3   9    0.72    1.21
  -8   3   8   19.01    3.50
  -8   3   8   20.47    3.43
  -8   3   8   15.97    3.79
  -8   3   7    3.94    2.05
  -8   3   7    2.21    1.39
  -8   3   7    3.96    2.32
  -8   3   6   -0.24    1.13
  -8   3   6    2.69    1.42
  -8   3   6    1.26    1.59
  -8   3   5   51.18    6.09
  -8   3   5   43.20    6.23
  -8   3   4    3.19    2.11
  -8   3   4    3.05    2.25
  -8   3   3   39.22    6.07
   8   3  -2    2.85    1.91
  -8   3   2    5.95    2.79
   8   3  -1    3.64    2.09
  -8   3   1    1.17    1.41
   8   3   0   12.23    2.95
  -8   3   0   15.56    3.89
   8   3   1   12.08    2.82
   8   3   1   13.57    2.83
  -8   3  -1    8.45    2.92
   8   3   2    2.97    1.52
   8   3   2    4.50    1.67
  -8   3  -2    2.88    1.77
   8   3   3    9.55    2.01
   8   3   3    9.81    2.00
   8   3   4    1.42    0.74
  -8   4  10    5.64    1.45
  -8   4   9   42.93    4.34
  -8   4   8    6.50    2.03
  -8   4   8    4.75    1.88
  -8   4   7   31.23    4.48
  -8   4   7   38.23    5.44
  -8   4   6   47.60    5.43
  -8   4   6   51.14    6.54
  -8   4   6   63.12    5.94
  -8   4   5    1.57    1.49
  -8   4   4   70.35    7.48
  -8   4   3    6.90    2.61
  -8   4   2   37.53    5.73
  -8   4   1   31.50    5.08
  -8   4   0    3.38    1.96
  -8   4  -1   17.53    3.61
  -8   4  -2    6.24    2.21
  -8   4  -3    8.98    2.17
  -8   5   9   12.80    2.07
  -8   5   8    2.79    1.41
  -8   5   7    4.87    1.68
  -8   5   7    1.52    1.68
  -8   5   6    2.36    1.87
  -8   5   5    8.42    2.72
  -8   5   4   -1.19    1.87
  -8   5   3    8.58    2.81
  -8   5   2    4.31    2.02
  -8   5   1   11.82    3.06
  -8   5   0    0.84    1.43
  -8   5  -1    6.40    2.31
  -8   5  -2    2.16    1.27
  -8   6   7    3.60    1.48
  -8   6   6    2.06    1.28
  -8   6   5    0.90    1.01
  -8   6   4    8.54    2.36
  -8   6   3    4.49    1.78
  -8   6   2   15.13    3.31
  -8   6   1    7.95    2.37
  -8   6   0    2.61    1.38
  -8   6  -1    6.83    1.96
   8   7  -6   10.81    1.63
   8   7  -5    3.52    1.10
  -8   7   4    0.21    0.77
  -8   7   3    0.67    0.77
   8   7  -2   -0.16    0.46
  -8   7   2    0.87    0.91
  -9  -5   7    1.85    1.16
  -9  -5   7    2.26    1.20
  -9  -5   6    3.10    1.57
  -9  -5   6    2.74    0.90
  -9  -5   6    3.90    1.41
  -9  -5   6    3.43    1.77
  -9  -5   5    8.25    1.74
  -9  -5   5   12.49    2.81
  -9  -5   5    9.66    1.50
  -9  -5   5    7.41    2.06
  -9  -5   5   11.12    2.69
  -9  -5   4    1.97    1.59
  -9  -5   4    2.57    1.08
  -9  -5   4    1.80    0.75
  -9  -5   4    1.54    1.24
  -9  -5   4    0.16    0.93
  -9  -5   3   -0.22    1.36
  -9  -5   3    2.10    0.98
  -9  -5   3    1.77    1.19
  -9  -5   3    2.65    1.32
  -9  -5   3   -0.78    1.16
  -9  -5   2    4.43    1.64
  -9  -5   2    2.99    1.02
  -9  -5   2    5.49    1.51
  -9  -5   2    5.06    2.02
  -9  -5   2    3.03    1.42
  -9  -5   1    2.19    0.97
  -9  -5   1    1.67    1.25
  -9  -5   1    1.44    1.00
  -9  -4   8    2.96    1.24
  -9  -4   8    3.63    0.95
  -9  -4   8    2.84    1.14
  -9  -4   8    3.04    1.50
  -9  -4   7    2.59    1.17
  -9  -4   7    6.34    1.99
  -9  -4   7    4.71    1.20
  -9  -4   7    6.21    1.98
  -9  -4   7    7.32    2.34
  -9  -4   6    2.32    1.06
  -9  -4   6    0.71    0.99
  -9  -4   6    1.34    0.81
  -9  -4   6    1.27    1.23
  -9  -4   6    4.33    2.19
  -9  -4   5   18.00    3.85
  -9  -4   5    9.63    2.13
  -9  -4   5   13.25    2.47
  -9  -4   5   12.06    3.06
  -9  -4   5    9.15    1.64
  -9  -4   5   10.66    2.73
  -9  -4   4    7.07    2.54
  -9  -4   4    6.29    1.68
  -9  -4   4    6.38    1.90
  -9  -4   4    5.75    2.36
  -9  -4   4    5.88    2.09
  -9  -4   3    0.41    1.47
  -9  -4   3    0.86    0.87
  -9  -4   3    1.82    1.15
  -9  -4   3   -1.11    1.78
  -9  -4   3   -0.15    1.18
  -9  -4   2   23.55    4.37
  -9  -4   2   17.74    2.50
  -9  -4   2   28.84    3.76
  -9  -4   2   17.35    3.66
  -9  -4   1    0.71    1.25
  -9  -4   1    0.07    0.83
  -9  -4   1    0.00    0.92
  -9  -4   1    0.47    1.17
  -9  -4   0    2.34    1.56
  -9  -4   0    5.51    1.58
  -9  -4   0    1.21    1.10
  -9  -3   9   -0.28    0.69
  -9  -3   9   -0.27    0.67
  -9  -3   9    0.71    0.75
  -9  -3   9    0.83    0.98
  -9  -3   8    5.34    1.58
  -9  -3   8    3.58    1.49
  -9  -3   8    6.14    1.74
  -9  -3   8    4.14    1.60
  -9  -3   8    4.41    1.78
  -9  -3   7    7.38    1.92
  -9  -3   7    6.98    2.30
  -9  -3   7    7.45    1.57
  -9  -3   7    7.32    2.12
  -9  -3   7    5.91    2.12
  -9  -3   6   15.44    3.69
  -9  -3   6   14.90    2.90
  -9  -3   6   14.60    3.22
  -9  -3   6   13.68    3.07
  -9  -3   5    1.50    1.71
  -9  -3   5    1.91    1.29
  -9  -3   5    1.58    1.27
  -9  -3   5    1.28    1.42
  -9  -3   5   -0.27    1.11
  -9  -3   4    2.61    1.91
  -9  -3   4    3.91    1.63
  -9  -3   4    5.65    2.09
  -9  -3   4    0.68    1.24
  -9  -3   4    3.30    2.05
  -9  -3   3   16.51    4.09
  -9  -3   3   11.09    2.29
  -9  -3   3   20.62    3.54
  -9  -3   3   11.01    3.09
  -9  -3   2    1.79    1.77
  -9  -3   2    4.37    1.92
  -9  -3   2    4.27    2.21
  -9  -3   1   -1.10    1.39
  -9  -3   1    1.66    1.32
  -9  -3   0    9.79    3.11
  -9  -3   0   10.05    2.19
  -9  -3   0    9.21    2.26
  -9  -3  -1    2.45    1.68
  -9  -3  -1    1.88    0.95
  -9  -3  -1    1.58    1.09
  -9  -2  10    8.57    1.54
  -9  -2   9   18.73    2.75
  -9  -2   9   17.65    2.21
  -9  -2   9   10.98    2.25
  -9  -2   9   22.84    2.83
  -9  -2   9   16.29    3.14
  -9  -2   8    0.89    0.82
  -9  -2   8    0.93    1.06
  -9  -2   8    0.55    1.01
  -9  -2   8    2.61    1.33
  -9  -2   8    1.27    1.39
  -9  -2   7   10.58    2.43
  -9  -2   7    7.37    2.32
  -9  -2   7    8.16    2.20
  -9  -2   7   14.24    3.55
  -9  -2   6    6.74    2.77
  -9  -2   6    7.63    2.13
  -9  -2   6    5.53    2.28
  -9  -2   6    7.16    2.43
  -9  -2   5    8.27    2.98
  -9  -2   5    7.01    2.12
  -9  -2   5    6.91    2.30
  -9  -2   5    4.14    1.97
  -9  -2   4   12.58    3.90
  -9  -2   4    8.17    1.82
  -9  -2   4   10.99    2.58
  -9  -2   4    9.02    2.80
  -9  -2   4    6.79    2.41
  -9  -2   3   15.36    4.27
  -9  -2   3   12.20    2.89
  -9  -2   3    8.79    2.69
  -9  -2   2    0.55    1.44
  -9  -2   2    1.55    1.13
  -9  -2   2    2.41    1.20
  -9  -2   1   25.20    5.14
  -9  -2   1   21.88    3.42
  -9  -2   1   23.65    3.70
  -9  -2   0   -1.75    1.59
  -9  -2   0    0.17    0.99
  -9  -2   0    1.31    0.94
  -9  -2  -1    1.07    1.43
   9  -2   1    2.47    1.18
  -9  -2  -1    2.40    1.07
  -9  -2  -1    1.52    1.04
  -9  -2  -2    6.89    2.10
  -9  -2  -2    6.48    1.45
  -9  -1  10    9.23    1.67
  -9  -1   9    0.02    0.85
  -9  -1   9   -0.74    0.97
  -9  -1   9    0.42    0.77
  -9  -1   8   17.06    2.89
  -9  -1   8   21.76    3.12
  -9  -1   8   16.05    3.37
  -9  -1   7    1.42    0.99
  -9  -1   7   -0.55    1.08
  -9  -1   6   10.27    3.12
  -9  -1   6    9.53    2.47
  -9  -1   6   11.34    2.79
  -9  -1   5   24.88    4.88
  -9  -1   5   25.83    3.90
  -9  -1   5   17.15    3.53
  -9  -1   4    4.52    2.33
  -9  -1   4    5.39    1.97
  -9  -1   4    3.42    1.68
  -9  -1   3   53.81    5.65
  -9  -1   3   63.33    8.14
  -9  -1   2   37.25    4.62
  -9  -1   2   35.25    6.18
  -9  -1   1   31.95    5.75
  -9  -1   1   29.06    3.95
  -9  -1   0    3.63    2.46
   9  -1   0    3.13    1.30
  -9  -1   0    0.78    1.04
  -9  -1   0    2.37    1.25
  -9  -1  -1    1.69    1.76
   9  -1   1    1.31    1.06
  -9  -1  -1    1.46    0.99
  -9  -1  -1   -0.23    1.08
  -9  -1  -2    9.49    2.68
   9  -1   2   13.55    2.18
  -9   0  10   -0.26    0.68
  -9   0  10    0.60    0.70
  -9   0   9    0.57    1.01
  -9   0   9    1.23    0.98
  -9   0   8    4.74    1.56
  -9   0   8    8.94    2.05
  -9   0   7   -0.56    1.07
  -9   0   7    0.62    1.26
  -9   0   6    8.45    2.54
  -9   0   6   11.82    2.50
  -9   0   6    4.08    1.89
  -9   0   6   10.82    3.02
  -9   0   5    3.17    1.92
  -9   0   5    3.85    1.78
  -9   0   5    2.31    1.24
  -9   0   4    3.74    2.09
  -9   0   4    4.31    1.71
  -9   0   3    0.65    1.64
  -9   0   3    0.91    1.35
  -9   0   2    3.49    2.45
  -9   0   2    0.76    1.15
  -9   0   1   11.78    3.50
   9   0  -1    6.43    2.04
  -9   0   1    5.37    1.88
  -9   0   0    3.62    1.89
   9   0   0    2.85    1.24
  -9   0   0    2.98    1.27
  -9   0  -1    0.05    1.09
   9   0   1    0.88    0.92
  -9   0  -2    1.22    1.16
   9   0   2    2.88    1.31
  -9   1  10   10.06    1.85
  -9   1  10    9.56    1.69
  -9   1   9    1.62    1.08
  -9   1   9    0.65    1.03
  -9   1   8   15.43    2.80
  -9   1   8   20.47    3.03
  -9   1   7   -0.06    0.94
  -9   1   7    0.98    0.90
  -9   1   7    0.03    1.37
  -9   1   6    7.91    2.36
  -9   1   6   10.43    2.27
  -9   1   6    6.95    2.62
  -9   1   5   23.21    3.71
  -9   1   5   12.38    3.35
  -9   1   4    3.16    1.51
  -9   1   4    2.57    1.75
  -9   1   3   42.00    4.88
  -9   1   3   22.75    4.36
   9   1  -2   33.96    4.34
  -9   1   2   28.73    3.86
   9   1  -1   31.72    4.12
   9   1   0    3.01    1.32
   9   1   1   -0.74    0.74
   9   1   2   12.14    2.06
  -9   2  10    9.39    1.55
  -9   2   9   16.91    2.59
  -9   2   9   25.43    2.92
  -9   2   8    1.28    1.20
  -9   2   8    2.05    1.20
  -9   2   7    8.78    2.16
  -9   2   7   11.29    2.32
  -9   2   7    6.27    2.26
  -9   2   6    5.94    1.74
  -9   2   6    7.79    2.05
  -9   2   6   10.29    3.06
  -9   2   5    7.42    2.14
  -9   2   5    8.40    2.64
  -9   2   4    5.38    1.82
  -9   2   4    7.36    2.64
  -9   2   3    9.72    2.45
  -9   2   3    6.78    2.80
  -9   2   2    4.99    1.97
  -9   2   1    6.46    2.43
   9   2   0    1.88    1.32
  -9   2   0    0.07    0.89
   9   2   1    2.59    1.22
   9   2   2    7.89    1.62
  -9   3   9    0.18    0.61
  -9   3   8    3.22    1.15
  -9   3   8    5.91    1.58
  -9   3   7    6.46    1.71
  -9   3   7    7.30    1.65
  -9   3   7    9.99    2.79
  -9   3   6   11.17    2.37
  -9   3   6   12.02    3.02
  -9   3   5   -0.62    1.46
  -9   3   4    3.01    1.78
  -9   3   3   10.19    3.06
  -9   3   2    2.08    1.35
  -9   3   1   -0.56    1.31
  -9   3   0    2.53    1.12
  -9   3  -1   -0.10    0.73
  -9   4   7    4.13    1.79
  -9   4   6    3.83    1.80
  -9   4   5    6.92    2.23
  -9   4   4    6.40    2.36
  -9   4   3    1.48    1.30
  -9   4   2   14.58    3.18
  -9   4   1   -0.97    0.91
  -9   4   0    1.80    1.19
  -9   5   6    0.23    0.76
  -9   5   5    6.90    2.05
  -9   5   4    3.49    1.60
  -9   5   3    2.39    1.45
  -9   5   2    4.03    1.75
  -9   5   1    0.08    0.68
 -10  -2   6   11.87    2.03
 -10  -2   5   12.71    2.11
 -10  -2   5   14.51    2.78
 -10  -2   4   -0.13    0.85
 -10  -2   4    0.06    0.77
 -10  -2   3    5.72    1.95
 -10  -2   3    6.01    1.53
 -10  -1   7   -0.60    0.85
 -10  -1   6    8.73    1.83
 -10  -1   5    4.87    1.48
 -10  -1   5    5.57    1.81
 -10  -1   4    0.54    0.68
 -10  -1   4   -0.92    0.91
 -10  -1   3   26.80    3.06
 -10  -1   3   20.31    3.26
 -10  -1   2    2.59    0.97
 -10   0   7    7.20    1.62
 -10   0   6    0.50    1.03
 -10   0   5    7.50    1.71
 -10   0   4    7.18    1.71
 -10   0   3    4.88    1.34
 -10   1   7   -0.52    0.69
 -10   1   6    7.70    1.61
 -10   1   5    3.99    1.19
 -10   1   4    0.68    0.63

TITL Lliubo-slq-7043 in P2(1)
REM P2(1) (#4 in standard setting)
CELL 1.54184   8.332689   9.549162  11.450062  90.0000 108.1333  90.0000
ZERR    4.00   0.000746   0.000850   0.000967   0.0000   0.0089   0.0000
LATT -1
SYMM -x, y+1/2,-z
SFAC C H N O
UNIT 44.00 40.00 4.00 4.00
TREF
HKLF 4
END
_computing_structure_solution     'SHELXT 2014/4 (Sheldrick, 2014)'
;
_shelx_hkl_checksum              98541
_shelx_shelxl_version_number     2014/7
_olex2_date_sample_data_collection 2015-11-09
_olex2_submission_special_instructions 'No special instructions were received'
loop_
_space_group_symop_operation_xyz
'x, y, z'
'-x, y+1/2, -z'
loop_
_atom_site_label
_atom_site_type_symbol
_atom_site_fract_x
_atom_site_fract_y
_atom_site_fract_z
_atom_site_U_iso_or_equiv
_atom_site_adp_type
_atom_site_occupancy
_atom_site_site_symmetry_order
_atom_site_calc_flag
_atom_site_refinement_flags_posn
Br01 Br 0.96783(14) 0.79595(10) 0.79984(9) 0.0772(3) Uani 1 1 d .
Br02 Br 0.89931(15) 0.20411(11) 0.80425(10) 0.0823(4) Uani 1 1 d .
O003 O 0.4842(7) 0.6867(6) 0.5136(5) 0.0545(11) Uani 1 1 d .
O004 O 0.9369(6) 0.5099(7) 0.9053(4) 0.0588(13) Uani 1 1 d .
O005 O 0.4312(8) 0.4435(8) 0.1679(5) 0.0677(16) Uani 1 1 d .
N006 N 0.5047(7) 0.4897(6) 0.4089(4) 0.0419(11) Uani 1 1 d .
H006 H 0.4752 0.4035 0.3946 0.050 Uiso 1 1 calc R
O007 O 0.5897(11) 0.6201(10) 0.1423(6) 0.091(2) Uani 1 1 d .
C008 C 0.4493(7) 0.5637(8) 0.4893(5) 0.0403(13) Uani 1 1 d .
C009 C 0.8998(7) 0.6196(9) 0.5917(6) 0.0495(16) Uani 1 1 d .
H009 H 0.9052 0.7023 0.5501 0.059 Uiso 1 1 calc R
C00A C 0.8671(8) 0.3709(9) 0.5929(7) 0.0509(16) Uani 1 1 d .
H00A H 0.8484 0.2855 0.5518 0.061 Uiso 1 1 calc R
C00B C 0.6135(8) 0.5536(9) 0.3463(6) 0.0483(15) Uani 1 1 d .
H00B H 0.6231 0.6532 0.3679 0.058 Uiso 1 1 calc R
C00C C 0.7945(9) 0.4912(10) 0.3900(6) 0.0548(17) Uani 1 1 d .
H00C H 0.7922 0.3958 0.3606 0.066 Uiso 1 1 calc R
H00D H 0.8680 0.5456 0.3563 0.066 Uiso 1 1 calc R
C00D C 0.3473(8) 0.5295(10) 0.6751(6) 0.0538(18) Uani 1 1 d .
H00E H 0.3457 0.6310 0.6781 0.065 Uiso 1 1 calc R
H00F H 0.2505 0.4953 0.6965 0.065 Uiso 1 1 calc R
C00E C 0.3313(8) 0.4828(8) 0.5429(6) 0.0448(14) Uani 1 1 d .
H00G H 0.3567 0.3837 0.5431 0.054 Uiso 1 1 calc R
H00H H 0.2157 0.4964 0.4910 0.054 Uiso 1 1 calc R
C00F C 0.5056(9) 0.4772(10) 0.7678(6) 0.0539(18) Uani 1 1 d .
H00I H 0.5170 0.3806 0.7771 0.065 Uiso 1 1 calc R
C00G C 0.8621(8) 0.4931(9) 0.5286(6) 0.0481(15) Uani 1 1 d .
C00H C 0.9000(7) 0.3751(9) 0.7194(7) 0.0513(16) Uani 1 1 d .
C00I C 0.6295(9) 0.5533(10) 0.8371(7) 0.0561(17) Uani 1 1 d .
H00J H 0.6239 0.6499 0.8262 0.067 Uiso 1 1 calc R
C00J C 0.9218(8) 0.5005(11) 0.7843(6) 0.0508(16) Uani 1 1 d .
C00K C 0.9288(7) 0.6199(9) 0.7170(6) 0.0491(15) Uani 1 1 d .
C00L C 0.5428(8) 0.5442(10) 0.2069(6) 0.0518(17) Uani 1 1 d .
C00M C 0.7791(10) 0.4938(12) 0.9325(6) 0.062(2) Uani 1 1 d .
H00K H 0.7898 0.5390 1.0104 0.075 Uiso 1 1 calc R
H00L H 0.7596 0.3949 0.9418 0.075 Uiso 1 1 calc R
C00N C 0.3592(14) 0.4289(16) 0.0353(8) 0.089(4) Uani 1 1 d .
H00M H 0.3301 0.5197 -0.0012 0.134 Uiso 1 1 calc GR
H00N H 0.2597 0.3717 0.0167 0.134 Uiso 1 1 calc GR
H00O H 0.4404 0.3857 0.0029 0.134 Uiso 1 1 calc GR
loop_
_atom_site_aniso_label
_atom_site_aniso_U_11
_atom_site_aniso_U_22
_atom_site_aniso_U_33
_atom_site_aniso_U_23
_atom_site_aniso_U_13
_atom_site_aniso_U_12
Br01 0.0995(7) 0.0640(7) 0.0723(5) -0.0206(4) 0.0329(4) -0.0246(5)
Br02 0.1014(7) 0.0581(7) 0.0854(6) 0.0188(5) 0.0260(5) 0.0134(5)
O003 0.066(3) 0.038(3) 0.068(3) -0.006(2) 0.031(2) -0.002(2)
O004 0.048(2) 0.076(4) 0.044(2) -0.003(2) 0.0009(17) -0.005(2)
O005 0.079(3) 0.086(5) 0.036(2) -0.002(2) 0.015(2) -0.020(3)
N006 0.047(3) 0.037(3) 0.042(2) -0.003(2) 0.014(2) -0.003(2)
O007 0.119(5) 0.107(6) 0.054(3) 0.009(3) 0.036(3) -0.038(5)
C008 0.036(2) 0.047(4) 0.036(3) 0.003(2) 0.009(2) 0.006(2)
C009 0.038(3) 0.059(5) 0.051(3) 0.007(3) 0.013(2) 0.003(3)
C00A 0.043(3) 0.047(4) 0.060(4) -0.006(3) 0.012(2) 0.001(3)
C00B 0.054(3) 0.052(4) 0.042(3) -0.003(3) 0.020(2) -0.001(3)
C00C 0.049(3) 0.070(5) 0.051(3) -0.007(4) 0.023(3) -0.003(3)
C00D 0.047(3) 0.066(5) 0.052(4) 0.002(3) 0.020(3) 0.004(3)
C00E 0.041(3) 0.047(4) 0.046(3) -0.001(3) 0.012(2) -0.003(2)
C00F 0.051(3) 0.071(6) 0.043(3) 0.005(3) 0.019(3) -0.001(3)
C00G 0.038(3) 0.059(5) 0.049(3) -0.010(3) 0.017(2) -0.002(3)
C00H 0.039(3) 0.055(5) 0.059(4) 0.007(3) 0.013(2) 0.004(3)
C00I 0.054(3) 0.065(5) 0.049(4) 0.003(3) 0.017(3) 0.000(3)
C00J 0.033(3) 0.069(5) 0.045(3) 0.000(3) 0.004(2) 0.004(3)
C00K 0.036(3) 0.057(4) 0.053(3) -0.012(3) 0.012(2) -0.008(3)
C00L 0.051(3) 0.065(6) 0.042(3) 0.000(3) 0.018(2) 0.000(3)
C00M 0.057(4) 0.087(6) 0.040(3) 0.004(4) 0.011(3) 0.003(4)
C00N 0.089(6) 0.132(11) 0.039(4) -0.008(5) 0.010(4) -0.031(7)
loop_
_atom_type_symbol
_atom_type_description
_atom_type_scat_dispersion_real
_atom_type_scat_dispersion_imag
_atom_type_scat_source
C C 0.0181 0.0091 'International Tables Vol C Tables 4.2.6.8 and 6.1.1.4'
H H 0.0000 0.0000 'International Tables Vol C Tables 4.2.6.8 and 6.1.1.4'
Br Br -0.6763 1.2805 'International Tables Vol C Tables 4.2.6.8 and 6.1.1.4'
N N 0.0311 0.0180 'International Tables Vol C Tables 4.2.6.8 and 6.1.1.4'
O O 0.0492 0.0322 'International Tables Vol C Tables 4.2.6.8 and 6.1.1.4'
loop_
_geom_angle_atom_site_label_1
_geom_angle_atom_site_label_2
_geom_angle_atom_site_label_3
_geom_angle
C00J O004 C00M 114.3(5)
C00L O005 C00N 116.3(7)
C008 N006 H006 119.5
C008 N006 C00B 121.0(6)
C00B N006 H006 119.5
O003 C008 N006 123.4(6)
O003 C008 C00E 122.3(6)
N006 C008 C00E 114.2(6)
C00G C009 H009 120.7
C00K C009 H009 120.7
C00K C009 C00G 118.7(7)
C00G C00A H00A 120.1
C00G C00A C00H 119.9(7)
C00H C00A H00A 120.1
N006 C00B H00B 107.3
N006 C00B C00C 111.9(6)
N006 C00B C00L 113.3(6)
C00C C00B H00B 107.3
C00L C00B H00B 107.3
C00L C00B C00C 109.6(5)
C00B C00C H00C 109.7
C00B C00C H00D 109.7
H00C C00C H00D 108.2
C00G C00C C00B 110.0(5)
C00G C00C H00C 109.7
C00G C00C H00D 109.7
H00E C00D H00F 107.8
C00E C00D H00E 109.0
C00E C00D H00F 109.0
C00F C00D H00E 109.0
C00F C00D H00F 109.0
C00F C00D C00E 112.8(6)
C008 C00E C00D 112.3(5)
C008 C00E H00G 109.1
C008 C00E H00H 109.1
C00D C00E H00G 109.1
C00D C00E H00H 109.1
H00G C00E H00H 107.9
C00D C00F H00I 116.6
C00I C00F C00D 126.8(9)
C00I C00F H00I 116.6
C009 C00G C00C 120.4(7)
C00A C00G C009 119.6(6)
C00A C00G C00C 119.5(7)
C00A C00H Br02 118.5(6)
C00A C00H C00J 122.2(7)
C00J C00H Br02 119.1(6)
C00F C00I H00J 118.2
C00F C00I C00M 123.7(9)
C00M C00I H00J 118.2
O004 C00J C00H 123.9(8)
O004 C00J C00K 120.5(8)
C00K C00J C00H 115.6(6)
C009 C00K Br01 117.8(7)
C009 C00K C00J 123.5(8)
C00J C00K Br01 118.5(5)
O005 C00L C00B 113.7(6)
O007 C00L O005 124.8(7)
O007 C00L C00B 121.5(8)
O004 C00M C00I 114.2(6)
O004 C00M H00K 108.7
O004 C00M H00L 108.7
C00I C00M H00K 108.7
C00I C00M H00L 108.7
H00K C00M H00L 107.6
O005 C00N H00M 109.5
O005 C00N H00N 109.5
O005 C00N H00O 109.5
H00M C00N H00N 109.5
H00M C00N H00O 109.5
H00N C00N H00O 109.5
loop_
_geom_bond_atom_site_label_1
_geom_bond_atom_site_label_2
_geom_bond_distance
Br01 C00K 1.908(8)
Br02 C00H 1.901(8)
O003 C008 1.221(9)
O004 C00J 1.354(9)
O004 C00M 1.451(10)
O005 C00L 1.315(10)
O005 C00N 1.456(10)
N006 H006 0.8600
N006 C008 1.351(8)
N006 C00B 1.454(9)
O007 C00L 1.186(11)
C008 C00E 1.522(9)
C009 H009 0.9300
C009 C00G 1.393(12)
C009 C00K 1.379(10)
C00A H00A 0.9300
C00A C00G 1.373(12)
C00A C00H 1.388(11)
C00B H00B 0.9800
C00B C00C 1.552(10)
C00B C00L 1.522(9)
C00C H00C 0.9700
C00C H00D 0.9700
C00C C00G 1.510(9)
C00D H00E 0.9700
C00D H00F 0.9700
C00D C00E 1.543(9)
C00D C00F 1.499(10)
C00E H00G 0.9700
C00E H00H 0.9700
C00F H00I 0.9300
C00F C00I 1.309(12)
C00H C00J 1.391(13)
C00I H00J 0.9300
C00I C00M 1.491(10)
C00J C00K 1.388(13)
C00M H00K 0.9700
C00M H00L 0.9700
C00N H00M 0.9600
C00N H00N 0.9600
C00N H00O 0.9600
loop_
_geom_torsion_atom_site_label_1
_geom_torsion_atom_site_label_2
_geom_torsion_atom_site_label_3
_geom_torsion_atom_site_label_4
_geom_torsion
Br02 C00H C00J O004 -2.5(9)
Br02 C00H C00J C00K 177.1(5)
O003 C008 C00E C00D -34.4(8)
O004 C00J C00K Br01 2.1(8)
O004 C00J C00K C009 -174.1(6)
N006 C008 C00E C00D 148.6(5)
N006 C00B C00C C00G -50.5(9)
N006 C00B C00L O005 -21.7(10)
N006 C00B C00L O007 159.8(9)
C008 N006 C00B C00C 111.6(7)
C008 N006 C00B C00L -123.9(7)
C00A C00H C00J O004 173.0(6)
C00A C00H C00J C00K -7.4(9)
C00B N006 C008 O003 0.8(9)
C00B N006 C008 C00E 177.8(5)
C00B C00C C00G C009 -68.3(9)
C00B C00C C00G C00A 103.7(8)
C00C C00B C00L O005 104.0(8)
C00C C00B C00L O007 -74.5(11)
C00D C00F C00I C00M 176.5(6)
C00E C00D C00F C00I 116.9(8)
C00F C00D C00E C008 -74.4(8)
C00F C00I C00M O004 113.1(9)
C00G C009 C00K Br01 -176.6(5)
C00G C009 C00K C00J -0.3(9)
C00G C00A C00H Br02 178.2(5)
C00G C00A C00H C00J 2.7(10)
C00H C00A C00G C009 3.7(9)
C00H C00A C00G C00C -168.5(6)
C00H C00J C00K Br01 -177.5(4)
C00H C00J C00K C009 6.3(9)
C00J O004 C00M C00I -34.8(11)
C00K C009 C00G C00A -4.8(9)
C00K C009 C00G C00C 167.3(6)
C00L C00B C00C C00G -177.0(7)
C00M O004 C00J C00H -76.1(9)
C00M O004 C00J C00K 104.4(9)
C00N O005 C00L O007 -1.4(14)
C00N O005 C00L C00B -179.8(8)
