#------------------------------------------------------------------------------
#$Date: 2019-11-23 10:53:17 +0200 (Sat, 23 Nov 2019) $
#$Revision: 232959 $
#$URL: file:///home/coder/svn-repositories/cod/cif/1/55/30/1553009.cif $
#------------------------------------------------------------------------------
#
# This file is available in the Crystallography Open Database (COD),
# http://www.crystallography.net/
#
# All data on this site have been placed in the public domain by the
# contributors.
#
data_1553009
loop_
_publ_author_name
'Tian, Bing'
'Liu, Qiang'
'Tong, Xiaofeng'
'Tian, Ping'
'Lin, Guo-Qiang'
_publ_section_title
;
 Copper(i)-catalyzed enantioselective hydroboration of cyclopropenes:
 facile synthesis of optically active cyclopropylboronates
;
_journal_issue                   9
_journal_name_full               'Org. Chem. Front.'
_journal_page_first              1116
_journal_paper_doi               10.1039/C4QO00157E
_journal_volume                  1
_journal_year                    2014
_chemical_formula_sum            'C22 H18 Br2 O4'
_chemical_formula_weight         506.18
_space_group_crystal_system      triclinic
_space_group_IT_number           2
_space_group_name_Hall           '-P 1'
_space_group_name_H-M_alt        'P -1'
_atom_sites_solution_hydrogens   geom
_audit_creation_method           SHELXL-2013
_cell_angle_alpha                91.341(3)
_cell_angle_beta                 92.608(3)
_cell_angle_gamma                105.719(3)
_cell_formula_units_Z            1
_cell_length_a                   5.9442(10)
_cell_length_b                   6.7813(11)
_cell_length_c                   13.014(2)
_cell_measurement_reflns_used    1516
_cell_measurement_temperature    293(2)
_cell_measurement_theta_max      56.389
_cell_measurement_theta_min      6.246
_cell_volume                     504.10(14)
_computing_cell_refinement       'Bruker SMART'
_computing_data_collection       'Bruker SMART'
_computing_data_reduction        'Bruker SHELXTL'
_computing_molecular_graphics    'Bruker SHELXTL'
_computing_publication_material  'Bruker SHELXTL'
_computing_structure_refinement  'SHELXL-2013 (Sheldrick, 2013)'
_computing_structure_solution    'Bruker SHELXTL'
_diffrn_ambient_temperature      293(2)
_diffrn_measured_fraction_theta_full 0.992
_diffrn_measured_fraction_theta_max 0.992
_diffrn_measurement_device_type  'CCD area detector'
_diffrn_measurement_method       'phi and omega scans'
_diffrn_radiation_type           MoK\a
_diffrn_radiation_wavelength     0.71073
_diffrn_reflns_av_R_equivalents  0.0313
_diffrn_reflns_av_unetI/netI     0.0558
_diffrn_reflns_Laue_measured_fraction_full 0.992
_diffrn_reflns_Laue_measured_fraction_max 0.992
_diffrn_reflns_limit_h_max       7
_diffrn_reflns_limit_h_min       -7
_diffrn_reflns_limit_k_max       8
_diffrn_reflns_limit_k_min       -6
_diffrn_reflns_limit_l_max       16
_diffrn_reflns_limit_l_min       -13
_diffrn_reflns_number            3040
_diffrn_reflns_point_group_measured_fraction_full 0.992
_diffrn_reflns_point_group_measured_fraction_max 0.992
_diffrn_reflns_theta_full        25.242
_diffrn_reflns_theta_max         25.999
_diffrn_reflns_theta_min         1.567
_exptl_absorpt_coefficient_mu    4.046
_exptl_absorpt_correction_T_max  0.7456
_exptl_absorpt_correction_T_min  0.4198
_exptl_absorpt_correction_type   multi-scan
_exptl_absorpt_process_details   sadabs
_exptl_crystal_colour            colorless
_exptl_crystal_density_diffrn    1.667
_exptl_crystal_description       prismatic
_exptl_crystal_F_000             252
_exptl_crystal_size_max          0.211
_exptl_crystal_size_mid          0.156
_exptl_crystal_size_min          0.123
_refine_diff_density_max         0.525
_refine_diff_density_min         -0.445
_refine_diff_density_rms         0.124
_refine_ls_extinction_coef       0.013(5)
_refine_ls_extinction_expression Fc^*^=kFc[1+0.001xFc^2^\l^3^/sin(2\q)]^-1/4^
_refine_ls_extinction_method     SHELXL
_refine_ls_goodness_of_fit_ref   1.041
_refine_ls_hydrogen_treatment    constr
_refine_ls_matrix_type           full
_refine_ls_number_parameters     129
_refine_ls_number_reflns         1980
_refine_ls_number_restraints     0
_refine_ls_restrained_S_all      1.041
_refine_ls_R_factor_all          0.0512
_refine_ls_R_factor_gt           0.0424
_refine_ls_shift/su_max          0.001
_refine_ls_shift/su_mean         0.000
_refine_ls_structure_factor_coef Fsqd
_refine_ls_weighting_details
'w=1/[\s^2^(Fo^2^)+(0.0710P)^2^] where P=(Fo^2^+2Fc^2^)/3'
_refine_ls_weighting_scheme      calc
_refine_ls_wR_factor_gt          0.1109
_refine_ls_wR_factor_ref         0.1174
_reflns_Friedel_coverage         0.000
_reflns_number_gt                1631
_reflns_number_total             1980
_reflns_threshold_expression     'I > 2\s(I)'
_cod_data_source_file            c4qo00157e2.cif
_cod_data_source_block           cd214181
_cod_database_code               1553009
_shelx_space_group_comment
; 
The symmetry employed for this shelxl refinement is uniquely defined 
by the following loop, which should always be used as a source of 
symmetry information in preference to the above space-group names. 
They are only intended as comments. 
;
_shelxl_version_number           2013-4
_shelx_res_file
; 
TITL cd214181   P-1 
CELL  0.71073    5.9442    6.7813   13.0140    91.341    92.608   105.719 
ZERR  1           0.0010    0.0011    0.0020     0.003     0.003     0.003 
LATT 1 
SFAC C  H  O  Br 
UNIT 22 18 4 2 
OMIT  -3.00  52.00 
L.S. 10 
ACTA 
BOND $H 
FMAP 2 
PLAN 0 
CONF 
wpdb -1 
mpla c6 > c11 
mpla c1 > c4 
htab 
conf 
EQIV $1 x-1, y, z 
HTAB C5 O1_$1 
EQIV $2 -x+2, -y+2, -z+2 
HTAB C8 Br1_$2 
WGHT    0.071000 
EXTI    0.012615 
FVAR       0.33383 
BR1   4    1.293599    0.805783    1.074402    11.00000    0.09113    0.05474 = 
         0.03124   -0.00516   -0.00254    0.00448 
O1    3    0.875335    0.099114    0.632735    11.00000    0.04995    0.03215 = 
         0.10705    0.01409    0.01364    0.01656 
O2    3    0.598538    0.258808    0.645284    11.00000    0.02962    0.03449 = 
         0.08066   -0.00210    0.00685    0.00501 
C1    1    1.054877    0.392135    0.450578    11.00000    0.03195    0.02456 = 
         0.03325    0.00204    0.00028    0.00865 
AFIX  13 
H1    2    1.037342    0.245295    0.439010    11.00000   -1.20000 
AFIX   0 
C2    1    1.153428    0.509685    0.548870    11.00000    0.02689    0.02797 = 
         0.03235    0.00134    0.00097    0.00665 
AFIX  13 
H2    2    1.317719    0.587919    0.560605    11.00000   -1.20000 
AFIX   0 
C3    1    0.981006    0.467125    0.632070    11.00000    0.03077    0.02877 = 
         0.02909    0.00136   -0.00068    0.00826 
C4    1    0.817712    0.253720    0.635825    11.00000    0.03400    0.03369 = 
         0.03097    0.00251    0.00182    0.00858 
C5    1    0.428495    0.062214    0.655269    11.00000    0.03925    0.04003 = 
         0.10316   -0.00873    0.01219   -0.00574 
AFIX 137 
H5A   2    0.402639   -0.012569    0.590298    11.00000   -1.50000 
H5B   2    0.283774    0.083784    0.675991    11.00000   -1.50000 
H5C   2    0.486581   -0.014629    0.706124    11.00000   -1.50000 
AFIX   0 
C6    1    1.064942    0.561569    0.737753    11.00000    0.03405    0.02767 = 
         0.02859    0.00292    0.00343    0.00410 
C7    1    0.948609    0.682485    0.787664    11.00000    0.04619    0.04406 = 
         0.04300   -0.00269   -0.00248    0.02006 
AFIX  43 
H7    2    0.822162    0.714047    0.753941    11.00000   -1.20000 
AFIX   0 
C8    1    1.017146    0.757814    0.887372    11.00000    0.06276    0.04724 = 
         0.04626   -0.00774    0.00443    0.02439 
AFIX  43 
H8    2    0.936779    0.838560    0.920636    11.00000   -1.20000 
AFIX   0 
C9    1    1.204224    0.712203    0.936380    11.00000    0.05332    0.03560 = 
         0.02952   -0.00093    0.00067    0.00289 
C10   1    1.327864    0.598514    0.887318    11.00000    0.04832    0.06333 = 
         0.03653   -0.00137   -0.00539    0.02001 
AFIX  43 
H10   2    1.458593    0.572426    0.920088    11.00000   -1.20000 
AFIX   0 
C11   1    1.255000    0.522559    0.787666    11.00000    0.04783    0.05831 = 
         0.03358   -0.00152   -0.00084    0.02476 
AFIX  43 
H11   2    1.337148    0.443577    0.754221    11.00000   -1.20000 
AFIX   0 
HKLF 4 
  
REM  cd214181   P-1 
REM R1 =  0.0424 for    1631 Fo > 4sig(Fo)  and  0.0512 for all    1980 data 
REM    129 parameters refined using      0 restraints 
  
END 
  
WGHT      0.0710      0.0000 
  
REM Instructions for potential hydrogen bonds 
HTAB C5 O1_$1 
HTAB C8 Br1_$2 
  
REM Highest difference peak  0.525,  deepest hole -0.445,  1-sigma level  0.124 
Q1    1   0.8979  0.3600  0.6206  11.00000  0.05    0.52 
Q2    1   0.9141  0.1215  0.5986  11.00000  0.05    0.39 
Q3    1   1.0479  0.1816  0.7246  11.00000  0.05    0.39 
Q4    1   1.4019  0.5797  0.5925  11.00000  0.05    0.38 
Q5    1   1.3604  0.9015  1.0453  11.00000  0.05    0.38 
Q6    1   1.0087  0.2599  0.6531  11.00000  0.05    0.35 
Q7    1   1.2224  0.2040  0.9002  11.00000  0.05    0.35 
Q8    1   0.6961  0.4338  0.5976  11.00000  0.05    0.34 
Q9    1   0.7278  0.9161  0.9791  11.00000  0.05    0.33 
Q10   1   0.3350  0.0350  0.7586  11.00000  0.05    0.33 
Q11   1   0.6910  0.2585  0.6527  11.00000  0.05    0.33 
Q12   1   0.6578  0.3839  0.6566  11.00000  0.05    0.32 
Q13   1   0.4566 -0.0784  0.8400  11.00000  0.05    0.31 
Q14   1   1.1477  0.7815  1.0559  11.00000  0.05    0.31 
Q15   1   1.1376  0.6454  1.1200  11.00000  0.05    0.29 
Q16   1   1.1841  0.3601  0.8948  11.00000  0.05    0.29 
Q17   1   1.3811  1.0650  1.0057  11.00000  0.05    0.28 
Q18   1   0.8772  0.1852  0.5259  11.00000  0.05    0.28 
Q19   1   0.8195  0.4591  0.8233  11.00000  0.05    0.27 
Q20   1   1.3040  0.8944  0.8448  11.00000  0.05    0.27 
;
_shelx_res_checksum              13100
_shelx_hkl_file
; 
   1   0   0   98.08    5.49 
   2   0   0   68.76    3.88 
  -3   0   0   85.77    5.67 
   3   0   0   87.08    4.89 
  -4   0   0    3.64    0.37 
   4   0   0    3.02    0.33 
  -5   0   0    1.30    0.27 
   5   0   0    2.02    0.32 
   6   0   0    0.16    0.28 
   7   0   0    1.45    0.41 
   7  -1   0    0.21    0.35 
   6  -1   0    0.55    0.29 
   5  -1   0    0.51    0.24 
   4  -1   0   13.27    0.86 
   3  -1   0   18.93    1.14 
   2  -1   0   15.17    0.90 
   0   1   0   57.42    3.24 
  -1  -1   0  243.06   16.17 
   1   1   0  242.22   13.60 
   1   1   0  259.26   13.86 
  -2  -1   0  179.20   10.06 
   2   1   0  128.87    8.61 
  -3  -1   0   46.22    3.28 
   3   1   0   52.85    2.84 
  -4  -1   0    2.50    0.31 
   4   1   0    1.84    0.28 
  -5  -1   0    6.45    0.61 
   5   1   0    4.56    0.48 
   6   1   0    2.62    0.43 
   7   1   0    0.67    0.40 
  -7   2   0    0.22    0.29 
   6  -2   0    1.32    0.33 
   5  -2   0    0.37    0.22 
  -4   2   0   35.86    2.09 
  -3   2   0   11.80    0.73 
  -2   2   0   40.92    2.33 
  -1   2   0   18.57    1.09 
   0   2   0  143.79    8.06 
  -1  -2   0  128.11    8.51 
   1   2   0  130.61    7.29 
   1   2   0  131.06    7.12 
  -2  -2   0   79.45    5.25 
  -3  -2   0   36.12    2.57 
   3   2   0   40.07    2.23 
  -4  -2   0    6.09    0.60 
   4   2   0    5.89    0.50 
  -5  -2   0    0.13    0.26 
   5   2   0    0.31    0.28 
   6   2   0    0.96    0.35 
  -7   3   0    1.83    0.40 
  -6   3   0    0.03    0.25 
  -5   3   0   15.11    0.99 
  -4   3   0   16.96    1.06 
  -3   3   0   41.09    2.37 
  -2   3   0    7.02    0.50 
  -1   3   0   44.85    2.58 
   0   3   0  189.63   10.11 
   0   3   0  179.79   10.36 
   1   3   0   43.13    2.52 
   1   3   0   44.15    2.41 
  -2  -3   0  161.29   10.93 
   2   3   0  172.18    9.38 
  -3  -3   0    4.50    0.51 
   3   3   0    4.93    0.44 
  -4  -3   0    0.43    0.30 
   4   3   0    0.25    0.26 
  -5  -3   0    2.01    0.42 
   5   3   0    2.14    0.41 
   6   3   0    1.28    0.44 
  -7   4   0    4.27    0.53 
  -6   4   0    0.27    0.30 
  -5   4   0   29.65    1.80 
  -4   4   0   54.48    3.15 
  -3   4   0    8.42    0.62 
  -2   4   0   51.93    3.00 
  -1   4   0  103.93    5.90 
   0   4   0   43.90    2.45 
   0   4   0   44.22    2.57 
   1   4   0  142.30    7.12 
   1   4   0  116.73    7.34 
  -2  -4   0   10.12    0.79 
   2   4   0    8.26    0.70 
  -3  -4   0    2.92    0.45 
   3   4   0    4.96    0.46 
  -4  -4   0    7.65    0.75 
   4   4   0    8.88    0.74 
   5   4   0    0.13    0.36 
  -7   5   0    2.02    0.48 
  -6   5   0    2.94    0.45 
  -5   5   0   13.25    0.95 
  -4   5   0    4.11    0.44 
  -3   5   0   16.26    1.08 
  -2   5   0   40.32    2.39 
  -1   5   0   23.92    1.58 
  -1   5   0   32.87    1.72 
   0   5   0   14.46    0.85 
   0   5   0   13.22    0.95 
   1   5   0    1.73    0.32 
   2   5   0    3.23    0.45 
  -3  -5   0   23.48    1.82 
   3   5   0   27.22    1.64 
   4   5   0    1.33    0.42 
   5   5   0    2.47    0.55 
  -7   6   0   -0.29    0.45 
  -5   6   0    0.02    0.36 
  -4   6   0   -0.07    0.33 
  -3   6   0   13.16    0.96 
  -2   6   0    0.19    0.30 
  -2   6   0    0.20    0.25 
  -1   6   0    8.10    0.66 
  -1   6   0    5.24    0.48 
   0   6   0    0.67    0.34 
   1   6   0    1.52    0.39 
   2   6   0   22.17    1.51 
   3   6   0    2.68    0.51 
   4   6   0    5.28    0.71 
  -6   7   0    0.27    0.48 
  -5   7   0    0.39    0.44 
  -4   7   0    4.43    0.58 
  -3   7   0    2.91    0.49 
  -3   7   0    1.67    0.38 
  -2   7   0    4.90    0.48 
  -2   7   0    5.83    0.65 
  -1   7   0    0.82    0.43 
   0   7   0    4.86    0.62 
   2   7   0    0.66    0.43 
   3   7   0    2.00    0.56 
  -5   8   0    2.65    0.53 
  -5   8   0    3.24    0.65 
  -4   8   0   -0.32    0.35 
  -4   8   0    0.17    0.49 
  -3   8   0    1.59    0.54 
  -3   8   0    0.93    0.36 
  -2   8   0    4.68    0.66 
  -1   8   0    2.79    0.59 
   0   8   0    1.21    0.51 
   1   8   0    0.32    0.52 
  -2   9   0    0.41    0.54 
  -2   9  -1    0.75    0.56 
   1   8  -1    0.63    0.51 
   0   8  -1    2.83    0.56 
  -1   8  -1    0.20    0.48 
  -2   8  -1   -0.04    0.43 
  -3   8  -1    3.17    0.45 
  -3   8  -1    3.57    0.62 
  -4   8  -1    0.35    0.50 
  -5   8  -1   -0.05    0.51 
   2   7  -1   -0.04    0.47 
   1   7  -1    6.58    0.72 
   0   7  -1    0.80    0.44 
  -1   7  -1    0.60    0.43 
  -2   7  -1    7.79    0.71 
  -2   7  -1    5.56    0.54 
  -3   7  -1    6.04    0.67 
  -4   7  -1    0.30    0.41 
  -5   7  -1    1.05    0.48 
  -6   7  -1    0.80    0.52 
   4   6  -1    4.52    0.67 
   3   6  -1   -0.10    0.39 
   2   6  -1    1.90    0.44 
   1   6  -1   13.37    1.02 
   0   6  -1    0.81    0.35 
  -1   6  -1   17.90    1.13 
  -1   6  -1   19.50    1.26 
  -2   6  -1    6.40    0.61 
  -3   6  -1    0.45    0.34 
  -4   6  -1   28.63    1.81 
  -5   6  -1    1.94    0.42 
  -6   6  -1    0.02    0.43 
  -7   6  -1    1.85    0.54 
   5   5  -1    3.25    0.59 
   4   5  -1    0.06    0.37 
  -4  -5   1   -0.21    0.42 
   3   5  -1    0.48    0.34 
  -3  -5   1    0.45    0.38 
   2   5  -1   36.05    2.07 
  -2  -5   1   31.44    2.34 
   1   5  -1    0.08    0.27 
   0   5  -1   50.73    2.86 
   0   5  -1   46.30    2.69 
  -1   5  -1    0.93    0.32 
  -2   5  -1   15.67    1.05 
  -3   5  -1   38.16    2.28 
  -4   5  -1    0.05    0.28 
  -5   5  -1   17.63    1.20 
  -6   5  -1    3.08    0.48 
  -7   5  -1    3.26    0.54 
   5   4  -1    2.34    0.49 
  -5  -4   1    2.72    0.51 
   4   4  -1    1.54    0.39 
  -4  -4   1    1.53    0.40 
   3   4  -1   26.76    1.68 
  -3  -4   1   27.48    1.95 
   2   4  -1    5.28    0.47 
  -2  -4   1    5.13    0.55 
   1   4  -1   28.37    1.53 
   1   4  -1   25.05    1.66 
  -1  -4   1   28.87    1.93 
   0   4  -1    5.80    0.49 
  -1   4  -1  112.94    6.40 
  -2   4  -1    7.49    0.58 
  -3   4  -1    0.60    0.21 
  -4   4  -1   78.35    4.48 
  -5   4  -1    0.34    0.25 
  -6   4  -1    3.64    0.46 
  -7   4  -1    0.61    0.38 
   6   3  -1    2.92    0.52 
   5   3  -1    4.02    0.50 
  -5  -3   1    3.68    0.53 
   4   3  -1   16.21    1.07 
  -4  -3   1   15.18    1.21 
   3   3  -1    3.41    0.38 
  -3  -3   1    3.90    0.45 
   2   3  -1   16.42    1.02 
  -2  -3   1   15.92    1.20 
   1   3  -1   29.70    1.65 
  -1  -3   1   25.96    1.91 
   0   3  -1   13.99    0.89 
  -1   3  -1   88.31    5.00 
  -2   3  -1    0.26    0.15 
  -3   3  -1   91.58    5.18 
  -4   3  -1    0.03    0.16 
  -5   3  -1    0.87    0.26 
  -6   3  -1    2.61    0.39 
  -7   3  -1    0.30    0.33 
   6   2  -1    1.28    0.39 
   5   2  -1    7.17    0.64 
  -5  -2   1    7.26    0.70 
   4   2  -1    1.56    0.27 
  -4  -2   1    1.14    0.31 
   3   2  -1   82.27    4.54 
  -3  -2   1   77.01    5.28 
   2   2  -1   27.32    1.59 
  -2  -2   1   26.61    1.85 
   1   2  -1  142.12    7.74 
  -1  -2   1  133.70    9.03 
   0   2  -1 1000.00   54.01 
   0  -2   1  938.42   63.00 
  -1   2  -1    2.16    0.21 
  -2   2  -1  107.09    6.01 
  -3   2  -1    3.17    0.27 
  -4   2  -1   11.99    0.79 
   5  -2   1   20.06    1.28 
   6  -2   1    0.10    0.28 
  -7   2  -1    1.00    0.34 
   7   1  -1    0.07    0.37 
   6   1  -1    1.32    0.35 
  -6  -1   1    1.41    0.44 
   5   1  -1    0.16    0.22 
  -5  -1   1    0.24    0.26 
   4   1  -1   98.02    5.50 
  -4  -1   1   95.46    6.38 
   3   1  -1   42.63    2.49 
  -3  -1   1   43.97    2.90 
   2   1  -1    3.90    0.31 
  -2  -1   1    4.42    0.37 
   1   1  -1  719.58   40.09 
   0   1  -1    2.10    0.18 
   0  -1   1    2.42    0.17 
   0  -1   1    2.07    0.22 
  -1   1  -1   92.31    5.18 
   2  -1   1  123.93    6.95 
   3  -1   1  196.11   10.99 
   4  -1   1   27.37    1.64 
  -5   1  -1    0.69    0.23 
   5  -1   1    0.73    0.26 
   6  -1   1    7.42    0.66 
   7  -1   1    1.41    0.39 
   7   0  -1    0.11    0.34 
   6   0  -1    0.12    0.28 
  -6   0   1    0.47    0.29 
   5   0  -1   18.73    1.20 
  -5   0   1   18.67    1.35 
   4   0  -1   52.74    3.06 
  -4   0   1   53.39    3.54 
   3   0  -1  101.89    5.83 
  -3   0   1  105.03    6.79 
   2   0  -1  250.52   13.99 
   0   0   1   81.12    4.58 
  -1   0  -1  242.79   15.32 
   1   0   1  213.18   12.83 
   1   0   1  249.02   13.11 
  -2   0  -1  295.48   19.53 
   2   0   1  304.94   16.76 
  -3   0  -1   71.01    4.78 
   3   0   1   74.90    4.14 
  -4   0  -1   12.22    0.88 
   4   0   1   12.16    0.81 
  -5   0  -1    8.62    0.72 
   5   0   1    9.77    0.71 
   6   0   1    0.23    0.30 
   7   0   1    0.10    0.36 
   7  -1  -1    0.00    0.32 
   6  -1  -1    0.62    0.27 
  -6   1   1    0.91    0.31 
   5  -1  -1    8.73    0.66 
   4  -1  -1   19.74    1.21 
   3  -1  -1   70.40    3.99 
   2  -1  -1   -0.02    0.07 
  -1   1   1  107.07    5.98 
   0   1   1  212.87   11.88 
  -1  -1  -1    5.04    0.41 
   1   1   1    5.78    0.34 
   1   1   1    5.51    0.35 
  -2  -1  -1  233.08   16.02 
   2   1   1  245.96   13.45 
   2   1   1  258.74   13.75 
  -3  -1  -1    2.90    0.30 
   3   1   1    2.25    0.26 
  -4  -1  -1   18.84    1.19 
   4   1   1   13.63    1.04 
  -5  -1  -1    1.92    0.30 
   5   1   1    1.93    0.33 
   6   1   1    0.37    0.31 
   7   1   1    5.37    0.64 
  -7   2   1    0.49    0.29 
  -6   2   1    0.13    0.23 
  -5   2   1    3.55    0.36 
  -4   2   1   30.66    1.79 
  -3   2   1    4.44    0.33 
  -2   2   1  205.36   11.47 
  -1   2   1  431.69   24.08 
   0   2   1    8.15    0.52 
  -1  -2  -1  300.51   17.18 
   1   2   1  237.71   14.39 
   1   2   1  252.51   14.71 
  -2  -2  -1   45.91    3.12 
   2   2   1   46.22    2.58 
   2   2   1   47.87    2.68 
  -3  -2  -1   26.29    1.76 
   3   2   1   24.13    1.51 
  -4  -2  -1    0.17    0.23 
   4   2   1    0.39    0.23 
   5   2   1    1.17    0.33 
   6   2   1    6.17    0.64 
  -7   3   1   -0.01    0.29 
  -6   3   1    1.75    0.32 
  -5   3   1   11.76    0.81 
  -4   3   1    0.40    0.18 
  -3   3   1   91.23    5.15 
  -2   3   1  268.78   15.03 
  -1   3   1  122.70    7.19 
  -1   3   1  132.72    7.02 
   0   3   1  150.71    8.42 
   0   3   1  148.93    8.21 
   1   3   1   47.17    2.61 
  -2  -3  -1   18.14    1.41 
   2   3   1   21.90    1.25 
   2   3   1   20.72    1.14 
  -3  -3  -1   20.54    1.51 
   3   3   1   21.59    1.31 
  -4  -3  -1    6.31    0.63 
   4   3   1    6.15    0.56 
   5   3   1    5.65    0.57 
   6   3   1    1.45    0.42 
  -7   4   1    0.24    0.33 
  -6   4   1    5.02    0.50 
  -5   4   1    1.69    0.30 
  -4   4   1    9.85    0.70 
  -3   4   1   17.57    1.10 
  -2   4   1   17.04    1.08 
  -1   4   1  136.72    7.66 
  -1   4   1  141.95    7.87 
   0   4   1    1.33    0.17 
   0   4   1    1.32    0.23 
   1   4   1   37.07    2.29 
   1   4   1   40.74    2.19 
   2   4   1   57.68    3.34 
  -3  -4  -1    3.34    0.43 
   3   4   1    2.30    0.38 
  -4  -4  -1   13.18    0.97 
   4   4   1    9.31    0.83 
   5   4   1    0.15    0.32 
  -7   5   1    2.78    0.49 
  -6   5   1    0.33    0.34 
  -5   5   1   -0.07    0.29 
  -4   5   1    2.05    0.34 
  -3   5   1    2.60    0.37 
  -2   5   1   45.21    2.48 
  -2   5   1   38.60    2.38 
  -1   5   1    1.31    0.23 
  -1   5   1    1.17    0.31 
   0   5   1   69.54    4.15 
   0   5   1   74.27    4.00 
   1   5   1   46.01    2.72 
   2   5   1    1.70    0.35 
   3   5   1   13.19    1.01 
   4   5   1    0.56    0.37 
   5   5   1    0.32    0.40 
  -6   6   1    1.98    0.47 
  -5   6   1    0.35    0.37 
  -4   6   1    0.47    0.34 
  -3   6   1    1.10    0.38 
  -3   6   1    2.48    0.37 
  -2   6   1   10.49    0.75 
  -2   6   1   10.52    0.84 
  -1   6   1   38.99    2.37 
   0   6   1   30.51    1.90 
   1   6   1    3.03    0.43 
   2   6   1   11.20    0.92 
   3   6   1    1.14    0.50 
   4   6   1    0.25    0.42 
  -6   7   1    3.61    0.58 
  -6   7   1    4.10    0.62 
  -5   7   1    0.74    0.44 
  -5   7   1    1.04    0.42 
  -4   7   1    0.03    0.35 
  -4   7   1    0.64    0.44 
  -3   7   1    3.23    0.53 
  -3   7   1    3.19    0.44 
  -2   7   1    3.13    0.40 
  -2   7   1    4.20    0.53 
  -1   7   1    9.32    0.84 
   0   7   1    0.55    0.42 
   1   7   1   10.79    0.89 
   2   7   1    0.06    0.44 
   3   7   1    2.28    0.63 
  -5   8   1   -0.22    0.53 
  -5   8   1   -0.38    0.40 
  -4   8   1   -0.15    0.47 
  -4   8   1    0.11    0.38 
  -3   8   1    0.14    0.47 
  -3   8   1   -0.08    0.33 
  -2   8   1    0.14    0.47 
  -1   8   1    0.96    0.51 
   0   8   1   12.15    1.05 
   1   8   1   -0.47    0.46 
  -2   9   1    0.76    0.56 
   1   8  -2    4.68    0.70 
   0   8  -2   -0.36    0.43 
  -1   8  -2    6.75    0.74 
  -2   8  -2   -0.56    0.47 
  -3   8  -2   -0.04    0.49 
  -4   8  -2   -0.08    0.47 
  -5   8  -2    0.30    0.56 
   3   7  -2   -0.62    0.41 
   2   7  -2   10.06    0.95 
   1   7  -2   -0.22    0.39 
   0   7  -2   24.31    1.64 
  -1   7  -2    1.13    0.45 
  -2   7  -2    2.82    0.53 
  -3   7  -2    2.07    0.50 
  -4   7  -2   -0.04    0.42 
  -5   7  -2   -0.04    0.42 
  -6   7  -2    1.34    0.56 
   4   6  -2    0.54    0.47 
  -4  -6   2    0.24    0.39 
   3   6  -2    4.91    0.64 
  -3  -6   2    4.67    0.62 
   2   6  -2    0.05    0.39 
   1   6  -2   18.93    1.31 
   0   6  -2   13.09    1.00 
  -1   6  -2   74.65    4.35 
  -2   6  -2    4.31    0.50 
  -3   6  -2    1.74    0.40 
  -4   6  -2   11.67    0.93 
  -5   6  -2    0.45    0.40 
  -6   6  -2    1.50    0.50 
  -7   6  -2   -0.44    0.47 
   5   5  -2   -0.05    0.41 
  -5  -5   2   -0.03    0.39 
   4   5  -2    2.49    0.49 
  -4  -5   2    1.56    0.44 
   3   5  -2    0.87    0.38 
  -3  -5   2    0.47    0.34 
   2   5  -2    9.01    0.74 
  -2  -5   2    8.56    0.83 
   1   5  -2    9.94    0.79 
  -1  -5   2    9.66    0.86 
   0   5  -2  112.84    6.43 
  -1   5  -2   33.67    2.04 
  -2   5  -2    0.15    0.27 
  -3   5  -2   59.47    3.46 
  -4   5  -2    7.37    0.65 
  -5   5  -2    1.64    0.39 
  -6   5  -2    1.10    0.41 
  -7   5  -2    1.39    0.47 
   5   4  -2    0.70    0.41 
  -5  -4   2    0.59    0.41 
   4   4  -2   -0.22    0.30 
  -4  -4   2    0.68    0.37 
   3   4  -2    9.83    0.77 
  -3  -4   2    9.34    0.87 
   2   4  -2    2.61    0.34 
  -2  -4   2    1.87    0.38 
   1   4  -2   17.92    0.99 
   1   4  -2   18.65    1.14 
  -1  -4   2   16.14    1.29 
   0   4  -2  124.52    7.06 
  -1   4  -2    2.02    0.31 
  -2   4  -2  169.25    9.53 
  -3   4  -2   12.84    0.85 
  -4   4  -2    5.19    0.47 
  -5   4  -2    5.89    0.54 
  -6   4  -2    0.38    0.33 
  -7   4  -2    0.73    0.40 
   6   3  -2    0.40    0.40 
   5   3  -2    3.21    0.47 
  -5  -3   2    3.75    0.53 
   4   3  -2   13.85    0.96 
  -4  -3   2   13.12    1.09 
   3   3  -2   20.26    1.26 
  -3  -3   2   19.57    1.47 
   2   3  -2    1.76    0.25 
  -2  -3   2    2.36    0.32 
   1   3  -2  175.92    9.69 
  -1  -3   2  168.88   11.31 
   0   3  -2    7.42    0.62 
   0  -3   2   11.17    0.74 
  -1   3  -2  193.68   10.86 
  -2   3  -2    8.16    0.56 
  -3   3  -2   24.70    1.47 
  -4   3  -2   35.00    2.06 
  -5   3  -2    2.31    0.34 
  -6   3  -2    1.40    0.33 
  -7   3  -2    0.19    0.35 
   6   2  -2    0.65    0.35 
  -6  -2   2    0.50    0.38 
   5   2  -2    5.98    0.57 
  -5  -2   2    6.44    0.68 
   4   2  -2   65.96    3.78 
  -4  -2   2   64.84    4.39 
   3   2  -2   12.80    0.85 
  -3  -2   2   13.32    1.01 
   2   2  -2  143.01    7.79 
  -2  -2   2  134.13    9.09 
   1   2  -2   58.18    3.25 
  -1  -2   2   55.80    3.80 
   0   2  -2  242.19   13.62 
   0  -2   2  244.88   15.89 
  -1   2  -2   37.91    2.17 
  -2   2  -2  176.22    9.89 
  -2   2  -2  177.32    9.89 
  -3   2  -2  238.60   13.35 
  -4   2  -2    3.32    0.32 
   5  -2   2    6.07    0.53 
   6  -2   2    1.68    0.36 
  -7   2  -2    0.20    0.32 
   7   1  -2    0.28    0.37 
   6   1  -2    1.24    0.35 
  -6  -1   2    1.90    0.48 
   5   1  -2   28.85    1.76 
  -5  -1   2   28.54    2.02 
   4   1  -2    7.35    0.56 
  -4  -1   2    7.47    0.47 
  -4  -1   2    7.64    0.67 
   3   1  -2   75.01    4.36 
  -3  -1   2   78.92    5.09 
  -3  -1   2   76.80    4.22 
   2   1  -2   21.59    1.29 
  -2  -1   2   21.67    1.52 
  -2  -1   2   22.88    1.23 
   1   1  -2  629.03   32.68 
  -1  -1   2  543.49   38.12 
   0   1  -2   72.71    4.05 
   0  -1   2   70.38    4.73 
   0  -1   2   73.31    3.96 
  -1   1  -2  157.93    8.80 
   1  -1   2  157.04    8.63 
   2  -1   2  403.34   21.91 
   2  -1   2  381.96   21.47 
   3  -1   2   33.08    1.93 
   4  -1   2   32.41    1.92 
  -5   1  -2    1.74    0.27 
   5  -1   2    2.30    0.33 
   6  -1   2   -0.01    0.28 
   7  -1   2    1.76    0.41 
   7   0  -2    0.37    0.35 
   6   0  -2    0.81    0.31 
  -6   0   2    1.47    0.35 
   5   0  -2    0.84    0.24 
  -5   0   2    0.58    0.29 
   4   0  -2   25.34    1.53 
  -4   0   2   25.90    1.78 
   3   0  -2   23.60    1.39 
  -2   0   2  339.75   18.55 
   1   0  -2    2.10    0.14 
  -1   0   2    2.22    0.15 
   0   0   2   82.34    4.54 
   0   0   2   82.34    4.63 
   1   0   2   32.80    1.87 
   1   0   2   33.84    1.90 
  -2   0  -2    0.61    0.09 
   2   0   2    0.49    0.11 
   2   0   2    0.55    0.13 
  -3   0  -2   79.88    5.42 
   3   0   2   86.20    4.70 
  -4   0  -2    8.95    0.69 
   4   0   2    9.78    0.67 
   5   0   2    6.73    0.59 
   6   0   2   15.39    1.08 
   7   0   2    0.22    0.33 
   7  -1  -2    0.02    0.31 
   6  -1  -2   -0.04    0.24 
  -6   1   2    0.21    0.30 
   5  -1  -2   15.01    0.98 
   4  -1  -2   28.77    1.70 
   3  -1  -2   94.11    5.30 
   2  -1  -2  320.68   17.88 
  -1   1   2   93.42    5.20 
  -1   1   2   96.36    5.31 
   0   1   2    2.22    0.19 
   0   1   2    3.11    0.20 
   1   1   2   -0.34    0.08 
  -2  -1  -2   56.53    3.88 
   2   1   2   58.24    3.28 
   2   1   2   62.40    3.35 
  -3  -1  -2   30.24    2.13 
   3   1   2   32.27    1.82 
   3   1   2   33.22    1.87 
  -4  -1  -2   23.49    1.67 
   4   1   2   25.11    1.48 
   5   1   2   44.18    2.62 
   6   1   2    3.72    0.49 
   7   1   2   -0.10    0.38 
  -7   2   2    0.22    0.28 
  -7   2   2   -0.05    0.27 
  -6   2   2   11.39    0.80 
  -5   2   2    3.41    0.33 
  -4   2   2  112.10    6.31 
  -3   2   2   89.22    5.02 
  -2   2   2   12.47    0.74 
  -1   2   2  177.04    9.35 
  -1   2   2  164.17    9.55 
   0   2   2    5.77    0.38 
   0   2   2    5.59    0.36 
   1   2   2   56.01    3.21 
   1   2   2   57.23    3.14 
  -2  -2  -2   27.91    2.02 
   2   2   2   33.79    1.77 
   2   2   2   29.30    1.71 
  -3  -2  -2   16.96    1.27 
   3   2   2   18.32    1.06 
   3   2   2   18.41    1.11 
  -4  -2  -2   60.59    4.13 
   4   2   2   63.32    3.59 
   5   2   2    5.57    0.55 
   6   2   2   -0.13    0.32 
  -7   3   2    2.24    0.39 
  -6   3   2    0.27    0.25 
  -5   3   2   80.74    4.62 
  -5   3   2   81.76    4.62 
  -4   3   2    1.06    0.20 
  -3   3   2    0.44    0.16 
  -2   3   2  204.72   10.84 
  -2   3   2  190.44   11.07 
  -1   3   2    0.52    0.17 
  -1   3   2    0.37    0.12 
   0   3   2  118.58    6.67 
   1   3   2   55.81    3.25 
   1   3   2   58.15    3.17 
   2   3   2    3.66    0.30 
   2   3   2    3.41    0.33 
  -3  -3  -2   59.29    3.47 
   3   3   2   43.58    2.99 
  -4  -3  -2    0.98    0.27 
   4   3   2    1.37    0.31 
   5   3   2    2.37    0.42 
   6   3   2    2.69    0.48 
  -6   4   2    2.53    0.37 
  -5   4   2    1.71    0.29 
  -4   4   2    5.23    0.47 
  -3   4   2   42.73    2.49 
  -2   4   2    2.24    0.26 
  -2   4   2    1.84    0.28 
  -1   4   2   41.55    2.46 
  -1   4   2   42.56    2.37 
   0   4   2  111.60    6.35 
   0   4   2  112.91    6.18 
   1   4   2    5.48    0.43 
   1   4   2    3.26    0.31 
   2   4   2   37.10    2.21 
   3   4   2    0.74    0.28 
  -4  -4  -2    6.89    0.68 
   4   4   2    7.91    0.69 
   5   4   2    6.14    0.67 
  -7   5   2    2.40    0.48 
  -6   5   2    2.99    0.44 
  -5   5   2    4.48    0.48 
  -4   5   2    9.33    0.72 
  -3   5   2    0.08    0.25 
  -3   5   2   -0.04    0.24 
  -2   5   2   13.54    0.88 
  -2   5   2   11.60    0.81 
  -1   5   2   52.64    2.98 
  -1   5   2   53.45    3.10 
   0   5   2    0.30    0.17 
   0   5   2   -0.01    0.21 
   1   5   2   45.75    2.69 
   2   5   2    0.17    0.27 
   3   5   2   14.08    1.02 
   4   5   2    1.89    0.45 
   5   5   2    6.42    0.73 
  -7   6   2    2.09    0.47 
  -6   6   2    0.81    0.42 
  -6   6   2    1.34    0.43 
  -5   6   2    2.89    0.45 
  -5   6   2    3.51    0.48 
  -4   6   2    0.10    0.32 
  -4   6   2   -0.13    0.33 
  -3   6   2   10.67    0.86 
  -3   6   2   11.87    0.82 
  -2   6   2    2.42    0.42 
  -2   6   2    2.01    0.32 
  -1   6   2    4.05    0.39 
  -1   6   2    3.43    0.47 
   0   6   2   46.92    2.80 
   1   6   2    3.08    0.47 
   2   6   2   18.06    1.25 
   3   6   2    0.39    0.42 
   4   6   2    0.79    0.48 
  -6   7   2    0.33    0.42 
  -5   7   2    0.61    0.45 
  -5   7   2    0.26    0.40 
  -4   7   2    1.75    0.47 
  -4   7   2    2.20    0.44 
  -3   7   2    0.06    0.31 
  -3   7   2    0.71    0.43 
  -2   7   2    0.74    0.30 
  -2   7   2    1.24    0.43 
  -1   7   2   31.11    1.98 
   0   7   2    2.01    0.47 
   1   7   2    4.86    0.60 
   2   7   2    7.47    0.77 
  -5   8   2    0.68    0.52 
  -5   8   2   -0.55    0.39 
  -4   8   2    0.05    0.50 
  -4   8   2    0.27    0.39 
  -3   8   2    0.03    0.34 
  -3   8   2    0.13    0.46 
  -2   8   2   17.15    1.29 
  -1   8   2   -0.59    0.45 
   0   8   2   -0.17    0.46 
   1   8   2   17.89    1.39 
   1   8  -3    0.79    0.51 
   0   8  -3    2.33    0.58 
  -1   8  -3    3.43    0.59 
  -2   8  -3    0.51    0.51 
  -3   8  -3    0.41    0.44 
  -4   8  -3    1.98    0.59 
  -5   8  -3    0.02    0.54 
   3   7  -3    1.88    0.55 
   2   7  -3    0.22    0.41 
   1   7  -3    5.56    0.66 
   0   7  -3   10.32    0.88 
  -1   7  -3    8.08    0.77 
  -2   7  -3    0.14    0.41 
  -3   7  -3   20.46    1.40 
  -4   7  -3    5.69    0.67 
  -5   7  -3    1.17    0.53 
  -6   7  -3    0.66    0.56 
   4   6  -3    2.77    0.60 
  -4  -6   3    2.95    0.63 
   3   6  -3    2.65    0.56 
  -3  -6   3    3.47    0.61 
   2   6  -3    2.13    0.47 
  -2  -6   3    1.76    0.46 
   1   6  -3   11.51    0.90 
   0   6  -3   18.03    1.25 
  -1   6  -3    3.75    0.52 
  -2   6  -3   75.55    4.39 
  -3   6  -3   29.51    1.86 
  -4   6  -3    0.34    0.35 
  -5   6  -3   -0.02    0.40 
  -6   6  -3    0.73    0.48 
   5   5  -3    0.31    0.44 
  -5  -5   3    0.39    0.45 
   4   5  -3    3.47    0.54 
  -4  -5   3    3.52    0.58 
   3   5  -3    2.16    0.43 
  -3  -5   3    1.75    0.44 
   2   5  -3   10.46    0.82 
  -2  -5   3    9.52    0.88 
   1   5  -3   26.80    1.86 
  -1  -5   3   33.35    2.16 
   0   5  -3    1.56    0.36 
  -1   5  -3   74.41    4.30 
  -2   5  -3    1.76    0.35 
  -3   5  -3    5.89    0.55 
  -4   5  -3   -0.04    0.27 
  -5   5  -3    1.52    0.37 
  -6   5  -3   -0.16    0.37 
  -7   5  -3    0.44    0.46 
   5   4  -3    0.79    0.42 
  -5  -4   3    0.61    0.44 
   4   4  -3    5.39    0.58 
  -4  -4   3    5.24    0.65 
   3   4  -3    8.69    0.72 
  -3  -4   3    8.45    0.83 
  -2  -4   3   40.26    2.79 
   1   4  -3    3.79    0.41 
  -1  -4   3    3.58    0.46 
   0   4  -3  131.83    8.15 
   0  -4   3  156.66    9.50 
  -1   4  -3   25.48    1.55 
  -2   4  -3   20.16    1.26 
  -3   4  -3   52.94    3.07 
  -4   4  -3    7.20    0.58 
  -5   4  -3    0.10    0.29 
  -6   4  -3    0.16    0.34 
  -7   4  -3    0.15    0.39 
   6   3  -3    0.33    0.39 
  -6  -3   3    0.74    0.45 
   5   3  -3    1.85    0.41 
  -5  -3   3    2.31    0.47 
   4   3  -3    4.70    0.49 
  -4  -3   3    4.11    0.55 
   3   3  -3   16.05    1.10 
  -3  -3   3   18.17    1.30 
   2   3  -3    4.29    0.40 
  -2  -3   3    5.06    0.51 
   1   3  -3  480.57   26.86 
  -1  -3   3  481.22   31.35 
   0   3  -3    8.44    0.58 
   0  -3   3    7.64    0.67 
  -1   3  -3   62.52    3.57 
  -2   3  -3  319.64   17.87 
  -3   3  -3   30.70    1.81 
  -4   3  -3    2.03    0.28 
  -5   3  -3    0.76    0.27 
  -6   3  -3    0.11    0.30 
  -7   3  -3    0.01    0.32 
   6   2  -3    0.44    0.36 
  -6  -2   3    0.78    0.39 
   5   2  -3    1.70    0.36 
  -5  -2   3    2.62    0.49 
   4   2  -3    0.42    0.24 
  -4  -2   3    0.54    0.34 
   3   2  -3    0.07    0.17 
  -3  -2   3    0.40    0.28 
   2   2  -3  440.01   24.56 
   1   2  -3    0.38    0.13 
  -1  -2   3    0.55    0.20 
  -1  -2   3    0.44    0.08 
   0   2  -3  309.03   17.16 
   0  -2   3  313.57   16.79 
   0  -2   3  298.77   20.02 
  -1   2  -3  280.71   15.44 
   1  -2   3  272.05   15.13 
  -2   2  -3   85.31    4.81 
  -3   2  -3   10.53    0.68 
  -4   2  -3    4.82    0.44 
   5  -2   3    3.79    0.42 
   6  -2   3    2.03    0.39 
  -7   2  -3    0.20    0.34 
   6   1  -3    0.77    0.33 
  -6  -1   3    0.67    0.37 
   5   1  -3    0.83    0.26 
  -5  -1   3    0.91    0.32 
   4   1  -3    5.30    0.44 
  -4  -1   3    5.01    0.53 
  -4  -1   3    4.98    0.35 
   3   1  -3   50.39    3.02 
  -3  -1   3   55.28    2.92 
  -3  -1   3   52.69    3.54 
  -2  -1   3   51.55    3.41 
  -2  -1   3   51.07    2.82 
  -1  -1   3  365.16   24.51 
  -1  -1   3  387.82   20.56 
   0   1  -3   35.88    2.31 
   0  -1   3   46.48    2.28 
  -1   1  -3  141.35    7.42 
   1  -1   3  141.72    7.30 
   1  -1   3  115.45    8.64 
   2  -1   3   68.61    3.79 
   2  -1   3   65.16    3.74 
   3  -1   3   32.47    1.90 
   4  -1   3    5.44    0.48 
   5  -1   3   18.87    1.23 
   6  -1   3    0.44    0.30 
   7  -1   3    0.51    0.37 
   6   0  -3    2.65    0.38 
  -6   0   3    2.35    0.45 
   5   0  -3   13.29    0.91 
  -5   0   3   13.40    1.05 
  -5   0   3   13.56    0.83 
   4   0  -3   22.37    1.36 
  -4   0   3   23.48    1.61 
  -4   0   3   22.30    1.30 
   3   0  -3   17.17    1.02 
   2   0  -3   24.64    1.40 
  -2   0   3   24.21    1.37 
   1   0  -3  159.94    8.78 
  -1   0   3  153.77    8.58 
   0   0   3  113.23    6.36 
   0   0   3  117.62    6.48 
   1   0   3  521.54   29.67 
   1   0   3  564.98   30.29 
   2   0   3   21.53    1.21 
   2   0   3   19.31    1.20 
  -3   0  -3    8.88    0.55 
   3   0   3    6.13    0.52 
   3   0   3    6.52    0.54 
  -4   0  -3   89.25    5.08 
   4   0   3   63.88    4.39 
   5   0   3    0.40    0.26 
   6   0   3    0.82    0.34 
   7   0   3    0.50    0.39 
  -7   1   3    2.39    0.49 
   6  -1  -3   10.73    0.81 
  -6   1   3   11.58    0.75 
  -6   1   3   11.13    0.94 
   5  -1  -3   41.72    2.58 
  -5   1   3   46.60    2.51 
   4  -1  -3    0.10    0.07 
  -4   1   3    0.03    0.14 
   3  -1  -3    5.11    0.35 
  -3   1   3    4.52    0.35 
  -2   1   3  282.60   15.23 
  -2   1   3  274.82   15.54 
  -1   1   3   62.44    3.40 
  -1   1   3   60.83    3.46 
   0   1   3  730.88   40.78 
   0   1   3  764.21   41.65 
   1   1   3   31.84    1.84 
   1   1   3   33.11    1.86 
  -2  -1  -3  106.03    6.23 
   2   1   3   84.20    5.37 
  -3  -1  -3   55.10    3.80 
   3   1   3   60.77    3.25 
   3   1   3   57.54    3.30 
  -4  -1  -3    0.24    0.18 
   4   1   3    0.37    0.22 
   5   1   3    2.13    0.35 
   6   1   3    1.40    0.39 
   7   1   3    0.97    0.40 
  -7   2   3    0.61    0.39 
  -7   2   3    0.47    0.27 
  -6   2   3   17.32    1.09 
  -6   2   3   16.88    1.08 
  -5   2   3    1.40    0.24 
  -5   2   3    1.61    0.24 
  -4   2   3    0.25    0.17 
  -4   2   3    0.74    0.16 
  -3   2   3  132.71    7.68 
  -3   2   3  141.90    7.55 
  -2   2   3   45.79    2.61 
  -2   2   3   47.86    2.66 
  -1   2   3  163.62    9.14 
  -1   2   3  170.13    9.33 
   0   2   3   74.99    4.22 
   1   2   3   63.19    3.51 
   2   2   3   70.58    4.14 
   2   2   3   78.33    4.23 
  -3  -2  -3    1.76    0.24 
  -3  -2  -3    1.76    0.24 
   3   2   3    1.85    0.24 
   3   2   3    1.48    0.24 
   4   2   3   11.11    0.80 
   5   2   3   22.29    1.45 
   6   2   3    5.38    0.60 
  -7   3   3    0.26    0.29 
  -6   3   3   -0.27    0.24 
  -6   3   3    0.06    0.21 
  -5   3   3    0.11    0.22 
  -5   3   3    0.01    0.19 
  -4   3   3   62.00    3.51 
  -4   3   3   63.00    3.56 
  -3   3   3    5.73    0.45 
  -3   3   3    5.48    0.43 
  -2   3   3    9.91    0.61 
  -2   3   3    8.62    0.61 
  -1   3   3   26.69    1.56 
  -1   3   3   26.71    1.52 
   0   3   3   48.70    2.98 
   0   3   3   59.03    3.06 
   1   3   3  107.32    6.05 
   2   3   3   12.65    0.81 
   2   3   3   13.01    0.84 
   3   3   3   61.84    3.57 
   4   3   3   20.15    1.31 
   5   3   3    8.61    0.73 
   6   3   3    0.94    0.42 
  -7   4   3    0.29    0.33 
  -6   4   3   -0.14    0.28 
  -6   4   3    0.07    0.27 
  -5   4   3   18.88    1.24 
  -5   4   3   20.86    1.26 
  -4   4   3    5.41    0.48 
  -4   4   3    4.89    0.46 
  -3   4   3   20.65    1.29 
  -3   4   3   21.41    1.28 
  -2   4   3    4.92    0.44 
  -2   4   3    5.50    0.43 
  -1   4   3    4.21    0.37 
  -1   4   3    4.03    0.34 
   0   4   3   49.04    2.83 
   1   4   3    1.18    0.22 
   1   4   3    1.30    0.25 
   2   4   3  116.67    6.62 
   3   4   3    1.75    0.32 
   4   4   3    7.63    0.68 
   5   4   3    2.25    0.45 
  -7   5   3    0.24    0.37 
  -6   5   3    1.91    0.41 
  -5   5   3    2.81    0.39 
  -5   5   3    2.75    0.41 
  -4   5   3   14.33    0.95 
  -4   5   3   13.03    0.93 
  -3   5   3   10.56    0.79 
  -3   5   3   10.91    0.76 
  -2   5   3    3.45    0.41 
  -2   5   3    3.01    0.34 
  -1   5   3   37.46    2.11 
  -1   5   3   35.76    2.18 
   0   5   3    0.48    0.20 
   0   5   3    0.85    0.27 
   1   5   3   36.68    2.20 
   2   5   3    1.17    0.32 
   3   5   3    3.20    0.46 
   4   5   3    3.39    0.53 
  -7   6   3    0.35    0.42 
  -6   6   3    0.12    0.39 
  -5   6   3    0.88    0.39 
  -5   6   3    1.33    0.38 
  -4   6   3    7.50    0.63 
  -4   6   3    5.89    0.62 
  -3   6   3    0.66    0.35 
  -3   6   3    0.67    0.30 
  -2   6   3   51.06    2.97 
  -2   6   3   49.14    2.87 
  -1   6   3    0.94    0.28 
  -1   6   3    0.92    0.34 
   0   6   3    1.15    0.34 
   1   6   3   10.72    0.86 
   2   6   3    2.52    0.46 
   3   6   3    6.10    0.68 
   4   6   3    1.03    0.44 
  -6   7   3    0.10    0.44 
  -5   7   3    0.98    0.40 
  -5   7   3    1.15    0.48 
  -4   7   3    0.02    0.40 
  -4   7   3    0.02    0.35 
  -3   7   3   30.02    1.85 
  -3   7   3   27.78    1.76 
  -2   7   3    0.67    0.35 
  -2   7   3    1.55    0.45 
  -1   7   3    0.12    0.38 
   0   7   3   11.87    0.95 
   1   7   3    5.00    0.65 
   2   7   3    3.76    0.60 
  -5   8   3    0.20    0.44 
  -4   8   3    2.56    0.60 
  -4   8   3    1.64    0.48 
  -3   8   3    0.39    0.46 
  -3   8   3   -0.29    0.37 
  -2   8   3    1.69    0.52 
  -1   8   3    6.26    0.71 
   0   8   3    4.57    0.65 
   1   8   3    1.77    0.55 
   1   8  -4    1.12    0.52 
   0   8  -4    0.36    0.49 
  -1   8  -4   -0.36    0.46 
  -2   8  -4   12.23    1.08 
  -3   8  -4    2.19    0.57 
  -4   8  -4    2.06    0.61 
   2   7  -4    4.72    0.67 
   1   7  -4   -0.22    0.38 
   0   7  -4    0.40    0.44 
  -1   7  -4    8.60    0.81 
  -2   7  -4    3.18    0.51 
  -3   7  -4    6.21    0.68 
  -4   7  -4    0.89    0.48 
  -5   7  -4    0.89    0.53 
  -6   7  -4    0.07    0.55 
   4   6  -4    2.73    0.60 
  -4  -6   4    2.51    0.58 
  -4  -6   4    2.47    0.58 
   3   6  -4    2.71    0.56 
  -3  -6   4    4.89    0.69 
   2   6  -4    4.71    0.60 
  -2  -6   4    4.60    0.62 
   1   6  -4    4.49    0.57 
   0   6  -4    4.93    0.58 
  -1   6  -4    0.69    0.38 
  -2   6  -4    4.70    0.54 
  -3   6  -4    6.30    0.64 
  -4   6  -4    2.23    0.44 
  -5   6  -4    2.25    0.48 
  -6   6  -4    0.69    0.49 
   5   5  -4    0.58    0.49 
  -5  -5   4   -0.07    0.48 
   4   5  -4    3.68    0.58 
  -4  -5   4    3.07    0.60 
   3   5  -4    7.93    0.73 
  -3  -5   4    7.95    0.83 
   2   5  -4    0.92    0.36 
  -2  -5   4    0.79    0.35 
   1   5  -4   45.14    3.01 
  -1  -5   4   57.16    3.52 
   0   5  -4   -0.22    0.29 
  -1   5  -4    3.83    0.44 
  -2   5  -4   28.78    1.77 
  -3   5  -4    7.87    0.68 
  -4   5  -4   13.30    0.98 
  -5   5  -4    1.88    0.43 
  -6   5  -4    0.79    0.43 
  -7   5  -4    0.22    0.46 
   5   4  -4    4.74    0.63 
  -5  -4   4    5.19    0.71 
   4   4  -4    2.23    0.44 
  -4  -4   4    2.61    0.53 
   3   4  -4    0.28    0.27 
  -3  -4   4    0.64    0.38 
   2   4  -4  117.95    6.72 
  -2  -4   4  117.98    7.84 
   1   4  -4    6.28    0.53 
  -1  -4   4    5.32    0.58 
   0   4  -4   44.32    2.90 
   0  -4   4   55.12    3.38 
  -1   4  -4   49.48    2.88 
  -2   4  -4   38.73    2.28 
  -3   4  -4   11.27    0.78 
  -4   4  -4    0.27    0.26 
  -5   4  -4   17.88    1.21 
  -6   4  -4   -0.17    0.34 
  -7   4  -4   -0.10    0.43 
   6   3  -4    2.86    0.53 
  -6  -3   4    3.59    0.63 
   5   3  -4    1.02    0.36 
  -5  -3   4    0.78    0.46 
   4   3  -4    5.35    0.53 
  -4  -3   4    5.20    0.63 
   3   3  -4   59.31    3.48 
  -3  -3   4   60.54    4.07 
   2   3  -4   11.63    0.79 
  -2  -3   4   11.36    0.95 
   1   3  -4  102.62    5.96 
  -1  -3   4  105.90    6.95 
  -1  -3   4  106.54    5.77 
   0   3  -4   48.82    2.73 
   0  -3   4   46.48    3.19 
   0  -3   4   46.37    2.64 
  -1   3  -4   93.42    5.29 
   1  -3   4   93.42    5.18 
  -2   3  -4   10.12    0.68 
  -3   3  -4    1.27    0.23 
  -5   3  -4    2.97    0.38 
  -6   3  -4    0.65    0.34 
  -7   3  -4    0.81    0.41 
   6   2  -4    0.78    0.38 
  -6  -2   4    1.22    0.48 
   5   2  -4    1.10    0.34 
  -5  -2   4    1.90    0.49 
   4   2  -4   20.02    1.27 
   3   2  -4    0.76    0.21 
  -3  -2   4    1.73    0.35 
   2   2  -4   86.76    4.71 
  -2  -2   4   79.85    4.56 
   1   2  -4   20.06    1.22 
  -1  -2   4   19.95    1.43 
  -1  -2   4   20.95    1.16 
   0   2  -4    0.28    0.14 
   0  -2   4    0.45    0.12 
   0  -2   4    0.77    0.19 
  -1   2  -4  203.67   11.18 
   1  -2   4  196.00   10.97 
  -2   2  -4    0.69    0.15 
   2  -2   4    0.51    0.18 
  -3   2  -4   20.26    1.23 
  -4   2  -4    8.07    0.61 
   5  -2   4    5.01    0.49 
  -6   2  -4    7.43    0.66 
  -7   2  -4    1.41    0.41 
  -7  -1   4    0.05    0.54 
   6   1  -4    3.01    0.45 
  -6  -1   4    3.55    0.53 
   5   1  -4   21.71    1.40 
  -5  -1   4   22.91    1.65 
   4   1  -4    6.25    0.53 
  -4  -1   4    7.37    0.46 
  -4  -1   4    6.98    0.66 
  -3  -1   4   37.85    2.08 
  -3  -1   4   36.74    2.54 
   2   1  -4   59.28    3.40 
  -2  -1   4   62.52    4.00 
  -2  -1   4   58.84    3.31 
   1   1  -4   38.39    2.30 
  -1  -1   4   42.34    2.25 
  -1  -1   4   40.81    2.70 
   0  -1   4  752.63   40.33 
   0  -1   4  725.09   48.05 
  -1   1  -4   77.15    4.26 
   1  -1   4   70.67    4.96 
   1  -1   4   79.97    4.21 
   2  -1   4   64.76    3.72 
   2  -1   4   67.85    3.77 
   3  -1   4   15.79    1.06 
   3  -1   4   17.29    1.03 
   4  -1   4    9.77    0.69 
   5  -1   4    6.77    0.60 
   6  -1   4    2.80    0.41 
   7  -1   4    0.50    0.38 
  -7   0   4    3.56    0.57 
   6   0  -4   13.63    0.94 
  -6   0   4   12.56    1.08 
  -5   0   4    8.17    0.55 
  -5   0   4    8.17    0.75 
   4   0  -4   13.58    0.85 
  -4   0   4   12.86    1.02 
  -4   0   4   13.37    0.80 
   3   0  -4  109.22    6.22 
  -3   0   4  112.33    6.09 
   2   0  -4   45.36    2.56 
  -2   0   4   45.31    2.51 
   1   0  -4  403.67   22.09 
  -1   0   4  386.56   21.56 
   0   0   4  307.20   17.00 
   0   0   4  314.58   17.34 
   1   0   4  189.56   10.82 
   1   0   4  199.33   12.87 
   1   0   4  202.55   11.03 
   2   0   4   87.36    4.99 
   2   0   4   91.88    5.06 
   3   0   4   23.44    1.50 
   3   0   4   26.82    1.51 
   4   0   4    6.18    0.54 
   4   0   4    7.38    0.60 
   5   0   4    0.22    0.25 
   6   0   4    2.04    0.39 
   7   0   4    1.07    0.42 
  -7   1   4    1.70    0.48 
  -6   1   4    3.07    0.47 
  -6   1   4    2.74    0.33 
   5  -1  -4    1.40    0.24 
  -5   1   4    0.78    0.22 
   4  -1  -4   50.08    2.84 
  -4   1   4   49.03    2.77 
   3  -1  -4  104.09    5.95 
  -3   1   4  108.19    5.84 
  -2   1   4   84.49    4.28 
  -2   1   4   67.88    4.21 
  -1   1   4   71.95    4.03 
  -1   1   4   74.05    4.09 
   0   1   4  148.62    8.32 
   0   1   4  149.43    8.17 
   1   1   4  363.12   19.60 
   1   1   4  339.30   19.21 
   2   1   4   13.28    0.87 
   2   1   4   14.35    0.86 
  -3  -1  -4   59.20    3.98 
   3   1   4   66.18    3.44 
   3   1   4   57.46    3.47 
   4   1   4    4.17    0.41 
   5   1   4    4.38    0.48 
   6   1   4    0.27    0.34 
   7   1   4   -0.23    0.37 
  -7   2   4   -0.44    0.40 
  -6   2   4   -0.05    0.23 
  -5   2   4    3.87    0.35 
  -5   2   4    4.19    0.37 
  -4   2   4    3.43    0.32 
  -4   2   4    3.53    0.30 
  -3   2   4   15.36    0.89 
  -3   2   4   14.55    0.90 
  -2   2   4    0.24    0.13 
  -2   2   4    0.31    0.11 
  -1   2   4  135.72    7.60 
  -1   2   4  136.20    7.46 
   0   2   4  277.33   15.02 
   0   2   4  260.87   14.71 
   1   2   4    1.09    0.20 
   1   2   4    0.90    0.15 
   2   2   4  381.66   20.87 
   2   2   4  365.10   20.45 
   3   2   4    2.72    0.31 
   3   2   4    2.23    0.28 
   4   2   4    7.89    0.62 
   5   2   4    0.35    0.29 
   6   2   4   -0.15    0.33 
  -7   3   4    0.16    0.29 
  -6   3   4    0.09    0.26 
  -5   3   4    2.72    0.30 
  -5   3   4    2.63    0.33 
  -4   3   4    1.00    0.23 
  -4   3   4    0.68    0.19 
  -3   3   4    6.30    0.48 
  -3   3   4    6.95    0.50 
  -2   3   4   57.32    3.12 
  -2   3   4   54.42    3.18 
  -1   3   4  134.57    7.50 
  -1   3   4  132.79    7.35 
   0   3   4    0.25    0.12 
   0   3   4    0.40    0.14 
   1   3   4  230.54   12.65 
   2   3   4    0.55    0.21 
   2   3   4    0.27    0.18 
   3   3   4   10.68    0.75 
   4   3   4    7.31    0.62 
   5   3   4    4.29    0.53 
   6   3   4    0.04    0.35 
  -7   4   4    0.74    0.36 
  -6   4   4   -0.11    0.25 
  -5   4   4   -0.04    0.23 
  -5   4   4    0.13    0.26 
  -4   4   4   11.40    0.81 
  -4   4   4   12.04    0.80 
  -3   4   4    6.75    0.56 
  -3   4   4    7.78    0.56 
  -2   4   4   86.48    5.05 
  -2   4   4   95.60    5.17 
  -1   4   4   11.01    0.71 
  -1   4   4   10.35    0.69 
   0   4   4  127.77    7.20 
   1   4   4    0.28    0.19 
   1   4   4    0.37    0.25 
   2   4   4    9.42    0.70 
   3   4   4   28.25    1.75 
   4   4   4    6.07    0.60 
   5   4   4    0.55    0.38 
  -7   5   4    1.04    0.41 
  -6   5   4    0.47    0.35 
  -5   5   4    1.13    0.32 
  -5   5   4    1.31    0.35 
  -4   5   4    1.35    0.32 
  -4   5   4    0.87    0.31 
  -3   5   4   34.68    2.03 
  -3   5   4   34.42    2.07 
  -2   5   4    1.06    0.27 
  -2   5   4    1.37    0.31 
  -1   5   4   38.97    2.28 
  -1   5   4   38.18    2.21 
   0   5   4    2.75    0.34 
   1   5   4   23.46    1.47 
   2   5   4   50.35    2.98 
   3   5   4    1.69    0.38 
   4   5   4    2.17    0.47 
  -6   6   4    0.06    0.39 
  -5   6   4    0.25    0.33 
  -4   6   4    4.69    0.54 
  -4   6   4    4.41    0.51 
  -3   6   4    2.75    0.45 
  -3   6   4    2.29    0.38 
  -2   6   4   12.58    0.93 
  -2   6   4   12.68    0.89 
  -1   6   4   11.72    0.81 
  -1   6   4   10.98    0.85 
   1   6   4   21.80    1.43 
   2   6   4    2.23    0.42 
   3   6   4    3.88    0.59 
  -6   7   4    0.27    0.43 
  -5   7   4    0.25    0.41 
  -4   7   4    1.83    0.44 
  -4   7   4    2.44    0.50 
  -3   7   4    4.69    0.58 
  -3   7   4    4.85    0.57 
  -2   7   4    5.57    0.57 
  -2   7   4    6.69    0.65 
  -1   7   4   13.59    1.02 
   0   7   4   11.60    0.89 
   1   7   4    7.68    0.76 
   2   7   4    1.31    0.48 
   2   7   4    1.26    0.48 
  -5   8   4    0.40    0.45 
  -4   8   4    2.05    0.52 
  -3   8   4    1.15    0.50 
  -3   8   4    1.03    0.43 
  -2   8   4    0.51    0.48 
  -1   8   4    3.06    0.56 
   0   8   4    2.67    0.57 
   1   8  -5    5.05    0.74 
   0   8  -5    2.35    0.58 
  -1   8  -5    1.41    0.49 
  -2   8  -5    4.09    0.67 
  -3   8  -5    0.03    0.49 
  -4   8  -5    0.21    0.54 
   2   7  -5    1.48    0.51 
   1   7  -5    8.20    0.81 
   0   7  -5    1.10    0.47 
  -1   7  -5    9.93    0.90 
  -2   7  -5    0.02    0.37 
  -3   7  -5    0.78    0.42 
  -4   7  -5    3.47    0.58 
  -5   7  -5    0.99    0.55 
  -4  -6   5    0.46    0.48 
   3   6  -5    0.00    0.43 
  -3  -6   5    0.09    0.43 
   2   6  -5   13.50    1.19 
  -2  -6   5   19.13    1.40 
   1   6  -5    0.14    0.34 
  -1  -6   5    0.13    0.38 
   0   6  -5   31.96    1.99 
  -1   6  -5    1.47    0.38 
  -2   6  -5    8.99    0.78 
  -3   6  -5    3.14    0.48 
  -4   6  -5    0.81    0.42 
  -5   6  -5    0.05    0.44 
  -6   6  -5    1.53    0.52 
   4   5  -5    0.25    0.42 
  -4  -5   5    0.60    0.51 
   3   5  -5   10.57    0.91 
  -3  -5   5   10.72    1.04 
   2   5  -5    2.87    0.47 
  -2  -5   5    3.14    0.52 
   1   5  -5   49.40    2.94 
   0   5  -5    4.04    0.48 
   0  -5   5    3.32    0.51 
  -1   5  -5   69.69    4.04 
  -2   5  -5    6.23    0.57 
  -3   5  -5    1.20    0.34 
  -4   5  -5    7.18    0.66 
  -5   5  -5    5.83    0.62 
  -6   5  -5    0.51    0.43 
  -7   5  -5    0.15    0.47 
   5   4  -5    0.21    0.39 
  -5  -4   5    0.85    0.50 
   4   4  -5    5.59    0.64 
  -4  -4   5    7.39    0.79 
   3   4  -5    2.10    0.39 
  -3  -4   5    2.18    0.48 
   2   4  -5   52.12    3.11 
  -2  -4   5   53.79    3.64 
   1   4  -5    0.83    0.29 
  -1  -4   5    1.38    0.36 
   0   4  -5   38.61    2.27 
   0  -4   5   37.56    2.63 
  -1   4  -5   49.90    2.90 
  -2   4  -5    9.06    0.66 
  -3   4  -5   19.75    1.25 
  -4   4  -5    8.61    0.69 
  -5   4  -5    0.01    0.31 
  -6   4  -5    6.07    0.64 
  -7   4  -5    1.18    0.48 
  -6  -3   5    0.54    0.50 
   5   3  -5    5.34    0.62 
  -5  -3   5    6.31    0.74 
   4   3  -5    1.65    0.37 
  -4  -3   5    1.79    0.46 
   3   3  -5   52.40    3.14 
  -3  -3   5   55.21    3.69 
   2   3  -5    3.25    0.38 
  -2  -3   5    4.36    0.50 
   1   3  -5    1.45    0.26 
  -1  -3   5    1.77    0.19 
  -1  -3   5    1.61    0.34 
   0   3  -5  146.58    7.86 
   0  -3   5  136.33    9.17 
   0  -3   5  135.30    7.67 
  -1   3  -5   12.37    0.88 
   1  -3   5   13.67    0.87 
   1  -3   5   15.46    1.05 
  -2   3  -5   45.49    2.63 
   2  -3   5   45.81    2.62 
  -3   3  -5    6.82    0.54 
  -4   3  -5    2.60    0.33 
  -5   3  -5   26.24    1.64 
  -6   3  -5    0.50    0.36 
  -7   3  -5   -0.01    0.36 
  -6  -2   5    3.71    0.69 
   5   2  -5    0.51    0.30 
  -5  -2   5    1.03    0.47 
   4   2  -5   27.46    1.68 
  -3  -2   5   28.62    2.03 
  -3  -2   5   28.58    2.03 
   2   2  -5    0.53    0.12 
  -2  -2   5    0.10    0.12 
  -2  -2   5    0.92    0.30 
   0   2  -5   -0.10    0.13 
   0  -2   5    0.07    0.12 
   0  -2   5    0.19    0.19 
  -1   2  -5   48.70    2.73 
   1  -2   5   46.99    2.71 
  -2   2  -5   28.69    1.70 
   2  -2   5   29.76    1.72 
  -3   2  -5   42.06    2.45 
   3  -2   5   42.80    2.48 
  -4   2  -5   40.79    2.39 
  -5   2  -5    0.10    0.27 
  -6   2  -5    3.00    0.43 
  -7   2  -5    2.09    0.43 
  -7  -1   5   -0.01    0.58 
  -6  -1   5    0.13    0.41 
  -5  -1   5    9.63    0.88 
   4   1  -5   79.44    4.74 
  -4  -1   5   85.82    4.60 
  -4  -1   5   84.72    5.57 
   3   1  -5   25.54    1.40 
  -3  -1   5   21.29    1.65 
   2   1  -5  124.75    7.23 
  -2  -1   5  131.29    7.08 
  -2  -1   5  131.33    8.48 
   1   1  -5    1.55    0.17 
  -1  -1   5    1.68    0.24 
  -1  -1   5    1.77    0.18 
   0   1  -5   10.51    0.66 
   0  -1   5   10.93    0.69 
   0  -1   5   11.96    0.80 
  -1   1  -5   82.06    4.58 
   1  -1   5   78.53    5.34 
   1  -1   5   84.14    4.54 
   2  -1   5   51.30    2.98 
   2  -1   5   53.61    3.00 
   3  -1   5  101.10    5.66 
   3  -1   5  100.95    5.72 
   4  -1   5    0.12    0.27 
   4  -1   5    0.47    0.22 
   5  -1   5   14.67    1.01 
   6  -1   5    0.03    0.30 
   7  -1   5    0.41    0.38 
  -7   0   5    0.46    0.43 
  -6   0   5    4.53    0.59 
   5   0  -5   15.33    1.05 
  -5   0   5   17.07    1.00 
  -5   0   5   16.66    1.27 
   4   0  -5   17.41    1.08 
  -4   0   5   17.61    1.31 
  -4   0   5   17.95    1.04 
   3   0  -5  115.65    6.49 
  -3   0   5  115.61    6.36 
   2   0  -5    4.14    0.27 
  -2   0   5    4.27    0.30 
   1   0  -5   66.33    3.73 
  -1   0   5   66.62    3.67 
   0   0  -5  103.21    5.87 
   0   0   5  107.18    5.80 
   1   0   5    4.02    0.37 
   1   0   5    4.26    0.30 
   1   0   5    3.99    0.30 
   2   0   5  226.79   12.77 
   2   0   5  237.58   13.00 
   3   0   5    0.77    0.25 
   3   0   5    0.54    0.19 
   4   0   5   45.96    2.77 
   4   0   5   49.04    2.77 
   5   0   5    0.25    0.27 
   6   0   5    0.45    0.32 
   7   0   5    0.17    0.38 
  -7   1   5    1.03    0.45 
  -6   1   5   -0.06    0.34 
  -6   1   5    0.32    0.23 
  -5   1   5    2.31    0.28 
   4  -1  -5   24.69    1.51 
  -4   1   5   27.23    1.50 
  -3   1   5    0.18    0.08 
  -3   1   5    0.27    0.14 
  -2   1   5  134.29    7.37 
   0   1   5   28.79    1.58 
   0   1   5   26.83    1.57 
   1   1   5  453.25   24.92 
   1   1   5  440.29   24.44 
   2   1   5    0.02    0.19 
   2   1   5   -0.04    0.11 
   3   1   5   52.93    3.00 
   3   1   5   50.85    2.98 
   4   1   5   15.57    0.95 
   4   1   5   12.63    0.96 
   5   1   5   17.95    1.19 
   6   1   5    3.22    0.47 
  -7   2   5   -0.25    0.40 
  -6   2   5    0.57    0.24 
  -5   2   5    2.90    0.32 
  -4   2   5    1.50    0.23 
  -4   2   5    1.20    0.17 
  -3   2   5   50.81    2.89 
  -3   2   5   51.37    2.87 
  -2   2   5  179.69    9.90 
  -2   2   5  174.57    9.72 
  -1   2   5    1.18    0.12 
  -1   2   5    1.59    0.18 
   0   2   5  353.77   19.34 
   1   2   5   13.75    0.87 
   1   2   5   13.90    0.85 
   2   2   5   18.88    1.14 
   2   2   5   18.49    1.18 
   3   2   5   56.50    3.13 
   3   2   5   51.27    3.08 
   4   2   5   53.69    3.16 
   4   2   5   54.24    3.10 
   5   2   5    2.77    0.42 
   6   2   5   -0.05    0.34 
  -7   3   5   -0.05    0.29 
  -6   3   5    2.59    0.35 
  -5   3   5    0.08    0.22 
  -4   3   5   15.26    0.94 
  -4   3   5   14.69    0.95 
  -3   3   5   38.67    2.30 
  -3   3   5   41.53    2.28 
  -2   3   5    1.75    0.23 
  -2   3   5    1.25    0.19 
  -1   3   5  176.49   10.04 
  -1   3   5  182.59    9.86 
   0   3   5    0.16    0.16 
   0   3   5    0.34    0.13 
   1   3   5   23.70    1.47 
   1   3   5   25.92    1.47 
   2   3   5   58.67    3.50 
   2   3   5   64.61    3.55 
   3   3   5   24.27    1.51 
   4   3   5    3.51    0.42 
   5   3   5    0.56    0.36 
  -7   4   5    1.54    0.40 
  -6   4   5   -0.01    0.28 
  -5   4   5    2.43    0.36 
  -4   4   5    0.65    0.24 
  -4   4   5    0.77    0.25 
  -3   4   5    1.05    0.23 
  -3   4   5    0.84    0.25 
  -2   4   5   66.72    3.72 
  -2   4   5   63.72    3.66 
  -1   4   5   27.98    1.56 
  -1   4   5   25.23    1.56 
   0   4   5   56.06    3.19 
   0   4   5   55.16    3.12 
   1   4   5   88.86    5.18 
   1   4   5   97.19    5.29 
   2   4   5    6.59    0.56 
   3   4   5    5.82    0.55 
   4   4   5    0.27    0.30 
   5   4   5    1.33    0.43 
  -7   5   5    0.12    0.37 
  -6   5   5   -0.07    0.32 
  -5   5   5   -0.06    0.27 
  -4   5   5    0.52    0.28 
  -4   5   5    0.29    0.30 
  -3   5   5   14.77    1.01 
  -3   5   5   15.30    1.01 
  -2   5   5   14.78    0.98 
  -2   5   5   15.02    0.99 
  -1   5   5   36.11    2.05 
  -1   5   5   34.41    2.08 
   0   5   5  126.67    6.93 
   0   5   5  118.00    6.76 
   1   5   5   18.72    1.20 
   1   5   5   18.38    1.17 
   2   5   5    8.01    0.69 
   3   5   5    1.42    0.39 
   4   5   5    2.98    0.51 
  -6   6   5    0.63    0.40 
  -5   6   5    0.24    0.36 
  -4   6   5    7.26    0.64 
  -3   6   5    0.16    0.32 
  -3   6   5    0.14    0.33 
  -2   6   5    7.58    0.66 
  -2   6   5    7.08    0.63 
  -1   6   5   53.19    2.97 
  -1   6   5   47.89    2.88 
   0   6   5    9.80    0.67 
   1   6   5   10.21    0.82 
   2   6   5    1.92    0.44 
   3   6   5    8.19    0.79 
  -6   7   5    0.72    0.45 
  -5   7   5    2.32    0.49 
  -4   7   5    0.25    0.41 
  -3   7   5    0.88    0.40 
  -3   7   5    0.74    0.41 
  -2   7   5    1.95    0.44 
  -2   7   5    1.51    0.41 
  -1   7   5    2.00    0.43 
   0   7   5    9.48    0.83 
   1   7   5    1.38    0.45 
   2   7   5    7.56    0.79 
  -4   8   5    0.36    0.46 
  -3   8   5    0.20    0.44 
  -2   8   5   -0.08    0.43 
  -1   8   5    3.49    0.57 
   0   8   5    0.77    0.49 
   0   8  -6    6.71    0.76 
  -1   8  -6    0.07    0.47 
  -2   8  -6    1.10    0.55 
  -3   8  -6    0.46    0.51 
  -4   8  -6    1.98    0.62 
   2   7  -6    0.76    0.48 
  -2  -7   6    0.97    0.51 
   1   7  -6    8.24    0.80 
   0   7  -6    4.05    0.56 
  -1   7  -6   10.74    0.90 
  -2   7  -6    0.70    0.41 
  -3   7  -6    0.52    0.41 
  -4   7  -6    0.03    0.50 
  -5   7  -6    0.54    0.55 
   3   6  -6   -0.24    0.42 
  -3  -6   6   -0.17    0.47 
   2   6  -6   17.70    1.23 
  -2  -6   6   14.87    1.34 
   1   6  -6    0.78    0.41 
  -1  -6   6    1.40    0.50 
   0   6  -6   12.48    0.97 
  -1   6  -6   28.05    1.78 
  -2   6  -6    0.93    0.39 
  -3   6  -6    5.79    0.63 
  -4   6  -6   -0.48    0.35 
  -5   6  -6   -0.04    0.46 
  -6   6  -6    0.14    0.52 
   4   5  -6   -0.21    0.40 
  -4  -5   6    0.27    0.53 
   3   5  -6   25.48    1.72 
  -3  -5   6   26.24    2.00 
   2   5  -6    4.16    0.53 
  -2  -5   6    5.07    0.67 
   1   5  -6    2.92    0.44 
  -1  -5   6    2.42    0.48 
   0   5  -6   83.04    5.19 
   0  -5   6   97.53    6.05 
  -1   5  -6    4.81    0.51 
  -2   5  -6   31.05    1.91 
  -3   5  -6    0.12    0.29 
  -4   5  -6    0.80    0.38 
  -5   5  -6    0.55    0.37 
  -6   5  -6    0.11    0.43 
  -5  -4   6    0.49    0.54 
   4   4  -6    9.50    0.84 
  -4  -4   6    9.54    1.00 
   3   4  -6    1.44    0.38 
  -3  -4   6    1.33    0.47 
   2   4  -6    1.17    0.34 
  -2  -4   6    1.18    0.42 
   1   4  -6   68.88    3.90 
  -1  -4   6   65.76    4.56 
   0   4  -6   15.94    0.99 
   0  -4   6   14.01    0.91 
   0  -4   6   14.12    1.15 
  -1   4  -6   46.97    2.58 
   1  -4   6   40.81    2.98 
  -2   4  -6    7.75    0.62 
  -3   4  -6   15.52    1.04 
  -4   4  -6    5.12    0.51 
  -5   4  -6   -0.22    0.29 
  -6   4  -6    0.34    0.39 
  -7   4  -6    3.44    0.59 
  -6  -3   6    0.52    0.52 
  -5  -3   6    0.77    0.49 
   4   3  -6    7.54    0.64 
  -4  -3   6    6.03    0.74 
   3   3  -6    0.00    0.25 
  -3  -3   6   -0.02    0.35 
   2   3  -6   55.98    3.39 
  -2  -3   6   61.67    4.00 
   1   3  -6   30.67    1.77 
  -1  -3   6   26.07    2.07 
  -1  -3   6   31.27    1.69 
   0   3  -6   57.22    3.24 
   0  -3   6   56.46    3.16 
   0  -3   6   55.29    3.80 
  -1   3  -6   28.83    1.62 
   1  -3   6   24.28    1.88 
   1  -3   6   28.94    1.61 
  -2   3  -6   40.73    2.35 
   2  -3   6   40.13    2.36 
  -3   3  -6   45.95    2.68 
   3  -3   6   46.33    2.70 
  -4   3  -6    0.04    0.24 
  -5   3  -6    2.83    0.40 
  -6   3  -6   -0.02    0.32 
  -7   3  -6    3.07    0.53 
  -6  -2   6    1.70    0.65 
  -5  -2   6    8.25    0.88 
   4   2  -6    0.06    0.10 
  -4  -2   6    0.17    0.34 
   3   2  -6   52.50    3.02 
  -3  -2   6   52.06    3.56 
   2   2  -6   18.24    1.07 
  -2  -2   6   18.23    1.01 
  -2  -2   6   14.55    1.25 
   1   2  -6   82.36    5.13 
  -1  -2   6   99.05    5.02 
   0   2  -6   31.78    1.87 
   0  -2   6   32.67    2.20 
   0  -2   6   32.03    1.84 
  -1   2  -6   84.58    4.82 
   1  -2   6   87.23    4.77 
   1  -2   6   84.62    5.64 
  -2   2  -6  112.22    6.41 
   2  -2   6  115.61    6.34 
  -3   2  -6    0.44    0.18 
   3  -2   6    0.64    0.25 
  -4   2  -6   26.78    1.61 
   4  -2   6   25.70    1.66 
  -5   2  -6    0.58    0.28 
  -6   2  -6    0.25    0.31 
  -7   2  -6   -0.31    0.36 
  -7  -1   6    2.72    0.63 
  -6  -1   6   -0.06    0.44 
  -5  -1   6    0.25    0.35 
   4   1  -6   17.55    1.11 
  -4  -1   6   18.09    1.35 
   3   1  -6    0.08    0.14 
  -3  -1   6    0.27    0.27 
  -3  -1   6    0.16    0.13 
   2   1  -6   83.50    4.82 
  -2  -1   6   87.90    5.68 
  -2  -1   6   85.89    4.73 
   1   1  -6   60.53    3.78 
  -1  -1   6   71.51    3.73 
  -1  -1   6   69.46    4.44 
   0   1  -6  111.94    6.34 
   0  -1   6  116.66    7.42 
   0  -1   6  110.77    6.25 
  -1   1  -6  150.09    8.55 
   1  -1   6  153.53    9.98 
   1  -1   6  154.70    8.43 
   2  -1   6    0.24    0.14 
   2  -1   6   -0.07    0.19 
   3  -1   6   61.92    3.45 
   3  -1   6   58.50    3.44 
   4  -1   6    8.05    0.65 
   4  -1   6    9.92    0.76 
   5  -1   6    0.35    0.25 
   6  -1   6    3.40    0.47 
   7  -1   6   -0.08    0.35 
  -7   0   6    0.87    0.48 
  -6   0   6   -0.13    0.38 
  -5   0   6    4.45    0.38 
  -5   0   6    4.35    0.55 
   4   0  -6    2.79    0.26 
  -4   0   6    2.22    0.37 
  -4   0   6    2.76    0.27 
   3   0  -6   17.55    1.03 
  -3   0   6   17.63    1.03 
   2   0  -6  115.10    6.34 
  -2   0   6  111.72    6.23 
  -1   0   6   68.60    3.80 
   0   0  -6  324.40   18.50 
   0   0   6  339.71   18.17 
   1   0   6   91.94    5.18 
   1   0   6   94.87    5.24 
   1   0   6   92.53    6.08 
   2   0   6   89.68    5.10 
   2   0   6   90.69    5.05 
   3   0   6   64.95    3.75 
   3   0   6   65.90    3.74 
   4   0   6   20.97    1.38 
   4   0   6   20.90    1.31 
   5   0   6   21.77    1.40 
   6   0   6   -0.25    0.31 
   7   0   6    0.68    0.40 
  -7   1   6   -0.34    0.41 
  -6   1   6    4.06    0.56 
  -5   1   6    4.15    0.37 
  -4   1   6    9.08    0.62 
  -3   1   6   63.31    3.26 
  -3   1   6   54.28    3.27 
  -2   1   6    5.61    0.40 
  -1   1   6  221.31   12.12 
   0   1   6  137.26    7.50 
   0   1   6  135.01    7.61 
   1   1   6  135.02    7.51 
   1   1   6  136.57    7.62 
   2   1   6   40.06    2.32 
   2   1   6   40.19    2.34 
   3   1   6   59.78    3.43 
   3   1   6   59.80    3.44 
   4   1   6   31.35    1.90 
   4   1   6   31.81    1.93 
   5   1   6    1.36    0.38 
   5   1   6    1.03    0.34 
   6   1   6    2.16    0.43 
  -7   2   6    3.02    0.58 
  -6   2   6    0.96    0.28 
  -5   2   6    9.43    0.68 
  -4   2   6   18.68    1.14 
  -3   2   6    1.21    0.15 
  -3   2   6    0.94    0.21 
  -2   2   6   96.49    5.31 
  -2   2   6   95.48    5.36 
  -1   2   6    0.30    0.09 
  -1   2   6    0.83    0.17 
   0   2   6  129.23    7.19 
   0   2   6  127.25    7.07 
   1   2   6   17.40    1.08 
   1   2   6   18.76    1.12 
   2   2   6   50.55    2.82 
   2   2   6   46.64    2.81 
   3   2   6   19.19    1.17 
   3   2   6   17.55    1.20 
   4   2   6    1.68    0.31 
   4   2   6    1.67    0.34 
   5   2   6    1.76    0.39 
   6   2   6    0.50    0.38 
  -7   3   6    0.21    0.33 
  -6   3   6    0.96    0.29 
  -5   3   6    6.54    0.54 
  -4   3   6    5.56    0.47 
  -3   3   6   54.55    3.10 
  -3   3   6   55.16    3.12 
  -2   3   6   13.41    0.90 
  -2   3   6   15.09    0.86 
  -1   3   6   41.65    2.29 
  -1   3   6   38.40    2.26 
   0   3   6   90.27    5.15 
   0   3   6   92.39    5.06 
   1   3   6   40.81    2.29 
   1   3   6   38.22    2.29 
   2   3   6   13.13    0.86 
   3   3   6   -0.19    0.22 
   3   3   6    0.33    0.26 
   4   3   6    7.40    0.65 
   5   3   6    5.13    0.58 
  -7   4   6    1.03    0.36 
  -6   4   6    1.25    0.34 
  -5   4   6    0.77    0.29 
  -4   4   6   43.75    2.53 
  -3   4   6    3.43    0.34 
  -3   4   6    2.83    0.36 
  -2   4   6   29.52    1.64 
  -2   4   6   25.74    1.62 
  -1   4   6   89.07    4.88 
  -1   4   6   86.59    4.96 
   0   4   6   36.37    2.07 
   0   4   6   34.24    2.03 
   1   4   6   18.98    1.16 
   1   4   6   17.27    1.13 
   2   4   6    2.14    0.33 
   2   4   6    1.56    0.34 
   3   4   6   28.29    1.75 
   4   4   6    4.31    0.51 
   5   4   6    0.72    0.42 
  -7   5   6   -0.11    0.36 
  -6   5   6    0.17    0.33 
  -5   5   6   13.98    0.99 
  -4   5   6    0.71    0.33 
  -3   5   6   32.82    1.94 
  -3   5   6   31.74    1.93 
  -2   5   6   13.56    0.93 
  -2   5   6   14.13    0.92 
  -1   5   6   15.89    1.02 
  -1   5   6   16.05    1.01 
   0   5   6   15.93    1.07 
   0   5   6   16.97    1.05 
   1   5   6    4.31    0.48 
   1   5   6    3.33    0.40 
   2   5   6   32.28    1.99 
   3   5   6    2.32    0.44 
   4   5   6    1.10    0.43 
  -6   6   6    0.88    0.42 
  -5   6   6   -0.21    0.37 
  -4   6   6    8.44    0.74 
  -3   6   6    0.68    0.33 
  -2   6   6    2.63    0.40 
  -2   6   6    2.51    0.41 
  -1   6   6   13.84    0.92 
  -1   6   6   13.56    0.95 
   0   6   6    0.89    0.33 
   0   6   6    0.69    0.33 
   1   6   6    4.54    0.51 
   2   6   6    5.11    0.58 
   3   6   6    1.17    0.45 
  -5   7   6    0.34    0.46 
  -4   7   6    2.31    0.51 
  -3   7   6    0.78    0.41 
  -2   7   6   13.40    0.97 
  -2   7   6   11.51    0.95 
  -1   7   6    0.23    0.34 
  -1   7   6   -0.55    0.40 
   0   7   6    0.19    0.37 
   1   7   6    7.52    0.74 
   2   7   6    0.40    0.45 
  -4   8   6    2.07    0.54 
  -3   8   6    1.17    0.47 
  -1   8   6    2.10    0.50 
   0   8   6    2.05    0.56 
   0   8  -7    1.02    0.50 
  -1   8  -7    0.23    0.44 
  -2   8  -7   -0.26    0.45 
  -3   8  -7    1.71    0.54 
   2   7  -7    0.60    0.45 
  -2  -7   7    0.22    0.53 
   1   7  -7    0.78    0.46 
   0   7  -7    3.09    0.55 
  -1   7  -7    0.69    0.47 
  -2   7  -7    8.96    0.83 
  -3   7  -7    0.83    0.48 
  -4   7  -7    1.86    0.57 
  -5   7  -7    0.50    0.57 
   3   6  -7    1.15    0.49 
  -3  -6   7    0.32    0.53 
   2   6  -7    1.70    0.48 
  -2  -6   7    0.60    0.48 
   1   6  -7    7.29    0.73 
  -1  -6   7    8.12    0.87 
   0   6  -7    0.96    0.40 
   0  -6   7    0.61    0.41 
  -1   6  -7    7.26    0.68 
  -2   6  -7    0.10    0.34 
  -3   6  -7    6.25    0.64 
  -4   6  -7    1.71    0.50 
  -5   6  -7    1.34    0.52 
  -6   6  -7    0.38    0.54 
   4   5  -7   -0.40    0.47 
  -4  -5   7    0.24    0.56 
   3   5  -7    1.14    0.44 
  -3  -5   7    1.79    0.58 
   2   5  -7   11.61    0.98 
  -2  -5   7   13.10    1.12 
   1   5  -7    8.20    0.71 
  -1  -5   7    6.81    0.76 
   0   5  -7    8.82    0.73 
   0  -5   7    7.91    0.81 
   0  -5   7    7.95    0.81 
  -1   5  -7    2.54    0.41 
  -2   5  -7    4.24    0.50 
  -3   5  -7   13.64    1.00 
  -4   5  -7    4.26    0.55 
  -5   5  -7    3.60    0.54 
  -6   5  -7    0.19    0.46 
  -5  -4   7    0.11    0.54 
   4   4  -7    0.65    0.41 
  -4  -4   7    0.51    0.51 
   3   4  -7   10.14    0.86 
  -3  -4   7   11.23    1.05 
   2   4  -7    6.47    0.58 
  -2  -4   7    6.05    0.71 
   1   4  -7   31.61    1.89 
  -1  -4   7   30.09    2.22 
   0   4  -7   16.26    1.04 
   0  -4   7   15.31    1.23 
   0  -4   7   14.95    0.98 
  -1   4  -7    8.08    0.64 
   1  -4   7    7.37    0.61 
   1  -4   7    8.91    0.77 
  -2   4  -7   38.89    2.32 
   2  -4   7   39.45    2.31 
  -3   4  -7    1.60    0.33 
  -4   4  -7   21.69    1.40 
  -5   4  -7    8.83    0.77 
  -6   4  -7    0.61    0.43 
  -5  -3   7    2.61    0.61 
   4   3  -7    3.08    0.43 
  -4  -3   7    2.95    0.58 
   3   3  -7    4.73    0.48 
  -3  -3   7    6.41    0.68 
   2   3  -7   43.78    2.45 
  -2  -3   7   38.95    2.87 
   1   3  -7   54.80    3.19 
  -1  -3   7   55.18    3.09 
  -1  -3   7   55.04    3.74 
   0   3  -7   53.89    3.07 
   0  -3   7   53.67    3.61 
   0  -3   7   52.17    3.01 
  -1   3  -7   67.15    3.84 
   1  -3   7   68.82    3.80 
   1  -3   7   65.72    4.49 
  -2   3  -7    0.78    0.22 
   2  -3   7    0.20    0.23 
  -3   3  -7   42.50    2.49 
   3  -3   7   42.94    2.53 
  -4   3  -7    7.12    0.58 
  -5   3  -7    0.89    0.34 
  -6   3  -7    0.41    0.38 
  -7   3  -7    0.53    0.41 
  -6  -2   7    2.66    0.72 
  -5  -2   7    0.55    0.53 
  -4  -2   7    4.32    0.55 
   3   2  -7    9.65    0.66 
  -3  -2   7    8.48    0.84 
   2   2  -7   45.69    2.62 
  -2  -2   7   47.34    2.55 
  -2  -2   7   42.51    3.08 
   1   2  -7   75.77    4.31 
  -1  -2   7   75.83    4.22 
   0  -2   7  169.74    9.20 
   0  -2   7  164.19   10.94 
  -1   2  -7    6.34    0.46 
   1  -2   7    6.63    0.53 
   1  -2   7    6.77    0.59 
  -2   2  -7   88.92    4.82 
   2  -2   7   81.09    4.79 
  -3   2  -7    1.72    0.24 
   3  -2   7    1.08    0.34 
  -4   2  -7    2.68    0.35 
   4  -2   7    2.08    0.45 
  -5   2  -7    7.29    0.65 
  -6   2  -7    0.33    0.35 
  -7   2  -7    0.16    0.40 
  -6  -1   7    0.41    0.44 
  -5  -1   7   -0.14    0.37 
  -4  -1   7    3.82    0.52 
   3   1  -7    3.02    0.29 
  -3  -1   7    3.40    0.29 
  -3  -1   7    3.69    0.45 
   2   1  -7   25.61    1.47 
  -2  -1   7   25.64    1.46 
  -2  -1   7   24.49    1.77 
   1   1  -7  204.65   12.22 
  -1  -1   7  222.13   11.99 
  -1  -1   7  229.56   14.30 
   0   1  -7   16.89    0.97 
   0  -1   7   15.17    1.15 
   0  -1   7   17.07    1.01 
  -1   1  -7  309.22   17.30 
   1  -1   7  309.74   17.00 
   1  -1   7  310.53   20.19 
  -2   1  -7   22.40    1.33 
   2  -1   7   22.25    1.38 
   3  -1   7   26.14    1.58 
   3  -1   7   23.84    1.49 
   4  -1   7   27.53    1.71 
   4  -1   7   28.68    1.79 
   5  -1   7    3.75    0.44 
   6  -1   7    0.26    0.33 
  -7   0   7    0.61    0.53 
  -6   0   7    1.60    0.47 
  -5   0   7    3.56    0.51 
  -4   0   7    0.57    0.19 
  -4   0   7    0.13    0.27 
  -3   0   7    4.56    0.54 
  -3   0   7    6.84    0.43 
  -2   0   7   74.72    4.14 
   1   0  -7    1.46    0.14 
  -1   0   7    2.38    0.25 
   0   0  -7  486.43   28.10 
   0   0   7  522.80   27.58 
   1   0   7   24.24    1.47 
   1   0   7   24.85    1.63 
   1   0   7   23.96    1.42 
   2   0   7  113.35    6.22 
   2   0   7  109.43    6.27 
   3   0   7   40.04    2.34 
   3   0   7   38.23    2.28 
   4   0   7   22.87    1.52 
   4   0   7   22.98    1.43 
   5   0   7    0.04    0.37 
   5   0   7    0.39    0.29 
   6   0   7    0.47    0.36 
  -7   1   7    0.06    0.45 
  -6   1   7    1.25    0.44 
  -5   1   7    0.85    0.26 
  -4   1   7    1.80    0.26 
  -3   1   7   28.26    1.63 
  -2   1   7    0.77    0.18 
  -1   1   7  215.65   11.82 
   0   1   7   32.99    1.86 
   0   1   7   32.29    1.88 
   1   1   7  143.67    7.81 
   1   1   7  138.54    7.91 
   2   1   7   56.79    3.33 
   2   1   7   60.02    3.35 
   3   1   7   31.54    1.93 
   3   1   7   31.38    1.88 
   4   1   7    1.41    0.28 
   4   1   7    0.79    0.35 
   5   1   7    5.83    0.65 
   5   1   7    6.45    0.60 
   6   1   7    0.71    0.39 
  -7   2   7   -0.07    0.45 
  -6   2   7    0.88    0.31 
  -5   2   7    0.01    0.24 
  -4   2   7   21.74    1.31 
  -3   2   7    2.66    0.29 
  -2   2   7   63.77    3.56 
  -1   2   7   46.04    2.58 
  -1   2   7   45.41    2.58 
   0   2   7  118.72    6.78 
   0   2   7  123.53    6.69 
   1   2   7   86.61    4.84 
   1   2   7   86.32    4.89 
   2   2   7    4.30    0.48 
   2   2   7    4.85    0.42 
   3   2   7   18.42    1.19 
   3   2   7   19.31    1.26 
   4   2   7   11.34    0.85 
   4   2   7   12.35    0.92 
   5   2   7    0.45    0.33 
   6   2   7    0.64    0.41 
  -7   3   7   -0.14    0.34 
  -6   3   7    0.11    0.29 
  -5   3   7    8.17    0.65 
  -4   3   7   10.93    0.76 
  -3   3   7   38.55    2.21 
  -2   3   7   18.83    1.12 
  -2   3   7   18.16    1.07 
  -1   3   7   93.78    5.52 
  -1   3   7  103.04    5.44 
   0   3   7   71.28    3.98 
   0   3   7   68.87    3.93 
   1   3   7    0.36    0.25 
   1   3   7    0.17    0.17 
   2   3   7   96.65    5.59 
   2   3   7  102.06    5.66 
   3   3   7    7.27    0.59 
   4   3   7    1.57    0.36 
   5   3   7    3.90    0.51 
  -7   4   7    0.05    0.36 
  -6   4   7    0.55    0.35 
  -5   4   7    4.58    0.49 
  -4   4   7   17.26    1.11 
  -3   4   7    4.67    0.45 
  -2   4   7   22.37    1.31 
  -2   4   7   21.65    1.34 
  -1   4   7   72.83    4.52 
  -1   4   7   87.19    4.45 
   0   4   7   11.25    0.77 
   0   4   7   11.02    0.74 
   1   4   7   60.60    3.41 
   1   4   7   59.02    3.44 
   2   4   7    4.86    0.47 
   3   4   7    8.38    0.70 
   4   4   7    5.52    0.59 
  -6   5   7   -0.10    0.37 
  -5   5   7    2.18    0.40 
  -4   5   7    1.86    0.37 
  -3   5   7    0.54    0.31 
  -2   5   7   73.75    3.92 
  -2   5   7   63.10    3.87 
  -1   5   7   28.28    1.49 
  -1   5   7   21.38    1.48 
   0   5   7    4.35    0.44 
   0   5   7    4.64    0.48 
   1   5   7    3.41    0.42 
   1   5   7    4.30    0.47 
   2   5   7    9.68    0.79 
   3   5   7    4.17    0.53 
   4   5   7    0.07    0.39 
  -6   6   7    0.00    0.44 
  -5   6   7    3.27    0.52 
  -4   6   7    0.65    0.40 
  -3   6   7   20.56    1.35 
  -2   6   7    0.46    0.34 
  -1   6   7    2.17    0.37 
  -1   6   7    2.22    0.42 
   0   6   7    3.09    0.46 
   0   6   7    2.96    0.42 
   1   6   7    4.57    0.53 
   2   6   7    4.24    0.57 
   3   6   7    1.25    0.42 
  -5   7   7    0.61    0.49 
  -4   7   7    2.57    0.53 
  -3   7   7    1.94    0.46 
  -2   7   7    5.15    0.58 
  -1   7   7    2.85    0.47 
  -1   7   7    3.09    0.48 
   0   7   7    1.70    0.44 
   1   7   7    5.29    0.63 
  -3   8   7    1.38    0.50 
  -1   8  -8    3.40    0.61 
  -2   8  -8    0.06    0.51 
   1   7  -8    2.78    0.54 
  -1  -7   8    2.72    0.60 
   0   7  -8    3.53    0.54 
  -1   7  -8    3.45    0.58 
  -2   7  -8    0.66    0.45 
  -3   7  -8    2.85    0.59 
  -4   7  -8   -0.05    0.50 
   3   6  -8    2.01    0.57 
  -3  -6   8    2.08    0.65 
   2   6  -8    1.30    0.46 
  -2  -6   8    2.29    0.59 
   1   6  -8    7.93    0.71 
  -1  -6   8    5.76    0.78 
   0   6  -8    3.43    0.48 
   0  -6   8    2.64    0.53 
  -1   6  -8    0.74    0.39 
  -2   6  -8    5.17    0.60 
  -3   6  -8    0.48    0.43 
  -4   6  -8    8.99    0.84 
  -5   6  -8   -0.03    0.48 
  -4  -5   8    1.96    0.67 
   3   5  -8   -0.03    0.38 
  -3  -5   8    0.61    0.55 
  -2  -5   8    9.58    1.01 
   1   5  -8    0.78    0.35 
  -1  -5   8    0.43    0.42 
   0   5  -8    8.46    0.68 
   0  -5   8    5.89    0.71 
  -1   5  -8    7.03    0.62 
  -2   5  -8    3.81    0.48 
  -3   5  -8   18.73    1.28 
  -4   5  -8    0.85    0.41 
  -5   5  -8    3.01    0.50 
  -6   5  -8    0.12    0.45 
  -5  -4   8    2.07    0.67 
  -4  -4   8    1.37    0.59 
   3   4  -8    8.87    0.77 
  -3  -4   8    7.97    0.91 
   2   4  -8    7.92    0.71 
  -2  -4   8    8.89    0.90 
   1   4  -8   19.47    1.24 
  -1  -4   8   18.00    1.47 
   0   4  -8   14.86    1.00 
   0  -4   8   14.34    0.95 
   0  -4   8   13.73    1.19 
  -1   4  -8   12.28    0.85 
   1  -4   8   11.87    0.85 
  -2   4  -8   23.35    1.54 
   2  -4   8   26.54    1.56 
  -3   4  -8    0.97    0.32 
  -4   4  -8    2.90    0.42 
  -5   4  -8    4.40    0.54 
  -6   4  -8    2.01    0.45 
  -5  -3   8    0.33    0.51 
  -4  -3   8   12.07    1.13 
   3   3  -8    1.04    0.30 
  -3  -3   8    1.26    0.46 
   2   3  -8   16.55    1.13 
  -2  -3   8   18.53    1.38 
  -1  -3   8   25.76    1.48 
  -1  -3   8   23.88    1.81 
   0   3  -8    3.16    0.37 
   0  -3   8    4.06    0.48 
   0  -3   8    3.94    0.38 
  -1   3  -8   65.77    3.45 
   1  -3   8   60.39    4.03 
   1  -3   8   52.99    3.39 
  -2   3  -8   -0.23    0.20 
   2  -3   8    0.04    0.25 
  -3   3  -8    8.55    0.64 
   3  -3   8    8.57    0.76 
  -4   3  -8   21.12    1.28 
   4  -3   8   18.33    1.36 
  -5   3  -8    3.43    0.44 
  -6   3  -8    0.88    0.38 
  -6  -2   8    1.36    0.67 
  -5  -2   8   15.37    1.36 
  -4  -2   8    0.20    0.39 
  -3  -2   8   18.68    1.44 
   2   2  -8   24.34    1.49 
  -2  -2   8   26.71    1.46 
  -2  -2   8   23.16    1.78 
   1   2  -8    0.41    0.21 
  -1  -2   8    0.89    0.32 
  -1  -2   8    0.75    0.21 
   0   2  -8  152.57    8.89 
   0  -2   8  162.11    8.75 
   0  -2   8  160.87   10.40 
  -1   2  -8    9.66    0.67 
   1  -2   8   10.54    0.84 
   1  -2   8   10.67    0.74 
  -2   2  -8   37.64    2.23 
   2  -2   8   39.52    2.28 
  -3   2  -8   48.78    2.84 
   3  -2   8   49.22    2.89 
  -4   2  -8   31.75    1.87 
   4  -2   8   29.70    1.96 
  -5   2  -8    3.53    0.43 
  -6   2  -8    0.43    0.37 
  -6  -1   8    2.66    0.59 
  -5  -1   8    0.59    0.42 
  -4  -1   8   11.39    0.99 
  -3  -1   8   33.92    2.35 
  -3  -1   8   33.29    1.92 
   2   1  -8    2.07    0.20 
  -2  -1   8    2.19    0.35 
  -2  -1   8    2.02    0.27 
   1   1  -8  167.78    9.70 
  -1  -1   8  174.85   11.35 
  -1  -1   8  177.09    9.53 
   0   1  -8   10.10    0.63 
   0  -1   8    9.93    0.70 
   1  -1   8   60.72    4.11 
   1  -1   8   63.91    3.53 
  -2   1  -8   91.86    5.20 
   2  -1   8   92.24    5.18 
   3  -1   8  122.61    6.51 
   3  -1   8  109.27    6.53 
   4  -1   8    1.33    0.27 
   4  -1   8    0.71    0.40 
   5  -1   8    0.99    0.47 
   5  -1   8    1.45    0.34 
   6  -1   8    6.92    0.66 
  -6   0   8    0.06    0.42 
  -5   0   8    2.16    0.46 
  -4   0   8   26.27    2.17 
  -4   0   8   35.08    1.79 
  -3   0   8    5.93    0.59 
  -3   0   8    5.12    0.43 
  -2   0   8   98.79    5.46 
   1   0  -8    4.68    0.33 
  -1   0   8    5.74    0.43 
   0   0  -8   53.59    3.02 
   0   0   8   54.18    3.55 
   0   0   8   52.78    3.03 
   1   0   8   88.04    5.76 
   1   0   8   88.54    4.96 
   1   0   8   87.14    4.93 
   2   0   8   52.22    2.97 
   2   0   8   50.40    2.94 
   3   0   8    6.00    0.50 
   3   0   8    6.24    0.61 
   4   0   8    3.17    0.51 
   4   0   8    1.88    0.33 
   5   0   8    9.82    0.79 
   5   0   8   11.20    0.96 
   6   0   8    0.70    0.38 
  -7   1   8   -0.03    0.51 
  -6   1   8   -0.13    0.40 
  -5   1   8    5.19    0.45 
  -4   1   8    0.78    0.23 
  -2   1   8    5.97    0.46 
  -1   1   8   79.20    4.41 
   0   1   8   81.98    4.72 
   0   1   8   87.26    4.77 
   1   1   8    1.84    0.21 
   1   1   8    1.62    0.28 
   2   1   8   78.25    4.45 
   2   1   8   78.31    4.45 
   3   1   8    4.63    0.43 
   3   1   8    5.08    0.55 
   4   1   8    9.14    0.73 
   4   1   8    9.78    0.85 
   5   1   8   -0.15    0.39 
   5   1   8    0.41    0.30 
   6   1   8    0.09    0.37 
  -7   2   8    0.19    0.48 
  -6   2   8    0.86    0.32 
  -5   2   8    0.23    0.25 
  -4   2   8   23.49    1.41 
  -3   2   8    0.87    0.22 
  -2   2   8   67.54    3.76 
  -1   2   8  148.48    8.45 
  -1   2   8  157.97    8.57 
   0   2   8    0.31    0.23 
   0   2   8    0.33    0.13 
   1   2   8  154.59    8.70 
   1   2   8  155.22    8.58 
   2   2   8   12.44    0.91 
   2   2   8   12.10    0.81 
   3   2   8   19.62    1.25 
   3   2   8   19.71    1.33 
   4   2   8    4.69    0.49 
   4   2   8    6.08    0.64 
   5   2   8    2.20    0.44 
  -7   3   8    0.41    0.37 
  -6   3   8    0.08    0.30 
  -5   3   8    8.17    0.66 
  -4   3   8    2.34    0.35 
  -3   3   8    3.18    0.37 
  -1   3   8   47.16    2.67 
  -1   3   8   46.69    2.67 
   0   3   8   79.95    4.47 
   0   3   8   79.61    4.51 
   1   3   8   12.94    0.88 
   1   3   8   11.85    0.81 
   2   3   8   42.27    2.49 
   2   3   8   41.19    2.45 
   3   3   8    9.28    0.85 
   3   3   8   11.00    0.78 
   4   3   8    1.31    0.36 
   5   3   8    1.69    0.43 
  -6   4   8    1.67    0.40 
  -5   4   8    1.00    0.35 
  -4   4   8    0.71    0.31 
  -3   4   8   36.83    2.15 
  -2   4   8   29.07    1.71 
  -1   4   8   13.64    0.91 
  -1   4   8   14.14    0.87 
   0   4   8   11.23    0.76 
   0   4   8   11.36    0.80 
   1   4   8   44.80    2.59 
   1   4   8   43.73    2.59 
   2   4   8   15.05    1.04 
   2   4   8   12.98    0.95 
   3   4   8   -0.40    0.29 
   4   4   8    5.24    0.59 
  -6   5   8    1.21    0.42 
  -5   5   8   -0.10    0.35 
  -4   5   8    1.90    0.38 
  -3   5   8    0.83    0.36 
  -2   5   8    2.52    0.38 
  -1   5   8   13.62    0.92 
  -1   5   8   13.33    0.89 
   0   5   8   22.36    1.43 
   0   5   8   23.46    1.44 
   1   5   8   24.68    1.60 
   1   5   8   26.72    1.63 
   2   5   8   -0.02    0.30 
   3   5   8    8.95    0.80 
  -6   6   8    0.03    0.43 
  -5   6   8    0.77    0.45 
  -4   6   8   -0.07    0.39 
  -3   6   8    1.41    0.42 
  -2   6   8    8.33    0.70 
  -1   6   8    7.61    0.66 
   0   6   8   27.33    1.71 
   1   6   8    0.60    0.34 
   2   6   8    9.06    0.83 
  -5   7   8    0.61    0.50 
  -4   7   8   -0.16    0.45 
  -3   7   8    4.71    0.61 
  -2   7   8    3.58    0.54 
  -1   7   8    7.10    0.69 
   0   7   8    0.60    0.37 
   1   7   8    8.49    0.78 
   1   7  -9    0.24    0.44 
  -1  -7   9    0.12    0.48 
   0   7  -9    1.76    0.49 
  -1   7  -9    4.48    0.64 
  -2   7  -9    3.90    0.58 
  -3   7  -9    0.71    0.48 
  -4   7  -9    0.18    0.52 
  -3  -6   9    0.82    0.61 
   2   6  -9    0.23    0.42 
  -2  -6   9    0.33    0.54 
   1   6  -9    4.43    0.56 
  -1  -6   9    3.67    0.60 
   0   6  -9    7.09    0.71 
   0  -6   9    8.03    0.85 
  -1   6  -9   14.72    1.09 
  -2   6  -9    5.45    0.60 
  -3   6  -9    0.70    0.42 
  -4   6  -9    0.44    0.47 
  -5   6  -9    0.32    0.50 
  -4  -5   9    1.51    0.67 
  -3  -5   9    0.47    0.57 
   2   5  -9    8.06    0.74 
  -2  -5   9    7.07    0.89 
   1   5  -9    6.47    0.61 
  -1  -5   9    5.51    0.75 
   0   5  -9   14.23    0.97 
   0  -5   9   11.80    1.11 
  -1   5  -9   21.54    1.38 
   1  -5   9   20.75    1.60 
  -2   5  -9    1.32    0.37 
  -3   5  -9    3.60    0.48 
  -4   5  -9    0.88    0.40 
  -5   5  -9    0.49    0.43 
  -6   5  -9    0.67    0.48 
  -4  -4   9   -0.17    0.54 
  -3  -4   9    6.10    0.81 
   2   4  -9    3.38    0.46 
  -2  -4   9    4.73    0.65 
   1   4  -9    4.54    0.47 
  -1  -4   9    4.66    0.63 
   0   4  -9   47.41    2.77 
   0  -4   9   45.70    2.72 
   0  -4   9   48.41    3.28 
  -1   4  -9    0.41    0.27 
   1  -4   9    0.29    0.28 
   1  -4   9   -0.01    0.26 
  -2   4  -9   23.27    1.48 
   2  -4   9   23.73    1.51 
  -3   4  -9    5.11    0.51 
   3  -4   9    4.33    0.55 
  -4   4  -9    0.77    0.35 
  -5   4  -9    1.74    0.43 
  -6   4  -9    0.40    0.42 
  -5  -3   9    0.15    0.54 
  -4  -3   9    0.84    0.51 
  -3  -3   9   10.46    1.01 
   2   3  -9    1.69    0.31 
  -2  -3   9    2.03    0.47 
   1   3  -9   70.46    3.90 
  -1  -3   9   67.76    3.81 
  -1  -3   9   64.77    4.57 
   0   3  -9    0.85    0.24 
   0  -3   9    1.35    0.28 
   0  -3   9    0.86    0.34 
  -1   3  -9   50.57    3.00 
   1  -3   9   53.34    3.00 
  -2   3  -9   31.86    1.91 
   2  -3   9   32.36    1.96 
  -3   3  -9   37.44    2.26 
   3  -3   9   38.88    2.33 
  -4   3  -9    4.26    0.45 
   4  -3   9    3.75    0.57 
  -6   3  -9    0.78    0.42 
  -6  -2   9   -0.03    0.67 
  -5  -2   9    0.00    0.52 
  -5  -2   9   -0.04    0.52 
  -4  -2   9   18.79    1.47 
  -3  -2   9    0.95    0.40 
  -2  -2   9   67.00    3.53 
  -2  -2   9   58.39    4.23 
   1   2  -9    8.55    0.61 
  -1  -2   9    7.08    0.60 
  -1  -2   9   10.00    0.79 
   0   2  -9   76.29    4.21 
   0  -2   9   76.01    4.17 
   0  -2   9   69.92    4.92 
  -1   2  -9   27.05    1.61 
   1  -2   9   27.57    1.66 
   1  -2   9   27.40    1.92 
  -2   2  -9  100.94    5.79 
   2  -2   9  104.16    5.77 
  -3   2  -9    8.35    0.63 
   3  -2   9    8.48    0.75 
  -4   2  -9    2.67    0.37 
   4  -2   9    3.66    0.54 
  -5   2  -9   13.71    1.02 
   5  -2   9   15.61    1.23 
  -6   2  -9    0.31    0.38 
  -6  -1   9    0.12    0.50 
  -5  -1   9   10.55    1.01 
  -4  -1   9    0.06    0.35 
  -3  -1   9   44.55    3.06 
  -3  -1   9   44.54    2.53 
  -2  -1   9   -0.02    0.21 
  -2  -1   9   -0.01    0.26 
   1   1  -9  100.36    5.59 
  -1  -1   9   97.05    5.51 
  -1  -1   9  100.27    6.56 
   0   1  -9    1.58    0.19 
   0  -1   9    1.68    0.29 
   1  -1   9   31.33    1.89 
   1  -1   9   31.91    2.14 
  -2   1  -9   23.17    1.44 
   2  -1   9   26.09    1.55 
  -3   1  -9    0.03    0.21 
   3  -1   9    0.15    0.33 
   4  -1   9   17.19    1.22 
   4  -1   9   15.02    1.04 
   5  -1   9   -0.03    0.25 
   5  -1   9   -0.01    0.46 
   6  -1   9   -0.02    0.34 
  -6   0   9    1.73    0.52 
  -5   0   9   -0.09    0.38 
  -4   0   9   23.41    1.34 
  -4   0   9   21.51    1.64 
  -3   0   9    6.84    0.68 
  -3   0   9    7.50    0.55 
  -2   0   9   70.07    4.37 
  -2   0   9   60.73    3.65 
  -1   0   9   17.73    1.14 
  -1   0   9   19.55    1.34 
   0   0  -9    1.55    0.16 
   0   0   9    1.82    0.29 
   0   0   9    2.01    0.25 
   1   0   9   71.19    3.99 
   1   0   9   68.96    4.62 
   1   0   9   70.90    3.98 
   2   0   9    0.06    0.16 
   2   0   9    0.00    0.28 
   3   0   9   13.17    0.98 
   3   0   9   12.70    0.86 
   4   0   9    9.33    0.75 
   4   0   9   11.28    0.94 
   5   0   9    1.16    0.35 
   5   0   9    1.22    0.51 
   6   0   9    1.81    0.44 
  -6   1   9    0.10    0.44 
  -5   1   9   13.85    0.91 
  -5   1   9   13.45    1.11 
  -4   1   9    0.83    0.24 
  -3   1   9   20.34    1.22 
  -2   1   9  122.08    6.75 
  -1   1   9   32.04    1.87 
   0   1   9   92.23    5.48 
   0   1   9  104.43    5.54 
   1   1   9    0.20    0.15 
   1   1   9    0.26    0.24 
   2   1   9   33.30    2.04 
   2   1   9   33.44    1.97 
   3   1   9   27.90    1.73 
   3   1   9   29.95    1.84 
   4   1   9    4.50    0.63 
   4   1   9    4.87    0.49 
   5   1   9    9.15    0.79 
   5   1   9    9.31    0.92 
  -6   2   9    5.28    0.51 
  -5   2   9    0.07    0.27 
  -4   2   9    6.44    0.54 
  -2   2   9   54.45    3.07 
  -1   2   9   51.30    2.91 
   0   2   9    1.06    0.16 
   0   2   9    0.64    0.27 
   1   2   9   61.57    3.57 
   1   2   9   64.12    3.58 
   2   2   9   18.48    1.14 
   2   2   9   17.63    1.23 
   3   2   9    4.65    0.45 
   3   2   9    4.45    0.58 
   4   2   9   20.99    1.47 
   4   2   9   21.05    1.37 
   5   2   9    0.11    0.35 
  -6   3   9    0.01    0.32 
  -5   3   9    2.59    0.40 
  -4   3   9   10.00    0.74 
  -3   3   9   30.79    1.82 
  -2   3   9   15.51    0.98 
  -1   3   9    3.68    0.40 
   0   3   9   31.64    1.92 
   0   3   9   33.38    1.90 
   1   3   9   24.36    1.53 
   1   3   9   24.73    1.49 
   2   3   9    1.91    0.32 
   2   3   9    2.46    0.47 
   3   3   9   19.94    1.29 
   3   3   9   19.68    1.38 
   4   3   9    0.19    0.32 
   5   3   9    4.75    0.60 
  -6   4   9    0.53    0.37 
  -5   4   9    1.72    0.40 
  -4   4   9    6.17    0.57 
  -3   4   9    6.64    0.57 
  -2   4   9    8.38    0.66 
  -1   4   9    5.65    0.52 
   0   4   9   41.18    2.40 
   1   4   9    1.29    0.37 
   1   4   9    1.04    0.27 
   2   4   9   19.81    1.37 
   2   4   9   19.66    1.28 
   3   4   9   -0.15    0.30 
   4   4   9    5.14    0.60 
  -6   5   9    1.02    0.44 
  -5   5   9    1.39    0.43 
  -4   5   9    4.42    0.54 
  -3   5   9    5.09    0.54 
  -2   5   9   10.48    0.77 
  -1   5   9   26.48    1.63 
   0   5   9    0.60    0.26 
   0   5   9    0.39    0.38 
   1   5   9   28.09    1.74 
   1   5   9   28.07    1.78 
   2   5   9    0.64    0.34 
   3   5   9    5.26    0.60 
  -5   6   9    0.97    0.46 
  -4   6   9    1.13    0.45 
  -3   6   9   13.29    1.00 
  -2   6   9    1.33    0.44 
  -1   6   9    0.33    0.41 
   0   6   9   24.22    1.61 
   1   6   9    2.84    0.45 
   2   6   9    4.40    0.58 
  -4   7   9    1.35    0.52 
  -3   7   9   -0.01    0.42 
  -2   7   9    0.07    0.44 
  -1   7   9    6.65    0.70 
   0   7 -10    1.07    0.45 
  -1   7 -10    3.18    0.59 
  -2   7 -10    0.23    0.46 
  -3   7 -10    3.18    0.62 
  -2  -6  10   -0.37    0.52 
   1   6 -10    0.55    0.39 
  -1  -6  10    0.62    0.51 
   0   6 -10    8.42    0.78 
   0  -6  10   10.27    1.01 
  -1   6 -10    0.80    0.40 
  -2   6 -10   11.13    0.94 
  -3   6 -10    0.73    0.47 
  -4   6 -10   -0.08    0.48 
  -3  -5  10   -0.29    0.56 
  -2  -5  10    0.76    0.55 
   1   5 -10   15.11    1.09 
  -1  -5  10   15.56    1.35 
   0   5 -10    0.13    0.33 
   0  -5  10    0.17    0.43 
  -1   5 -10   19.84    1.32 
   1  -5  10   18.74    1.54 
   1  -5  10   21.42    1.34 
  -2   5 -10    3.29    0.48 
  -3   5 -10    5.40    0.60 
  -4   5 -10    0.43    0.44 
  -5   5 -10    1.14    0.47 
  -4  -4  10    0.94    0.62 
  -3  -4  10    0.23    0.53 
  -2  -4  10   20.39    1.65 
   1   4 -10    0.70    0.29 
  -1  -4  10    0.30    0.41 
   0   4 -10   40.17    2.36 
   0  -4  10   40.12    2.34 
   0  -4  10   38.48    2.80 
  -1   4 -10   15.35    1.05 
   1  -4  10   16.35    1.08 
   1  -4  10   14.93    1.24 
  -2   4 -10   25.96    1.65 
   2  -4  10   27.15    1.69 
  -3   4 -10    6.58    0.61 
   3  -4  10    7.10    0.71 
  -4   4 -10    0.35    0.35 
  -5   4 -10    1.15    0.41 
  -6   4 -10    0.86    0.46 
  -5  -3  10    1.05    0.59 
  -4  -3  10   -0.10    0.49 
  -3  -3  10   10.32    1.01 
  -2  -3  10    0.21    0.40 
   1   3 -10   78.29    4.20 
  -1  -3  10   68.83    4.11 
  -1  -3  10   71.58    4.92 
   0  -3  10    7.32    0.65 
   0  -3  10    9.06    0.82 
  -1   3 -10   43.71    2.53 
   1  -3  10   42.27    2.98 
   1  -3  10   43.91    2.55 
  -2   3 -10   23.64    1.48 
   2  -3  10   24.33    1.55 
  -3   3 -10    1.60    0.33 
   3  -3  10    2.77    0.49 
  -4   3 -10   10.94    0.84 
   4  -3  10   11.69    0.98 
  -5   3 -10    0.30    0.30 
  -6   3 -10    0.88    0.41 
  -5  -2  10    0.84    0.59 
  -4  -2  10    1.07    0.47 
  -3  -2  10    0.46    0.35 
  -2  -2  10   51.70    2.78 
  -2  -2  10   45.32    3.31 
  -1  -2  10    3.39    0.42 
  -1  -2  10    6.10    0.59 
   0   2 -10   24.24    1.42 
   0  -2  10   23.33    1.68 
   0  -2  10   23.14    1.45 
  -1   2 -10   57.52    3.49 
   1  -2  10   62.15    3.52 
   1  -2  10   64.34    4.11 
  -2   2 -10   15.93    1.01 
   2  -2  10   15.66    1.11 
  -3   2 -10    7.54    0.60 
   3  -2  10    7.62    0.72 
  -4   2 -10    0.04    0.24 
   4  -2  10   -0.06    0.41 
  -5   2 -10    0.56    0.34 
   5  -2  10    0.59    0.55 
  -6   2 -10    0.39    0.38 
  -6  -1  10    0.82    0.52 
  -5  -1  10    1.36    0.50 
  -4  -1  10    1.20    0.39 
  -3  -1  10   13.74    0.91 
  -3  -1  10   14.30    1.13 
  -2  -1  10   14.78    0.98 
  -2  -1  10   16.20    1.19 
  -1  -1  10    9.02    0.67 
  -1  -1  10    9.41    0.79 
   0   1 -10  136.04    7.66 
   0  -1  10  137.11    7.58 
  -1   1 -10   21.87    1.33 
   1  -1  10   22.60    1.41 
   1  -1  10   23.09    1.57 
  -2   1 -10   13.88    0.90 
   2  -1  10   14.30    1.00 
  -3   1 -10   14.21    0.94 
   3  -1  10   14.69    1.10 
  -4   1 -10    1.26    0.32 
   4  -1  10    1.17    0.46 
   5  -1  10    1.51    0.37 
   5  -1  10    1.88    0.60 
  -6   1 -10    0.84    0.41 
  -6   0  10    1.58    0.54 
  -5   0  10    0.44    0.42 
  -4   0  10    3.14    0.36 
  -4   0  10    2.73    0.48 
  -3   0  10   25.65    1.86 
  -3   0  10   26.59    1.55 
  -2   0  10   14.93    0.98 
  -2   0  10   15.70    1.16 
  -1   0  10  120.92    8.06 
  -1   0  10  124.30    6.80 
   0   0 -10   13.37    0.80 
   0   0  10   12.71    0.88 
   0   0  10   13.59    0.97 
  -1   0 -10   83.91    4.64 
   1   0  10   79.91    4.63 
   2   0  10   24.06    1.48 
   2   0  10   25.54    1.59 
   3   0  10    7.14    0.72 
   3   0  10    7.08    0.57 
   4   0  10   14.64    1.04 
   4   0  10   17.32    1.26 
   5   0  10    0.84    0.54 
   5   0  10    1.39    0.37 
  -6   1  10    0.77    0.48 
  -5   1  10    3.38    0.41 
  -5   1  10    2.60    0.48 
  -4   1  10   11.38    0.79 
  -3   1  10   18.74    1.16 
  -2   1  10   47.30    2.70 
  -1   1  10    5.57    0.49 
   0   1  10  107.88    5.82 
   0   1  10   98.39    5.76 
   1   1  10   22.40    1.32 
   1   1  10   21.43    1.38 
   2   1  10   32.73    2.00 
   2   1  10   32.05    1.92 
   3   1  10   25.98    1.71 
   3   1  10   25.66    1.59 
   4   1  10   -0.41    0.43 
   4   1  10   -0.18    0.27 
   5   1  10    4.39    0.54 
   5   1  10    4.89    0.72 
  -6   2  10    0.81    0.36 
  -5   2  10    1.33    0.33 
  -4   2  10    3.47    0.39 
  -3   2  10   16.53    1.03 
  -2   2  10    2.34    0.34 
  -1   2  10   19.66    1.23 
   0   2  10   28.94    1.74 
   0   2  10   29.34    1.70 
   1   2  10   44.03    2.58 
   1   2  10   45.60    2.62 
   2   2  10   22.30    1.40 
   2   2  10   23.41    1.51 
   3   2  10   -0.30    0.38 
   3   2  10    0.25    0.26 
   4   2  10    8.17    0.70 
   4   2  10    9.08    0.88 
   5   2  10    2.61    0.50 
  -6   3  10    0.03    0.33 
  -5   3  10   -0.04    0.30 
  -4   3  10   10.83    0.79 
  -3   3  10    2.16    0.33 
  -2   3  10    4.40    0.43 
  -1   3  10   30.35    1.81 
   0   3  10   21.24    1.34 
   1   3  10   23.50    1.47 
   1   3  10   25.08    1.54 
   2   3  10    0.43    0.41 
   2   3  10    0.10    0.23 
   3   3  10   14.19    1.11 
   3   3  10   14.22    1.00 
   4   3  10    6.50    0.65 
  -6   4  10    0.51    0.38 
  -5   4  10    3.71    0.46 
  -4   4  10    9.08    0.74 
  -2   4  10   13.53    0.94 
  -1   4  10    5.43    0.54 
   0   4  10   31.15    1.90 
   1   4  10    0.19    0.37 
   1   4  10    0.15    0.24 
   2   4  10   16.10    1.15 
   2   4  10   14.45    1.04 
   3   4  10    9.72    0.80 
  -5   5  10    0.62    0.42 
  -4   5  10   10.02    0.84 
  -3   5  10    1.92    0.39 
  -2   5  10    2.51    0.43 
  -1   5  10   28.58    1.76 
   0   5  10    0.27    0.39 
   1   5  10    8.27    0.78 
   1   5  10    7.73    0.67 
   2   5  10   10.54    0.85 
   3   5  10    6.61    0.67 
  -5   6  10   -0.39    0.43 
  -4   6  10    2.52    0.52 
  -3   6  10    0.68    0.42 
  -2   6  10    9.76    0.82 
  -1   6  10    0.92    0.46 
   0   6  10    6.24    0.70 
  -3   7  10    2.05    0.59 
  -2   7  10    3.31    0.56 
  -1   7  10    5.38    0.70 
  -1   7 -11    2.92    0.57 
  -2   7 -11    0.28    0.48 
  -2  -6  11    4.80    0.84 
  -1  -6  11    1.28    0.54 
   0   6 -11    4.26    0.59 
   0  -6  11    4.94    0.77 
  -1   6 -11    0.31    0.39 
  -2   6 -11    1.42    0.47 
  -3   6 -11    2.56    0.52 
  -4   6 -11    0.98    0.53 
  -3  -5  11    6.49    0.94 
  -2  -5  11    1.02    0.58 
  -1  -5  11   11.93    1.16 
   0   5 -11    0.44    0.37 
   0  -5  11    0.50    0.47 
  -1   5 -11    5.71    0.57 
   1  -5  11    5.45    0.60 
   1  -5  11    4.89    0.69 
  -2   5 -11    5.66    0.62 
   2  -5  11    6.08    0.65 
  -3   5 -11    0.02    0.40 
  -4   5 -11    5.74    0.68 
  -5   5 -11   -0.20    0.45 
  -4  -4  11    3.74    0.77 
  -3  -4  11   -0.02    0.54 
  -2  -4  11   18.38    1.54 
  -1  -4  11    0.90    0.47 
   0   4 -11    8.21    0.71 
   0  -4  11    8.35    0.87 
   0  -4  11    8.52    0.73 
  -1   4 -11   16.70    1.12 
   1  -4  11   16.82    1.16 
   1  -4  11   16.57    1.32 
  -2   4 -11    8.40    0.71 
   2  -4  11    7.70    0.74 
  -3   4 -11   11.90    0.95 
   3  -4  11   11.78    1.00 
  -4   4 -11    0.25    0.36 
   4  -4  11   -0.32    0.46 
  -5   4 -11    5.22    0.62 
  -4  -3  11   -0.25    0.49 
  -3  -3  11   11.99    1.12 
  -2  -3  11    0.20    0.41 
  -1  -3  11    3.80    0.44 
  -1  -3  11    3.62    0.54 
   0   3 -11   40.00    2.36 
   0  -3  11   39.12    2.37 
   0  -3  11   41.01    2.81 
  -1   3 -11   22.25    1.33 
   1  -3  11   20.97    1.58 
   1  -3  11   19.22    1.35 
  -2   3 -11    4.68    0.47 
   2  -3  11    5.49    0.59 
  -3   3 -11    0.44    0.29 
   3  -3  11    0.52    0.42 
  -4   3 -11    6.02    0.58 
   4  -3  11    6.16    0.77 
  -5   3 -11   -0.29    0.40 
  -5  -2  11    0.09    0.63 
  -3  -2  11    0.09    0.39 
  -2  -2  11    4.54    0.44 
  -2  -2  11    3.48    0.53 
  -1  -2  11   53.60    3.66 
  -1  -2  11   76.44    4.39 
   0   2 -11    9.14    0.63 
   0  -2  11    8.57    0.78 
   0  -2  11    8.56    0.70 
   1  -2  11   15.77    1.09 
  -2   2 -11   10.30    0.73 
   2  -2  11   10.93    0.87 
  -3   2 -11    4.79    0.46 
   3  -2  11    5.44    0.65 
  -4   2 -11    4.16    0.47 
   4  -2  11    3.88    0.67 
  -5   2 -11    0.18    0.34 
   5  -2  11   -0.62    0.49 
  -5  -1  11    3.64    0.64 
  -4  -1  11    0.57    0.38 
  -3  -1  11   12.09    1.00 
  -3  -1  11   11.89    0.83 
  -2  -1  11   40.57    2.74 
  -2  -1  11   38.79    2.30 
  -1  -1  11    3.18    0.38 
  -1  -1  11    3.10    0.41 
   0  -1  11   48.71    2.57 
   0  -1  11   40.21    2.95 
  -1   1 -11   39.17    2.23 
   1  -1  11   37.74    2.30 
  -2   1 -11   23.52    1.38 
   2  -1  11   21.15    1.48 
  -3   1 -11   25.49    1.55 
   3  -1  11   25.02    1.69 
  -4   1 -11    2.29    0.38 
   4  -1  11    2.24    0.59 
  -5   1 -11    3.31    0.49 
   5  -1  11    3.49    0.73 
  -6   0  11    2.14    0.58 
  -5   0  11   -0.02    0.41 
  -4   0  11    9.73    0.69 
  -4   0  11    8.03    0.85 
  -3   0  11   21.37    1.58 
  -2   0  11   14.20    0.94 
  -2   0  11   13.84    1.08 
  -1   0  11   33.65    1.94 
  -1   0  11   32.10    2.25 
   0   0  11   50.29    3.38 
   0   0  11   51.06    2.91 
  -1   0 -11   71.53    3.89 
   1   0  11   64.72    3.90 
   2   0  11   32.79    1.99 
   2   0  11   34.59    2.07 
   3   0  11    5.02    0.47 
   3   0  11    5.38    0.66 
   4   0  11    8.72    0.75 
   4   0  11   12.63    1.03 
   5   0  11    1.16    0.58 
   5   0  11    0.22    0.33 
  -6   1  11   -0.03    0.43 
  -5   1  11    0.41    0.42 
  -5   1  11    0.79    0.34 
  -4   1  11    7.25    0.61 
  -3   1  11   10.67    0.78 
  -2   1  11    5.60    0.51 
  -1   1  11   33.29    1.97 
   0   1  11   66.28    3.76 
   1   1  11   31.40    1.80 
   1   1  11   29.40    1.87 
   2   1  11    0.88    0.24 
   2   1  11    0.87    0.40 
   3   1  11   28.21    1.78 
   3   1  11   25.52    1.63 
   4   1  11    0.94    0.33 
   4   1  11    0.64    0.52 
   5   1  11    1.07    0.41 
   5   1  11    0.91    0.58 
  -6   2  11   -0.70    0.40 
  -5   2  11    1.06    0.38 
  -4   2  11    0.05    0.28 
  -3   2  11    3.14    0.41 
  -2   2  11   13.36    0.92 
  -1   2  11   29.00    1.75 
   0   2  11   38.68    2.27 
   1   2  11   -0.02    0.31 
   1   2  11    0.19    0.19 
   2   2  11   50.34    2.94 
   2   2  11   48.12    2.86 
   3   2  11    3.96    0.45 
   3   2  11    4.52    0.64 
   4   2  11    4.66    0.55 
   4   2  11    5.28    0.73 
  -6   3  11    0.53    0.37 
  -5   3  11    0.36    0.31 
  -4   3  11    5.49    0.55 
  -3   3  11    4.30    0.48 
  -2   3  11    3.87    0.46 
  -1   3  11   56.79    3.26 
   0   3  11   -0.26    0.32 
   1   3  11   51.91    3.05 
   2   3  11   11.89    0.95 
   2   3  11   10.12    0.78 
   3   3  11   13.18    0.96 
   3   3  11   13.59    1.14 
   4   3  11    2.19    0.44 
  -5   4  11    0.21    0.34 
  -4   4  11    0.77    0.31 
  -3   4  11    0.11    0.35 
  -2   4  11   31.55    1.91 
  -1   4  11   -0.09    0.34 
   0   4  11   36.56    2.21 
   1   4  11   10.64    0.90 
   2   4  11   21.73    1.52 
   2   4  11   21.35    1.40 
   3   4  11    2.91    0.46 
  -5   5  11    1.42    0.46 
  -4   5  11   -0.15    0.36 
  -3   5  11    3.67    0.55 
  -2   5  11    1.08    0.42 
  -1   5  11   20.38    1.36 
   0   5  11    6.54    0.71 
   1   5  11   22.63    1.56 
  -4   6  11    0.75    0.42 
  -3   6  11    2.93    0.56 
  -2   6  11    7.41    0.74 
   0   6  11   12.92    1.05 
  -1  -6  12    0.36    0.51 
   0  -6  12    7.22    0.88 
  -1   6 -12    0.99    0.45 
  -2   6 -12    1.62    0.48 
  -3   6 -12    2.11    0.55 
  -2  -5  12    0.17    0.57 
  -1  -5  12    6.25    0.83 
   0  -5  12    5.62    0.72 
  -1   5 -12   13.12    1.01 
   1  -5  12   13.21    1.02 
  -2   5 -12    5.33    0.61 
   2  -5  12    4.97    0.66 
  -3   5 -12    0.08    0.42 
  -4   5 -12    2.02    0.53 
  -3  -4  12    0.81    0.59 
  -2  -4  12    6.04    0.81 
  -1  -4  12    6.54    0.82 
   0  -4  12   16.46    1.17 
   0  -4  12   16.95    1.38 
  -1   4 -12    4.68    0.50 
   1  -4  12    4.50    0.56 
  -2   4 -12    0.29    0.36 
   2  -4  12    0.58    0.41 
  -3   4 -12    1.42    0.44 
   3  -4  12    1.29    0.51 
  -4   4 -12    0.85    0.40 
   4  -4  12    0.62    0.55 
  -5   4 -12   -0.31    0.35 
  -4  -3  12    1.12    0.55 
  -3  -3  12    5.28    0.74 
  -2  -3  12    9.16    0.92 
  -1  -3  12    6.07    0.59 
  -1  -3  12    6.46    0.74 
   0  -3  12    8.30    0.73 
   0  -3  12    9.05    0.85 
  -1   3 -12    0.36    0.27 
   1  -3  12    0.18    0.34 
  -2   3 -12    1.97    0.38 
   2  -3  12    1.87    0.46 
  -3   3 -12   10.35    0.81 
   3  -3  12   11.52    0.98 
  -4   3 -12    0.66    0.35 
   4  -3  12    0.62    0.54 
  -5   3 -12    2.46    0.47 
   5  -3  12    2.33    0.71 
  -5  -2  12    0.74    0.67 
  -4  -2  12    3.21    0.61 
  -3  -2  12   15.52    1.29 
  -2  -2  12    9.56    0.88 
  -2  -2  12    7.18    0.67 
  -1  -2  12   14.35    0.99 
   0  -2  12    5.95    0.62 
   0  -2  12    6.27    0.58 
  -1   2 -12   17.49    1.09 
   1  -2  12   15.98    1.16 
  -2   2 -12   29.01    1.73 
   2  -2  12   27.78    1.82 
  -3   2 -12    6.60    0.60 
   3  -2  12    7.05    0.76 
  -4   2 -12    7.76    0.69 
   4  -2  12    8.79    0.91 
  -5   2 -12    0.60    0.38 
   5  -2  12    0.78    0.61 
  -5  -1  12    1.83    0.51 
  -4  -1  12   13.68    1.18 
  -3  -1  12   10.97    0.80 
  -3  -1  12   10.80    0.97 
  -2  -1  12   13.39    1.10 
  -2  -1  12   13.76    0.93 
  -1  -1  12    8.08    0.74 
  -1  -1  12    7.53    0.65 
   0  -1  12   45.28    3.28 
   0  -1  12   52.91    2.85 
   1  -1  12   13.29    0.98 
   2  -1  12    5.31    0.61 
  -3   1 -12   23.87    1.47 
   3  -1  12   23.59    1.63 
  -4   1 -12    0.64    0.32 
   4  -1  12   -0.02    0.48 
  -5   1 -12    4.35    0.54 
   5  -1  12    3.84    0.78 
  -5   0  12    2.57    0.55 
  -4   0  12    3.35    0.56 
  -4   0  12    5.01    0.55 
  -3   0  12    8.77    0.83 
  -3   0  12    9.37    0.71 
  -2   0  12    2.86    0.40 
  -2   0  12    3.03    0.44 
  -1   0  12   50.19    2.95 
  -1   0  12   52.38    3.47 
   0   0  12    5.19    0.54 
   0   0  12    5.71    0.54 
   1   0  12    0.42    0.33 
  -2   0 -12   42.28    2.39 
   2   0  12   39.00    2.47 
   3   0  12    0.43    0.41 
   3   0  12    0.37    0.25 
   4   0  12    8.27    0.93 
   4   0  12    8.47    0.71 
   5   0  12    3.98    0.78 
   5   0  12    3.32    0.49 
  -5   1  12    0.30    0.43 
  -5   1  12    0.11    0.35 
  -4   1  12    7.47    0.80 
  -4   1  12    7.67    0.66 
  -3   1  12    0.98    0.32 
  -2   1  12   11.74    0.85 
  -1   1  12   20.45    1.30 
   0   1  12    0.47    0.29 
   1   1  12   41.71    2.49 
   2   1  12    4.68    0.60 
   2   1  12    4.22    0.42 
   3   1  12   16.37    1.24 
   3   1  12   15.40    1.06 
   4   1  12    7.74    0.90 
   4   1  12    7.53    0.69 
  -5   2  12    5.30    0.55 
  -4   2  12    0.11    0.33 
  -3   2  12    1.97    0.40 
  -2   2  12   40.29    2.36 
  -1   2  12   -0.15    0.31 
   0   2  12   41.02    2.42 
   1   2  12    9.91    0.82 
   2   2  12   24.36    1.51 
   2   2  12   24.28    1.63 
   3   2  12   11.12    1.02 
   3   2  12   10.26    0.80 
   4   2  12    7.08    0.67 
   4   2  12    6.37    0.86 
  -5   3  12    0.29    0.43 
  -4   3  12    3.50    0.48 
  -3   3  12   12.46    0.92 
  -2   3  12    0.44    0.35 
  -1   3  12   37.56    2.24 
   0   3  12    9.88    0.81 
   1   3  12   27.26    1.75 
   2   3  12   14.60    1.15 
   3   3  12    1.99    0.41 
   3   3  12    1.97    0.59 
  -5   4  12    2.75    0.53 
  -4   4  12    0.57    0.40 
  -3   4  12    0.37    0.39 
  -2   4  12   15.37    1.09 
  -1   4  12    7.65    0.76 
   0   4  12   18.40    1.27 
   1   4  12   17.16    1.27 
   2   4  12    0.29    0.46 
   3   4  12    9.19    0.79 
  -4   5  12   -0.37    0.47 
  -3   5  12    3.25    0.53 
  -2   5  12    3.76    0.56 
  -1   5  12    9.78    0.91 
   0   5  12   20.29    1.41 
   1   5  12    0.41    0.46 
  -3   6  12    1.38    0.51 
  -2   6  12    1.03    0.51 
  -1   6  12   15.95    1.30 
   0   6  12    2.37    0.60 
   0  -6  13    1.99    0.66 
  -2   6 -13    2.16    0.53 
  -2  -5  13    0.62    0.60 
  -1  -5  13    2.19    0.62 
   0  -5  13    7.76    0.88 
   1  -5  13    3.03    0.57 
  -2   5 -13    0.35    0.41 
   2  -5  13    0.69    0.50 
  -3   5 -13    2.19    0.52 
   3  -5  13    1.19    0.57 
  -3  -4  13    1.37    0.62 
  -2  -4  13    0.91    0.55 
  -1  -4  13    9.55    1.01 
   0  -4  13    0.73    0.39 
   0  -4  13    0.71    0.44 
   1  -4  13    2.08    0.48 
  -2   4 -13   12.61    0.96 
   2  -4  13   12.45    1.05 
  -3   4 -13    6.29    0.67 
   3  -4  13    6.90    0.79 
  -4   4 -13   -0.11    0.39 
   4  -4  13    0.08    0.54 
  -4  -3  13    1.95    0.61 
  -3  -3  13   -0.02    0.47 
  -2  -3  13   10.14    1.00 
  -1  -3  13    0.36    0.35 
  -1  -3  13    0.48    0.43 
   0  -3  13   19.25    1.51 
   0  -3  13   19.14    1.30 
   1  -3  13   16.47    1.19 
  -2   3 -13   13.73    0.96 
   2  -3  13   12.40    1.05 
  -3   3 -13    3.28    0.46 
   3  -3  13    2.97    0.59 
  -4   3 -13    2.04    0.43 
   4  -3  13    0.84    0.58 
  -4  -2  13   -0.02    0.57 
  -3  -2  13    8.48    0.90 
  -3  -2  13    8.48    0.90 
  -2  -2  13    0.47    0.31 
  -2  -2  13    1.40    0.52 
  -1  -2  13   41.90    2.48 
   0  -2  13    5.28    0.56 
   1  -2  13   14.35    1.06 
  -2   2 -13   20.31    1.24 
   2  -2  13   18.01    1.36 
  -3   2 -13    0.27    0.30 
   3  -2  13    0.07    0.44 
  -4   2 -13    6.17    0.59 
   4  -2  13    5.01    0.75 
  -5  -1  13    0.10    0.49 
  -4  -1  13    3.50    0.60 
  -3  -1  13    0.08    0.32 
  -3  -1  13    0.20    0.39 
  -2  -1  13   14.40    1.02 
  -2  -1  13   15.00    1.19 
  -1  -1  13    5.41    0.54 
  -1  -1  13    5.29    0.58 
   0  -1  13    8.88    0.75 
   1  -1  13   29.01    1.82 
   2  -1  13    0.64    0.42 
  -3   1 -13   12.31    0.88 
   3  -1  13   12.65    1.08 
  -4   1 -13    5.22    0.54 
   4  -1  13    5.34    0.79 
  -5   0  13    4.34    0.66 
  -4   0  13    0.29    0.41 
  -4   0  13    0.35    0.36 
  -3   0  13    0.42    0.37 
  -3   0  13   -0.01    0.31 
  -2   0  13   19.14    1.29 
  -2   0  13   21.43    1.52 
  -1   0  13    4.67    0.52 
  -1   0  13    4.98    0.53 
   0   0  13   30.79    1.88 
   1   0  13    0.13    0.36 
   2   0  13   23.62    1.59 
  -3   0 -13    9.06    0.72 
   3   0  13    9.12    0.91 
   4   0  13    6.84    0.88 
   4   0  13    6.72    0.62 
  -5   1  13    0.30    0.45 
  -5   1  13    0.16    0.37 
  -4   1  13    0.14    0.40 
  -4   1  13    0.38    0.36 
  -3   1  13   29.29    2.06 
  -3   1  13   27.55    1.75 
  -2   1  13    3.12    0.44 
  -1   1  13   35.27    2.11 
   0   1  13    0.52    0.34 
   1   1  13   37.44    2.28 
   2   1  13   11.69    0.99 
   3   1  13    8.41    0.72 
   3   1  13    9.35    0.91 
   4   1  13    0.78    0.58 
   4   1  13    0.78    0.34 
  -5   2  13    1.61    0.43 
  -4   2  13    9.48    0.80 
  -3   2  13    3.49    0.49 
  -2   2  13   29.40    1.81 
  -1   2  13    0.92    0.38 
   0   2  13   29.64    1.84 
   1   2  13   13.09    1.00 
   2   2  13    7.08    0.77 
   3   2  13    5.00    0.74 
  -5   3  13    1.39    0.45 
  -4   3  13    2.21    0.46 
  -3   3  13   12.12    0.93 
  -2   3  13    1.14    0.42 
  -1   3  13   17.04    1.18 
   0   3  13   14.49    1.07 
   1   3  13    4.18    0.58 
   2   3  13   16.34    1.27 
   3   3  13    0.43    0.51 
  -4   4  13    2.44    0.50 
  -3   4  13    2.49    0.50 
  -2   4  13    6.63    0.68 
  -1   4  13   13.39    1.03 
   0   4  13    5.24    0.64 
   1   4  13   13.69    1.09 
   2   4  13    0.06    0.48 
  -4   5  13    1.39    0.48 
  -3   5  13    5.12    0.66 
  -2   5  13   10.14    0.90 
  -1   5  13    7.17    0.76 
   0   5  13    2.99    0.59 
   1   5  13    1.53    0.54 
  -1  -5  14    0.33    0.58 
   2  -5  14    5.00    0.71 
  -2  -4  14    0.07    0.56 
  -1  -4  14    5.88    0.80 
   0  -4  14    6.94    0.73 
   1  -4  14    5.22    0.68 
   2  -4  14    4.14    0.64 
  -3   4 -14    0.72    0.44 
   3  -4  14    0.52    0.51 
  -3  -3  14    0.94    0.54 
  -2  -3  14    6.41    0.78 
  -1  -3  14    4.30    0.63 
  -1  -3  14    3.58    0.52 
   0  -3  14    5.70    0.63 
   1  -3  14   15.36    1.16 
   2  -3  14    0.26    0.43 
  -3   3 -14   13.87    1.03 
   3  -3  14   12.84    1.15 
  -4   3 -14    0.18    0.39 
   4  -3  14   -0.03    0.53 
  -4  -2  14    4.60    0.80 
  -3  -2  14    0.64    0.59 
  -2  -2  14    3.10    0.46 
  -2  -2  14    3.34    0.64 
  -1  -2  14    5.49    0.67 
  -1  -2  14    4.74    0.56 
   0  -2  14   20.87    1.41 
   1  -2  14    0.52    0.40 
   2  -2  14   21.24    1.48 
   3  -2  14    1.35    0.54 
  -4   2 -14    4.87    0.54 
   4  -2  14    3.74    0.74 
  -4  -1  14    1.48    0.52 
  -3  -1  14    5.79    0.58 
  -3  -1  14    5.37    0.69 
  -2  -1  14    2.27    0.42 
  -2  -1  14    2.59    0.48 
  -1  -1  14   18.43    1.27 
  -1  -1  14   19.56    1.45 
   0  -1  14    0.54    0.37 
   1  -1  14   32.76    2.05 
   2  -1  14    5.27    0.66 
   3  -1  14   11.71    1.04 
  -4   1 -14    0.62    0.35 
   4  -1  14    0.03    0.54 
  -4   0  14    5.93    0.72 
  -3   0  14    2.46    0.51 
  -3   0  14    2.30    0.45 
  -2   0  14   15.59    1.11 
  -2   0  14   16.69    1.28 
  -1   0  14    0.78    0.36 
  -1   0  14    0.94    0.34 
   0   0  14   37.22    2.25 
   1   0  14   11.31    0.93 
   2   0  14   16.25    1.23 
   3   0  14    4.30    0.69 
  -4   0 -14    0.08    0.34 
   4   0  14   -0.28    0.52 
  -4   1  14    2.83    0.48 
  -4   1  14    2.25    0.52 
  -3   1  14    7.86    0.82 
  -3   1  14    7.71    0.70 
  -2   1  14    0.28    0.36 
  -2   1  14    0.27    0.34 
  -1   1  14   25.05    1.58 
   0   1  14   12.47    0.95 
   1   1  14   18.68    1.31 
   2   1  14   15.63    1.21 
   3   1  14    0.61    0.53 
  -4   2  14    0.89    0.42 
  -3   2  14    2.81    0.56 
  -2   2  14   13.94    1.03 
  -1   2  14   11.90    0.92 
   0   2  14   16.54    1.17 
   1   2  14   26.45    1.71 
   2   2  14    0.72    0.49 
   3   2  14    7.49    0.88 
  -4   3  14    4.81    0.61 
  -3   3  14    6.04    0.66 
  -2   3  14    9.83    0.86 
  -1   3  14   13.19    1.01 
   0   3  14   19.26    1.34 
   1   3  14    1.23    0.48 
   2   3  14   13.78    1.16 
  -4   4  14    1.85    0.51 
  -3   4  14    7.21    0.75 
  -2   4  14    9.17    0.91 
  -1   4  14    8.42    0.81 
   0   4  14    0.41    0.47 
   1   4  14   12.39    1.06 
  -2   5  14    5.15    0.75 
  -1   5  14    0.76    0.51 
  -1  -4  15    1.84    0.60 
   1  -4  15    0.36    0.49 
   2  -4  15    8.93    0.92 
  -2  -3  15    2.24    0.60 
  -1  -3  15    5.52    0.72 
   0  -3  15    0.76    0.44 
   1  -3  15   10.18    0.92 
   2  -3  15    0.32    0.49 
   3  -3  15    3.55    0.67 
  -3  -2  15    2.04    0.67 
  -2  -2  15    5.67    0.77 
  -1  -2  15    0.32    0.38 
   0  -2  15    9.29    0.83 
   1  -2  15    3.10    0.54 
   2  -2  15    7.24    0.77 
   3  -2  15    5.51    0.76 
  -3  -1  15    5.08    0.68 
  -2  -1  15    0.39    0.42 
  -2  -1  15    0.44    0.39 
  -1  -1  15    9.79    0.83 
   0  -1  15    7.10    0.71 
   1  -1  15   10.77    0.92 
   2  -1  15   10.99    0.98 
   3  -1  15    3.17    0.63 
  -4   0  15    1.73    0.52 
  -3   0  15    0.28    0.43 
  -3   0  15    0.07    0.39 
  -2   0  15   11.68    1.01 
  -2   0  15   12.00    0.95 
  -1   0  15    5.32    0.59 
   0   0  15   11.96    0.95 
   1   0  15   19.14    1.35 
   2   0  15    3.00    0.58 
   3   0  15    4.39    0.71 
  -4   1  15    0.06    0.42 
  -4   1  15   -0.01    0.47 
  -3   1  15    9.32    0.83 
  -3   1  15    9.62    0.93 
  -2   1  15    2.17    0.47 
  -2   1  15    2.49    0.46 
  -1   1  15    9.36    0.82 
   0   1  15   22.28    1.48 
   1   1  15    1.96    0.48 
   2   1  15   11.30    1.00 
   3   1  15    2.80    0.64 
  -4   2  15    3.87    0.65 
  -4   2  15    3.97    0.69 
  -3   2  15    1.22    0.47 
  -2   2  15    7.71    0.74 
  -1   2  15   15.55    1.14 
   0   2  15    0.88    0.43 
   1   2  15   16.63    1.24 
   2   2  15    3.81    0.66 
  -3   3  15    2.00    0.57 
  -2   3  15    6.98    0.74 
  -1   3  15    0.02    0.42 
   0   3  15   12.81    1.04 
   1   3  15    4.21    0.64 
  -2   4  15    0.36    0.48 
  -1   4  15    4.18    0.64 
   0   4  15    7.77    0.82 
   0  -3  16    0.82    0.50 
   1  -3  16    7.81    0.81 
   2  -3  16    2.25    0.59 
  -2  -2  16    3.70    0.77 
  -1  -2  16    3.07    0.55 
   0  -2  16   13.24    1.06 
   1  -2  16    3.80    0.61 
   2  -2  16    5.61    0.73 
  -3  -1  16    5.99    0.77 
  -2  -1  16    1.91    0.47 
  -2  -1  16    1.60    0.48 
  -1  -1  16   14.55    1.10 
   0  -1  16    5.08    0.64 
   1  -1  16    6.40    0.72 
   2  -1  16    3.44    0.63 
  -3   0  16    0.43    0.47 
  -3   0  16    1.12    0.47 
  -2   0  16    9.17    0.83 
  -1   0  16    9.05    0.82 
   0   0  16    5.19    0.65 
   1   0  16    6.81    0.76 
   2   0  16    1.37    0.53 
  -3   1  16    4.21    0.62 
  -3   1  16    3.73    0.57 
  -2   1  16    9.39    0.84 
  -1   1  16    4.98    0.61 
   0   1  16    9.01    0.83 
   1   1  16    1.84    0.52 
   2   1  16   12.10    1.07 
  -3   2  16    5.94    0.73 
  -3   2  16    5.97    0.70 
  -2   2  16    3.46    0.57 
  -1   2  16    4.99    0.62 
   0   2  16    2.40    0.51 
   1   2  16   18.03    1.34 
  -2   3  16    3.40    0.60 
  -1   3  16    3.55    0.61 
   0   3  16   11.76    1.00 
   0  -2  17    3.99    0.62 
  -1  -1  17    3.24    0.59 
   0  -1  17    8.55    0.84 
   1  -1  17   -0.31    0.43 
  -1   0  17    7.77    0.79 
   0   0  17    0.40    0.41 
   1   0  17   16.10    1.25 
  -1   1  17    1.12    0.47 
   0   1  17   18.67    1.35 
   0   0   0    0.00    0.00 
;
_shelx_hkl_checksum              30874
loop_
_space_group_symop_operation_xyz
'x, y, z'
'-x, -y, -z'
loop_
_atom_site_label
_atom_site_type_symbol
_atom_site_fract_x
_atom_site_fract_y
_atom_site_fract_z
_atom_site_U_iso_or_equiv
_atom_site_adp_type
_atom_site_occupancy
_atom_site_site_symmetry_order
_atom_site_calc_flag
_atom_site_refinement_flags_posn
_atom_site_refinement_flags_adp
Br1 Br 1.29360(7) 0.80578(5) 1.07440(2) 0.0623(2) Uani 1 1 d . .
O1 O 0.8753(4) 0.0991(3) 0.6327(2) 0.0615(7) Uani 1 1 d . .
O2 O 0.5985(3) 0.2588(3) 0.6453(2) 0.0489(6) Uani 1 1 d . .
C1 C 1.0549(4) 0.3921(4) 0.4506(2) 0.0298(6) Uani 1 1 d . .
H1 H 1.0373 0.2453 0.4390 0.036 Uiso 1 1 calc R U
C2 C 1.1534(5) 0.5097(4) 0.5489(2) 0.0292(6) Uani 1 1 d . .
H2 H 1.3177 0.5879 0.5606 0.035 Uiso 1 1 calc R U
C3 C 0.9810(4) 0.4671(4) 0.6321(2) 0.0296(6) Uani 1 1 d . .
C4 C 0.8177(5) 0.2537(4) 0.6358(2) 0.0330(6) Uani 1 1 d . .
C5 C 0.4285(6) 0.0622(6) 0.6553(4) 0.0640(12) Uani 1 1 d . .
H5A H 0.4026 -0.0126 0.5903 0.096 Uiso 1 1 calc R U
H5B H 0.2838 0.0838 0.6760 0.096 Uiso 1 1 calc R U
H5C H 0.4866 -0.0146 0.7061 0.096 Uiso 1 1 calc R U
C6 C 1.0649(5) 0.5616(4) 0.7378(2) 0.0309(6) Uani 1 1 d . .
C7 C 0.9486(6) 0.6825(5) 0.7877(3) 0.0431(7) Uani 1 1 d . .
H7 H 0.8222 0.7140 0.7539 0.052 Uiso 1 1 calc R U
C8 C 1.0171(6) 0.7578(5) 0.8874(3) 0.0504(8) Uani 1 1 d . .
H8 H 0.9368 0.8386 0.9206 0.060 Uiso 1 1 calc R U
C9 C 1.2042(5) 0.7122(4) 0.9364(2) 0.0414(7) Uani 1 1 d . .
C10 C 1.3279(6) 0.5985(6) 0.8873(3) 0.0487(8) Uani 1 1 d . .
H10 H 1.4586 0.5724 0.9201 0.058 Uiso 1 1 calc R U
C11 C 1.2550(6) 0.5226(5) 0.7877(2) 0.0447(7) Uani 1 1 d . .
H11 H 1.3371 0.4436 0.7542 0.054 Uiso 1 1 calc R U
loop_
_atom_site_aniso_label
_atom_site_aniso_U_11
_atom_site_aniso_U_22
_atom_site_aniso_U_33
_atom_site_aniso_U_23
_atom_site_aniso_U_13
_atom_site_aniso_U_12
Br1 0.0911(4) 0.0547(3) 0.0312(3) -0.00516(16) -0.00254(18) 0.0045(2)
O1 0.0500(13) 0.0321(12) 0.107(2) 0.0141(13) 0.0136(13) 0.0166(10)
O2 0.0296(11) 0.0345(12) 0.0807(18) -0.0021(11) 0.0069(10) 0.0050(9)
C1 0.0320(13) 0.0246(13) 0.0332(14) 0.0020(10) 0.0003(11) 0.0086(10)
C2 0.0269(12) 0.0280(13) 0.0323(14) 0.0013(10) 0.0010(10) 0.0066(10)
C3 0.0308(13) 0.0288(13) 0.0291(13) 0.0014(10) -0.0007(10) 0.0083(11)
C4 0.0340(14) 0.0337(15) 0.0310(14) 0.0025(11) 0.0018(11) 0.0086(11)
C5 0.0392(18) 0.040(2) 0.103(4) -0.009(2) 0.0122(19) -0.0057(14)
C6 0.0340(13) 0.0277(13) 0.0286(13) 0.0029(10) 0.0034(11) 0.0041(10)
C7 0.0462(17) 0.0441(18) 0.0430(17) -0.0027(14) -0.0025(13) 0.0201(14)
C8 0.063(2) 0.0472(19) 0.0463(19) -0.0077(15) 0.0044(16) 0.0244(16)
C9 0.0533(19) 0.0356(16) 0.0295(15) -0.0009(12) 0.0007(13) 0.0029(13)
C10 0.0483(18) 0.063(2) 0.0365(17) -0.0014(15) -0.0054(13) 0.0200(16)
C11 0.0478(17) 0.058(2) 0.0336(16) -0.0015(14) -0.0008(13) 0.0248(15)
loop_
_atom_type_symbol
_atom_type_description
_atom_type_scat_dispersion_real
_atom_type_scat_dispersion_imag
_atom_type_scat_source
C C 0.0033 0.0016 'International Tables Vol C Tables 4.2.6.8 and 6.1.1.4'
H H 0.0000 0.0000 'International Tables Vol C Tables 4.2.6.8 and 6.1.1.4'
O O 0.0106 0.0060 'International Tables Vol C Tables 4.2.6.8 and 6.1.1.4'
Br Br -0.2901 2.4595 'International Tables Vol C Tables 4.2.6.8 and 6.1.1.4'
loop_
_geom_angle_atom_site_label_1
_geom_angle_atom_site_label_2
_geom_angle_atom_site_label_3
_geom_angle
_geom_angle_site_symmetry_1
_geom_angle_site_symmetry_3
C4 O2 C5 116.0(3) . .
C2 C1 C3 111.2(2) . 2_766
C2 C1 C2 89.3(2) . 2_766
C3 C1 C2 58.90(17) 2_766 2_766
C2 C1 H1 124.1 . .
C3 C1 H1 124.1 2_766 .
C2 C1 H1 124.1 2_766 .
C1 C2 C3 111.9(2) . .
C1 C2 C1 90.7(2) . 2_766
C3 C2 C1 58.67(17) . 2_766
C1 C2 H2 123.7 . .
C3 C2 H2 123.7 . .
C1 C2 H2 123.7 2_766 .
C1 C3 C2 62.43(18) 2_766 .
C1 C3 C6 117.5(2) 2_766 .
C2 C3 C6 117.4(2) . .
C1 C3 C4 120.3(2) 2_766 .
C2 C3 C4 118.2(2) . .
C6 C3 C4 112.6(2) . .
O1 C4 O2 123.2(3) . .
O1 C4 C3 125.3(3) . .
O2 C4 C3 111.4(2) . .
O2 C5 H5A 109.5 . .
O2 C5 H5B 109.5 . .
H5A C5 H5B 109.5 . .
O2 C5 H5C 109.5 . .
H5A C5 H5C 109.5 . .
H5B C5 H5C 109.5 . .
C11 C6 C7 118.5(3) . .
C11 C6 C3 120.3(2) . .
C7 C6 C3 121.2(3) . .
C6 C7 C8 121.0(3) . .
C6 C7 H7 119.5 . .
C8 C7 H7 119.5 . .
C9 C8 C7 119.3(3) . .
C9 C8 H8 120.3 . .
C7 C8 H8 120.3 . .
C10 C9 C8 120.9(3) . .
C10 C9 Br1 119.2(2) . .
C8 C9 Br1 119.9(2) . .
C9 C10 C11 118.9(3) . .
C9 C10 H10 120.5 . .
C11 C10 H10 120.5 . .
C6 C11 C10 121.4(3) . .
C6 C11 H11 119.3 . .
C10 C11 H11 119.3 . .
loop_
_geom_bond_atom_site_label_1
_geom_bond_atom_site_label_2
_geom_bond_distance
_geom_bond_site_symmetry_2
Br1 C9 1.894(3) .
O1 C4 1.188(3) .
O2 C4 1.324(3) .
O2 C5 1.451(4) .
C1 C2 1.499(4) .
C1 C3 1.500(4) 2_766
C1 C2 1.557(4) 2_766
C1 H1 0.9800 .
C2 C3 1.504(4) .
C2 C1 1.557(4) 2_766
C2 H2 0.9800 .
C3 C1 1.500(4) 2_766
C3 C6 1.508(4) .
C3 C4 1.512(4) .
C5 H5A 0.9600 .
C5 H5B 0.9600 .
C5 H5C 0.9600 .
C6 C11 1.368(4) .
C6 C7 1.377(4) .
C7 C8 1.385(5) .
C7 H7 0.9300 .
C8 C9 1.368(5) .
C8 H8 0.9300 .
C9 C10 1.367(4) .
C10 C11 1.390(4) .
C10 H10 0.9300 .
C11 H11 0.9300 .
loop_
_geom_hbond_atom_site_label_D
_geom_hbond_atom_site_label_H
_geom_hbond_atom_site_label_A
_geom_hbond_distance_DH
_geom_hbond_distance_HA
_geom_hbond_distance_DA
_geom_hbond_angle_DHA
_geom_hbond_site_symmetry_A
C5 H5B O1 0.96 2.50 3.365(5) 150.2 1_455
C8 H8 Br1 0.93 3.08 3.924(3) 151.7 2_777
loop_
_geom_torsion_atom_site_label_1
_geom_torsion_atom_site_label_2
_geom_torsion_atom_site_label_3
_geom_torsion_atom_site_label_4
_geom_torsion
_geom_torsion_site_symmetry_1
_geom_torsion_site_symmetry_4
C3 C1 C2 C3 112.3(2) 2_766 .
C2 C1 C2 C3 56.3(2) 2_766 .
C3 C1 C2 C1 56.0(2) 2_766 2_766
C2 C1 C2 C1 0.002(0) 2_766 2_766
C1 C2 C3 C1 -76.7(2) . 2_766
C1 C2 C3 C6 174.9(2) . .
C1 C2 C3 C6 -108.4(3) 2_766 .
C1 C2 C3 C4 34.7(3) . .
C1 C2 C3 C4 111.4(3) 2_766 .
C5 O2 C4 O1 1.9(5) . .
C5 O2 C4 C3 -176.8(3) . .
C1 C3 C4 O1 122.2(3) 2_766 .
C2 C3 C4 O1 49.3(4) . .
C6 C3 C4 O1 -92.6(4) . .
C1 C3 C4 O2 -59.1(3) 2_766 .
C2 C3 C4 O2 -132.0(3) . .
C6 C3 C4 O2 86.0(3) . .
C1 C3 C6 C11 -128.6(3) 2_766 .
C2 C3 C6 C11 -57.2(4) . .
C4 C3 C6 C11 85.1(3) . .
C1 C3 C6 C7 53.6(4) 2_766 .
C2 C3 C6 C7 125.1(3) . .
C4 C3 C6 C7 -92.6(3) . .
C11 C6 C7 C8 -2.1(5) . .
C3 C6 C7 C8 175.7(3) . .
C6 C7 C8 C9 0.5(5) . .
C7 C8 C9 C10 1.9(5) . .
C7 C8 C9 Br1 -177.8(2) . .
C8 C9 C10 C11 -2.5(5) . .
Br1 C9 C10 C11 177.1(3) . .
C7 C6 C11 C10 1.4(5) . .
C3 C6 C11 C10 -176.4(3) . .
C9 C10 C11 C6 0.9(5) . .
