#------------------------------------------------------------------------------
#$Date: 2019-11-23 14:55:46 +0200 (Sat, 23 Nov 2019) $
#$Revision: 233727 $
#$URL: file:///home/coder/svn-repositories/cod/cif/1/55/32/1553236.cif $
#------------------------------------------------------------------------------
#
# This file is available in the Crystallography Open Database (COD),
# http://www.crystallography.net/
#
# All data on this site have been placed in the public domain by the
# contributors.
#
data_1553236
loop_
_publ_author_name
'Song, Lu'
'Luo, Sanzhong'
'Cheng, Jin-Pei'
_publ_section_title
;
 Visible-light promoted intermolecular halofunctionalization of alkenes
 with N-halogen saccharins
;
_journal_issue                   4
_journal_name_full               'Organic Chemistry Frontiers'
_journal_page_first              447
_journal_paper_doi               10.1039/C5QO00432B
_journal_volume                  3
_journal_year                    2016
_chemical_formula_moiety         'C16 H14 Br N O3 S'
_chemical_formula_sum            'C16 H14 Br N O3 S'
_chemical_formula_weight         380.25
_space_group_crystal_system      triclinic
_space_group_IT_number           2
_space_group_name_Hall           '-P 1'
_space_group_name_H-M_alt        'P -1'
_atom_sites_solution_hydrogens   mixed
_atom_sites_solution_primary     direct
_audit_creation_date             2015-02-12
_audit_creation_method
;
Olex2 1.2
(compiled 2015.01.26 svn.r3150 for OlexSys, GUI svn.r4998)
;
_audit_update_record
;
2015-10-08 deposited with the CCDC.
2016-01-25 downloaded from the CCDC.
;
_cell_angle_alpha                87.089(10)
_cell_angle_beta                 73.797(9)
_cell_angle_gamma                70.74(7)
_cell_formula_units_Z            2
_cell_length_a                   8.3045(15)
_cell_length_b                   9.415(2)
_cell_length_c                   11.190(2)
_cell_measurement_reflns_used    2724
_cell_measurement_temperature    173.1500
_cell_measurement_theta_max      27.4815
_cell_measurement_theta_min      2.2938
_cell_volume                     792.3(4)
_computing_cell_refinement       'CrystalClear (Rigaku Inc., 2007)'
_computing_data_collection       'CrystalClear (Rigaku Inc., 2007)'
_computing_data_reduction        'CrystalClear (Rigaku Inc., 2007)'
_computing_molecular_graphics    'Olex2 (Dolomanov et al., 2009)'
_computing_publication_material  'CIFTAB (Sheldrick, 2013)'
_computing_structure_refinement  'SHELXL (Sheldrick, 2014)'
_computing_structure_solution
;
'SHELXT (Sheldrick, 2014)'

;
_diffrn_ambient_temperature      173.1500
_diffrn_detector_area_resol_mean 28.5714
_diffrn_measured_fraction_theta_full 0.994
_diffrn_measured_fraction_theta_max 0.993
_diffrn_measurement_details
;
scan:
	Number of images: 360
	           Slice: -110.0000 - 70.0000
	     Image width: 0.5000
	        Exp time: 5.0000
	   Rotation axis: Omega
	           Omega: 0.0000
	             Chi: 45.0000
	             Phi: 90.0000
	             XTD: 40.0801
	          2theta: -20.0701
scan:
	Number of images: 360
	           Slice: -110.0000 - 70.0000
	     Image width: 0.5000
	        Exp time: 5.0000
	   Rotation axis: Omega
	           Omega: 0.0000
	             Chi: 45.0000
	             Phi: 270.0000
	             XTD: 40.0801
	          2theta: -20.0701
scan:
	Number of images: 360
	           Slice: -110.0000 - 70.0000
	     Image width: 0.5000
	        Exp time: 5.0000
	   Rotation axis: Omega
	           Omega: 0.0000
	             Chi: 45.0000
	             Phi: 180.0000
	             XTD: 40.0801
	          2theta: -20.0701
;
_diffrn_measurement_device
;
Saturn724+ (2x2 bin mode)
;
_diffrn_measurement_device_details
;
AFC10: Fixed Chi 2 circle
;
_diffrn_measurement_device_type  'Saturn724+ CCD'
_diffrn_measurement_method       '\w scans at fixed \c = 45\%'
_diffrn_orient_matrix_type       d*Trek
_diffrn_orient_matrix_UB_11      -0.0331
_diffrn_orient_matrix_UB_12      -0.0552
_diffrn_orient_matrix_UB_13      0.1162
_diffrn_orient_matrix_UB_21      -0.0342
_diffrn_orient_matrix_UB_22      -0.0669
_diffrn_orient_matrix_UB_23      -0.0839
_diffrn_orient_matrix_UB_31      0.0868
_diffrn_orient_matrix_UB_32      -0.0284
_diffrn_orient_matrix_UB_33      -0.0184
_diffrn_radiation_detector       CCD
_diffrn_radiation_monochromator  'Graphite Monochromator'
_diffrn_radiation_type           MoK\a
_diffrn_radiation_wavelength     0.71073
_diffrn_reflns_av_R_equivalents  0.0318
_diffrn_reflns_av_unetI/netI     0.0274
_diffrn_reflns_Laue_measured_fraction_full 0.994
_diffrn_reflns_Laue_measured_fraction_max 0.993
_diffrn_reflns_limit_h_max       10
_diffrn_reflns_limit_h_min       -10
_diffrn_reflns_limit_k_max       11
_diffrn_reflns_limit_k_min       -12
_diffrn_reflns_limit_l_max       14
_diffrn_reflns_limit_l_min       -14
_diffrn_reflns_number            10014
_diffrn_reflns_point_group_measured_fraction_full 0.994
_diffrn_reflns_point_group_measured_fraction_max 0.993
_diffrn_reflns_theta_full        26.000
_diffrn_reflns_theta_max         27.499
_diffrn_reflns_theta_min         2.705
_diffrn_source                   'Sealed Tube'
_diffrn_source_current           30.0000
_diffrn_source_power             1.5000
_diffrn_source_voltage           50.0000
_exptl_absorpt_coefficient_mu    2.737
_exptl_absorpt_correction_T_max  1.0000
_exptl_absorpt_correction_T_min  0.7606
_exptl_absorpt_correction_type   multi-scan
_exptl_absorpt_process_details   'CrystalClear (Rigaku Inc., 2007)'
_exptl_crystal_colour            Colorless
_exptl_crystal_density_diffrn    1.594
_exptl_crystal_description       block
_exptl_crystal_F_000             384
_exptl_crystal_size_max          0.44
_exptl_crystal_size_mid          0.28
_exptl_crystal_size_min          0.23
_refine_diff_density_max         0.422
_refine_diff_density_min         -0.417
_refine_diff_density_rms         0.075
_refine_ls_extinction_method     none
_refine_ls_goodness_of_fit_ref   1.152
_refine_ls_hydrogen_treatment    constr
_refine_ls_matrix_type           full
_refine_ls_number_parameters     219
_refine_ls_number_reflns         3615
_refine_ls_number_restraints     27
_refine_ls_restrained_S_all      1.148
_refine_ls_R_factor_all          0.0361
_refine_ls_R_factor_gt           0.0333
_refine_ls_shift/su_max          0.001
_refine_ls_shift/su_mean         0.000
_refine_ls_structure_factor_coef Fsqd
_refine_ls_weighting_details
'w=1/[\s^2^(Fo^2^)+(0.0357P)^2^+0.4345P] where P=(Fo^2^+2Fc^2^)/3'
_refine_ls_weighting_scheme      calc
_refine_ls_wR_factor_gt          0.0834
_refine_ls_wR_factor_ref         0.0850
_reflns_Friedel_coverage         0.000
_reflns_number_gt                3405
_reflns_number_total             3615
_reflns_threshold_expression     'I > 2\s(I)'
_cod_data_source_file            c5qo00432b2.cif
_cod_data_source_block           sa3947
_cod_original_cell_volume        792.4(4)
_cod_database_code               1553236
_shelx_space_group_comment
;
The symmetry employed for this shelxl refinement is uniquely defined
by the following loop, which should always be used as a source of
symmetry information in preference to the above space-group names.
They are only intended as comments.
;
_diffrn_number_total             3617
_olex2_refinement_description
;
1. Fixed Uiso
 At 1.2 times of:
  All C(H) groups, All C(H,H) groups
 At 1.5 times of:
  All C(H,H,H) groups
2. Restrained distances
 C16-C15
 1.54 with sigma of 0.01
 C16A-C15
 1.54 with sigma of 0.01
 C16A-Br1A
 2.8 with sigma of 0.01
3. Uiso/Uaniso restraints and constraints
Br1A \\sim C16 \\sim C16A \\sim Br1: within 1.7A with sigma of 0.02 and sigma
for terminal atoms of 0.04
Uanis(C16) \\sim Ueq: with sigma of 0.01 and sigma for terminal atoms of 0.02
Uanis(C16A) \\sim Ueq: with sigma of 0.005 and sigma for terminal atoms of 0.01
4. Others
 Sof(H15A)=Sof(Br1A)=Sof(C16A)=Sof(H16D)=Sof(H16E)=Sof(H16F)=1-FVAR(1)
 Sof(Br1)=Sof(H15)=Sof(C16)=Sof(H16A)=Sof(H16B)=Sof(H16C)=FVAR(1)
5.a Riding coordinates:
 C16A(H16D,H16E,H16F)
5.b Ternary CH refined with riding coordinates:
 C8(H8), C15(H15), C15(H15A)
5.c Aromatic/amide H refined with riding coordinates:
 C2(H2), C3(H3), C4(H4), C5(H5), C10(H10), C11(H11), C12(H12), C13(H13),
 C14(H14)
5.d Idealised Me refined as rotating group:
 C16(H16A,H16B,H16C)
;
_shelx_res_file
;
    sa3947.res created by SHELXL-2014/7

TITL sa3947_a.res in P-1
CELL 0.71073 8.3045 9.4151 11.1904 87.089 73.797 70.744
ZERR 2 0.0015 0.0021 0.0024 0.01 0.009 0.07
LATT 1
SFAC C H Br N O S
UNIT 32 28 2 2 6 2
DFIX 1.54 0.01 C16 C15
DFIX 1.54 0.01 C16A C15
DANG 2.8 0.01 C16A Br1A
SIMU 0.02 0.04 1.7 Br1A C16 C16A Br1
ISOR 0.01 0.02 C16
ISOR 0.005 0.01 C16A

L.S. 4 0 0
PLAN  20
BOND $H
LIST 6
fmap 2 53
MORE -1
ACTA 52
CONF
OMIT 0 1 0
OMIT 0 0 1
REM <olex2.extras>
REM <HklSrc "%.\\sa3947.hkl">
REM </olex2.extras>

WGHT    0.035700    0.434500
FVAR       0.98323   0.93034
PART 1
BR1   3   -0.043639    0.822428    0.058475    21.00000    0.04676    0.04031 =
         0.05586    0.01848   -0.03299   -0.01425
PART 0
S1    6    0.502778    0.447549    0.199950    11.00000    0.01724    0.02257 =
         0.02116   -0.00102   -0.00241   -0.00503
O1    5    0.491720    0.353499    0.108447    11.00000    0.03332    0.02786 =
         0.02342   -0.00708   -0.00365   -0.00588
O2    5    0.634318    0.519567    0.163550    11.00000    0.02171    0.04115 =
         0.03709    0.00409   -0.00294   -0.01474
O3    5    0.083802    0.644656    0.446432    11.00000    0.02725    0.02721 =
         0.02556   -0.00444    0.00179   -0.00622
N1    4    0.303198    0.575987    0.261059    11.00000    0.01869    0.01865 =
         0.01915   -0.00083   -0.00374   -0.00426
C1    1    0.503306    0.358039    0.341225    11.00000    0.02340    0.02584 =
         0.02443    0.00210   -0.00850   -0.00888
C2    1    0.632111    0.230717    0.362265    11.00000    0.02948    0.03507 =
         0.04194    0.00389   -0.01451   -0.00274
AFIX  43
H2    2    0.733639    0.181565    0.299375    11.00000   -1.20000
AFIX   0
C3    1    0.601655    0.179811    0.483023    11.00000    0.04414    0.04028 =
         0.05092    0.01682   -0.02825   -0.00804
AFIX  43
H3    2    0.684094    0.093450    0.501192    11.00000   -1.20000
AFIX   0
C4    1    0.450820    0.255271    0.576848    11.00000    0.05116    0.04620 =
         0.03512    0.01668   -0.02270   -0.02357
AFIX  43
H4    2    0.435185    0.219759    0.656925    11.00000   -1.20000
AFIX   0
C5    1    0.323422    0.382623    0.552817    11.00000    0.03715    0.03837 =
         0.02394    0.00530   -0.00938   -0.01878
AFIX  43
H5    2    0.222166    0.432695    0.615555    11.00000   -1.20000
AFIX   0
C6    1    0.350865    0.433435    0.432800    11.00000    0.02416    0.02464 =
         0.02338   -0.00006   -0.00696   -0.01224
C7    1    0.228189    0.563257    0.386597    11.00000    0.02278    0.01958 =
         0.02026   -0.00299   -0.00309   -0.00913
C8    1    0.223181    0.692175    0.179813    11.00000    0.02127    0.01910 =
         0.01942    0.00121   -0.00458   -0.00574
AFIX  13
H8    2    0.300041    0.664747    0.094577    11.00000   -1.20000
AFIX   0
C9    1    0.227008    0.845485    0.213924    11.00000    0.02726    0.01912 =
         0.02407    0.00192   -0.00957   -0.00737
C10   1    0.373315    0.887707    0.151515    11.00000    0.03259    0.02679 =
         0.02966    0.00158   -0.00462   -0.01293
AFIX  43
H10   2    0.463478    0.824165    0.088809    11.00000   -1.20000
AFIX   0
C11   1    0.385387    1.024139    0.182357    11.00000    0.04514    0.03278 =
         0.04561    0.00760   -0.01347   -0.02371
AFIX  43
H11   2    0.483632    1.051658    0.140718    11.00000   -1.20000
AFIX   0
C12   1    0.250871    1.118970    0.275181    11.00000    0.05162    0.02083 =
         0.04929    0.00351   -0.02629   -0.01395
AFIX  43
H12   2    0.259044    1.210253    0.295963    11.00000   -1.20000
AFIX   0
C13   1    0.104211    1.078792    0.337295    11.00000    0.04018    0.02118 =
         0.03840   -0.00610   -0.01426   -0.00235
AFIX  43
H13   2    0.013816    1.143153    0.399366    11.00000   -1.20000
AFIX   0
C14   1    0.092196    0.941807    0.306703    11.00000    0.02858    0.02350 =
         0.03216   -0.00136   -0.00634   -0.00651
AFIX  43
H14   2   -0.006313    0.914718    0.348477    11.00000   -1.20000
AFIX   0
C15   1    0.041773    0.683091    0.180876    11.00000    0.02270    0.02678 =
         0.02679    0.00417   -0.00918   -0.00773
PART 1
AFIX  13
H15   2   -0.041091    0.715385    0.263743    21.00000   -1.20000
AFIX  13
PART 0
PART 2
H15A  2   -0.023580    0.702134    0.269325   -21.00000   -1.20000
AFIX   0
PART 0
PART 1
C16   1    0.049085    0.523566    0.146077    21.00000    0.02950    0.05237 =
         0.03223    0.00195   -0.01140   -0.01500
AFIX 137
H16A  2   -0.064336    0.527652    0.137808    21.00000   -1.50000
H16B  2    0.077831    0.456548    0.210278    21.00000   -1.50000
H16C  2    0.138293    0.487586    0.068568    21.00000   -1.50000
AFIX   0
PART 0
PART 2
BR1A  3    0.055488    0.491034    0.153390   -21.00000    0.03174    0.06077 =
         0.04059   -0.00030   -0.01233   -0.02048
C16A  1   -0.084160    0.799983    0.118503   -21.00000    0.07467    0.08169 =
         0.07177    0.00855   -0.02906   -0.02051
AFIX   3
H16D  2   -0.026070    0.868563    0.076073   -21.00000   -1.50000
H16E  2   -0.190750    0.854883    0.180283   -21.00000   -1.50000
H16F  2   -0.113560    0.749283    0.059543   -21.00000   -1.50000
AFIX   0
HKLF 4

REM  sa3947_a.res in P-1
REM R1 =  0.0333 for    3405 Fo > 4sig(Fo)  and  0.0361 for all    3615 data
REM    219 parameters refined using     27 restraints

END

WGHT      0.0357      0.4345

REM Highest difference peak  0.422,  deepest hole -0.417,  1-sigma level  0.075
Q1    1  -0.0806  0.8819  0.1131  11.00000  0.05    0.42
Q2    1   0.0556  0.8152  0.0198  11.00000  0.05    0.31
Q3    1   0.5190  0.3973  0.2706  11.00000  0.05    0.29
Q4    1  -0.2222  0.8439  0.1179  11.00000  0.05    0.28
Q5    1   0.0602  0.4470  0.2369  11.00000  0.05    0.28
Q6    1   0.1212  0.6909  0.1735  11.00000  0.05    0.27
Q7    1   0.3201  0.3978  0.4772  11.00000  0.05    0.26
Q8    1   0.4165  0.3316  0.5609  11.00000  0.05    0.26
Q9    1   0.0319  0.7180 -0.0426  11.00000  0.05    0.26
Q10   1   0.2859  0.4921  0.4219  11.00000  0.05    0.25
Q11   1   0.2145  0.7769  0.1941  11.00000  0.05    0.25
Q12   1   0.3342  1.0543  0.2570  11.00000  0.05    0.25
Q13   1  -0.1994  0.9400  0.0932  11.00000  0.05    0.25
Q14   1   0.4364  0.4112  0.3994  11.00000  0.05    0.25
Q15   1   0.5525  0.9935  0.1748  11.00000  0.05    0.25
Q16   1   0.3830  0.5346  0.2361  11.00000  0.05    0.24
Q17   1  -0.0433  0.7212 -0.1001  11.00000  0.05    0.22
Q18   1   0.1755  0.8922  0.2539  11.00000  0.05    0.22
Q19   1  -0.0852  0.7550  0.2417  11.00000  0.05    0.22
Q20   1   0.4075  0.1737  0.6468  11.00000  0.05    0.22
;
_shelx_res_checksum              15163
_shelx_hkl_file
;
   0   0   1   -0.22    0.12
   0   0  -1   -0.03    0.19
   0   0   2  349.93    8.47
   0   0   2  338.33    8.28
   0   0   2  347.25    8.51
   0   0  -3 1975.58   13.23
   0   0   3 1932.52   12.94
   0   0  -3 1856.22   12.90
   0   0   3 1892.97   13.08
   0   0   3 1935.31   13.44
   0   0  -4  469.83   11.44
   0   0   4  437.34   10.70
   0   0   4  428.68   10.87
   0   0  -4  455.35   11.37
   0   0  -5  227.89    3.28
   0   0   5  216.24    2.54
   0   0   5  219.67    3.06
   0   0  -5  230.87    3.42
   0   0   5  226.78    3.34
   0   0  -6    4.58    0.85
   0   0   6    7.05    0.93
   0   0   6    6.87    1.18
   0   0   6    9.65    2.15
   0   0  -6    5.17    1.22
   0   0   6    4.35    1.22
   0   0  -7  302.93   15.53
   0   0   7  286.38   14.87
   0   0   7  304.28   15.90
   0   0  -7  310.37   16.31
   0   0  -8 1754.15   33.26
   0   0   8 1612.35   30.64
   0   0   8 1788.65   34.95
   0   0  -8 1798.36   34.87
   0   0  -9  175.53   12.67
   0   0   9  156.11   11.32
   0   0   9  178.79   13.86
   0   0  -9  170.42   12.75
   0   0  10  114.53    7.86
   0   0 -10  108.90   10.67
   0   0  11   21.60    2.66
   0   0  11   23.20    4.01
   0   0 -11   27.40    4.34
   0   0  12   18.28    4.02
   0   0 -12   25.74    5.49
   0   0  13   63.72    7.65
   0   0 -13   64.75    8.94
   0  -1  13  121.56    7.42
   0   1 -13  127.04    6.98
   0  -1  12  132.89    7.04
   0  -1  11    8.49    1.82
   0  -1  11   13.46    5.41
   0   1 -11    7.01    1.91
   0  -1  10    3.35    1.25
   0  -1  10    6.30    2.98
   0   1 -10    5.43    1.67
   0  -1   9   17.91    1.92
   0  -1   9   24.79    2.77
   0  -1   9   21.65    2.87
   0   1  -9   27.75    3.76
   0  -1   8  282.01    6.14
   0  -1   8  303.01    7.77
   0   1  -8  323.70    7.62
   0   1  -7 1235.75   17.18
   0  -1   7 1106.87   15.51
   0  -1   7 1187.97   17.42
   0   1  -7 1143.67   16.88
   0   1  -6  463.58    7.31
   0  -1   6  442.22   22.80
   0   1  -6  454.94   23.58
   0  -1   6  419.54   17.02
   0   1  -6  465.78    7.64
   0  -1   6  466.30    7.55
   0   1  -5 6927.13  274.46
   0  -1   5 6532.63  258.83
   0   1  -5 7144.98  283.15
   0  -1   5 6417.00  254.40
   0   1  -5 6928.51  274.59
   0  -1   5 6763.73  268.04
   0   1  -4  215.71    5.54
   0  -1   4  209.18    5.37
   0   1  -4  218.67    5.77
   0  -1   4  208.03    5.44
   0   1  -4  215.34    5.98
   0  -1   4  208.81    5.92
   0   1  -3  176.00    4.54
   0   1  -3  172.35    4.58
   0   1  -3  180.40    4.67
   0  -1   3  175.47    4.51
   0  -1   2  782.45    5.67
   0  -1   2  800.48    5.92
   0  -1   2  832.32    6.03
   0   1  -1  133.72    3.35
   0  -1   1  124.03    3.07
   0  -1   0    0.26    0.19
   0   1   2 3875.08   25.66
   0   1   2 4060.63   26.75
   0   1   3 9806.84   65.26
   0  -1  -3 9999.00   66.91
   0   1   3 9550.49   63.51
   0  -1  -4  254.40    6.42
   0   1   4  244.13    6.14
   0   1   4  251.24    6.62
   0   1   4  252.77    6.95
   0   1   4  245.12    6.48
   0  -1  -5  133.22    2.06
   0   1   5  128.60    2.12
   0   1   5  126.55    2.32
   0   1   5  130.14    3.60
   0  -1  -6  301.41   12.46
   0   1   6  293.71   11.94
   0   1   6  295.81   12.65
   0  -1  -6  310.27   12.99
   0  -1  -7   51.09    4.47
   0   1   7   47.38    2.85
   0   1   7   43.04    3.53
   0  -1  -7   59.27    7.34
   0  -1  -8  208.46   10.69
   0   1   8  190.85    9.61
   0   1   8  207.92   11.43
   0  -1  -8  215.67   11.49
   0  -1  -9  250.97    6.32
   0   1   9  217.61    5.66
   0   1   9  246.16    8.62
   0  -1  -9  235.95    7.37
   0  -1 -10  156.71    6.78
   0   1  10  147.94    7.63
   0  -1 -10  156.23    7.50
   0   1  11  542.41   19.28
   0  -1 -11  536.49   19.43
   0   1  12   26.51    5.54
   0  -1 -12   25.37    5.47
   0   1  13    1.78    3.03
   0  -1 -13   -2.26    2.44
   0  -2  13  103.10    6.48
   0  -2  12   41.12    4.77
   0   2 -12   38.92    3.59
   0  -2  11   12.70    2.35
   0  -2  11    2.82    2.59
   0   2 -11    8.77    1.96
   0  -2  10   12.66    1.87
   0  -2  10   10.88    3.66
   0   2 -10   12.95    1.82
   0  -2   9  351.29    8.46
   0  -2   9  349.22    9.20
   0   2  -9  369.57    9.06
   0  -2   8  200.16   10.14
   0  -2   8  225.72   11.72
   0   2  -8  220.29   11.45
   0   2  -8  232.52   12.02
   0  -2   7   99.13    5.58
   0  -2   7  112.10    6.46
   0   2  -7  106.62    6.12
   0   2  -7  105.49    5.94
   0  -2   7  106.02    5.83
   0  -2   6  104.54    4.68
   0  -2   6  112.95    5.24
   0   2  -6  108.54    5.34
   0  -2   6  107.17    4.89
   0   2  -6  119.38    5.48
   0  -2   6  108.14    4.75
   0  -2   5   62.82    4.01
   0  -2   5   64.37    2.08
   0   2  -5   63.25    3.16
   0  -2   5   72.32    2.19
   0  -2   5   62.53    3.82
   0  -2   4 2677.19   18.44
   0  -2   4 2583.74   18.08
   0   2  -4 2734.21   18.79
   0  -2   4 2603.90   17.96
   0  -2   4 2710.34   18.38
   0  -2   4 2663.79   18.14
   0   2  -3 4370.72   29.07
   0  -2   3 4196.59   27.72
   0  -2   3 4261.96   27.63
   0  -2   3 4356.14   28.42
   0  -2   1  409.80   10.31
   0   2  -1  383.43    9.32
   0   2   0   39.70    1.59
   0   2   0   40.18    1.75
   0  -2   0   42.78    1.57
   0  -2   0   44.69    1.57
   0  -2  -1   27.54    1.69
   0   2   1   23.87    1.45
   0  -2  -1   23.12    1.57
   0  -2  -1   21.30    1.31
   0   2   1   20.33    1.03
   0  -2  -2   15.84    1.59
   0   2   2   14.03    1.54
   0  -2  -2   12.59    1.10
   0  -2  -2   11.43    1.08
   0  -2  -3   50.34    1.90
   0   2   3   52.87    1.89
   0  -2  -3   50.61    2.09
   0  -2  -3   54.40    2.44
   0  -2  -4 1123.89    8.58
   0   2   4 1094.64    8.32
   0   2   4 1130.00    9.65
   0   2   4 1095.41    9.19
   0  -2  -5  736.41    6.39
   0   2   5  683.17    7.28
   0  -2  -5  719.36    7.36
   0  -2  -6 2577.61   36.31
   0   2   6 2408.63   34.00
   0   2   6 2532.48   36.78
   0  -2  -7  482.00    9.70
   0   2   7  446.35    9.00
   0   2   7  450.59   10.34
   0  -2  -7  492.05   11.10
   0  -2  -8   32.39    4.46
   0   2   8   25.96    2.45
   0   2   8   27.64    4.03
   0  -2  -8   34.90    5.86
   0  -2  -9   63.53    4.64
   0   2   9   56.07    3.84
   0   2   9   67.26    6.90
   0  -2  -9   69.03   12.14
   0  -2 -10  268.25   35.75
   0   2  10  270.46   10.74
   0  -2 -10  266.96   36.88
   0   2  11   21.07    4.05
   0  -2 -11   38.32    5.95
   0   2  12   70.39    7.57
   0  -2 -12   55.55    8.20
   0   2  13   46.67    6.16
   0  -2 -13   35.40    6.73
   0  -3  13   22.96    3.88
   0  -3  13   22.47    3.43
   0  -3  12  219.72    7.35
   0  -3  12  216.12    8.45
   0  -3  12  214.72    7.99
   0  -3  11  284.17    9.63
   0  -3  11  295.83   10.32
   0  -3  11  277.82    9.72
   0  -3  10  199.09    9.26
   0  -3  10  201.94   20.90
   0  -3  10  190.57    8.94
   0  -3   9   77.49    5.65
   0   3  -9   72.22    5.09
   0  -3   9   66.40    5.07
   0  -3   8   35.05    3.70
   0   3  -8   38.66    3.35
   0  -3   8   28.71    2.54
   0  -3   8   32.81    3.27
   0  -3   7 1523.23   29.59
   0   3  -7 1577.62   30.47
   0  -3   7 1463.73   27.95
   0  -3   7 1558.94   30.00
   0  -3   6  888.44   13.17
   0  -3   6  971.07   14.35
   0   3  -6  999.89   14.36
   0  -3   6  955.07   13.80
   0  -3   6  994.47   13.95
   0  -3   6 1048.02   15.02
   0  -3   5   43.29    5.52
   0  -3   5   47.65    2.80
   0   3  -5   46.98    2.70
   0  -3   5   52.63    2.73
   0  -3   5   50.80    2.57
   0  -3   5   58.48    3.08
   0  -3   4  303.99    3.78
   0  -3   4  318.61    4.68
   0   3  -4  310.47    3.64
   0  -3   4  307.55    3.77
   0  -3   4  298.16    2.86
   0  -3   4  310.76    3.52
   0  -3   3   32.99    2.04
   0   3  -3   36.75    2.10
   0   3  -3   36.87    1.51
   0  -3   3   33.28    1.45
   0  -3   3   37.35    1.52
   0  -3   2   20.29    1.80
   0   3  -2   19.95    1.34
   0  -3   2   17.53    1.20
   0  -3   2   17.49    0.91
   0   3  -2   18.63    1.10
   0  -3   1 1447.41   11.21
   0   3  -1 1574.58   11.56
   0  -3   1 1451.68   10.50
   0  -3   1 1561.46   10.87
   0   3  -1 1500.38   10.55
   0   3   0 3460.18   23.61
   0   3   0 3647.58   24.63
   0  -3   0 3757.66   24.98
   0   3   0 3553.63   23.71
   0   3   1 3562.19   24.26
   0   3   1 3574.78   24.15
   0  -3  -2 1118.83    9.09
   0   3   2 1038.19    8.42
   0   3   2 1112.19    9.39
   0  -3  -2 1061.02    8.59
   0  -3  -2 1120.27    9.16
   0  -3  -3   27.96    1.87
   0   3   3   23.67    1.64
   0  -3  -3   25.92    1.59
   0  -3  -3   31.83    2.09
   0   3   3   28.35    1.82
   0  -3  -4   32.95    1.97
   0   3   4   35.16    1.62
   0   3   4   33.63    2.23
   0  -3  -4   27.09    2.28
   0  -3  -5  117.58    5.27
   0   3   5  114.21    5.10
   0   3   5  129.37    7.14
   0  -3  -5  107.85    5.33
   0  -3  -6   76.84    4.49
   0   3   6   70.49    4.13
   0   3   6   71.11    5.00
   0  -3  -6   72.40    7.44
   0  -3  -7   70.14    4.07
   0   3   7   71.40    4.15
   0   3   7   71.48    5.22
   0  -3  -7   90.41    9.37
   0  -3  -8  311.14    7.81
   0   3   8  287.64    7.29
   0   3   8  293.76    9.59
   0  -3  -8  322.57    9.58
   0  -3  -9 1552.13   40.82
   0   3   9 1473.09   40.10
   0  -3  -9 1564.75   42.15
   0  -3 -10    2.62    0.91
   0   3  10    1.49    3.12
   0  -3 -10    0.95    2.20
   0   3  11   64.59    5.44
   0  -3 -11   69.27    8.12
   0   3  12   13.53    4.05
   0  -3 -12    7.34    2.07
   0   3  13   22.87    6.68
   0  -3 -13    4.06    2.18
   0  -4  13    4.26    2.31
   0  -4  12  101.73    5.67
   0  -4  12  122.46    6.78
   0  -4  11  243.58    6.52
   0  -4  11  243.31    6.64
   0  -4  11  257.06    6.86
   0  -4  10   12.50    3.40
   0   4 -10    5.43    2.05
   0  -4  10    6.94    2.43
   0  -4   9   41.82    3.95
   0   4  -9   39.51    3.49
   0  -4   8  126.49    8.50
   0   4  -8  114.00    7.66
   0  -4   8   96.41    6.14
   0  -4   8  108.37    7.06
   0  -4   7   16.30    2.23
   0   4  -7   25.09    4.54
   0  -4   7   16.63    3.05
   0  -4   7   24.60    2.69
   0  -4   6 1113.42   22.27
   0   4  -6 1124.45   21.95
   0  -4   6  944.07   18.49
   0  -4   6 1042.60   19.91
   0  -4   6 1085.86   20.97
   0  -4   5 2085.57   30.63
   0   4  -5 2044.41   29.21
   0  -4   5 1882.88   27.10
   0  -4   5 1971.29   27.73
   0  -4   5 2046.55   28.98
   0   4  -4 2710.43   38.41
   0  -4   4 2492.37   35.36
   0  -4   4 2477.93   34.61
   0  -4   4 2688.92   37.66
   0   4  -3  688.39    6.52
   0  -4   3  657.12    6.02
   0  -4   3  696.54    5.62
   0   4  -3  686.08    5.60
   0  -4   2   43.15    2.36
   0   4  -2   63.07    2.41
   0  -4   2   49.97    2.02
   0  -4   2   43.63    1.42
   0   4  -2   45.12    1.38
   0  -4   1  115.72    3.02
   0   4  -1  109.53    2.45
   0   4  -1  116.35    2.45
   0  -4   1  121.43    2.80
   0  -4   1  119.93    2.23
   0   4  -1  111.79    1.95
   0   4   0  554.93    5.85
   0   4   0  586.18    6.20
   0  -4   0  562.81    5.57
   0  -4   0  595.70    5.56
   0   4   0  565.01    5.39
   0   4   1    0.50    1.76
   0  -4  -1    2.88    0.85
   0  -4  -1    4.11    1.22
   0   4   1    3.18    0.55
   0  -4  -2 1108.17    9.52
   0   4   2 1072.08    9.18
   0  -4  -3 1880.16   15.16
   0  -4  -4 3912.61  199.95
   0  -4  -4 3871.39   55.08
   0  -4  -5    8.22    1.45
   0   4   5   11.99    1.54
   0   4   5   10.14    2.55
   0  -4  -5    8.83    1.53
   0  -4  -6   32.30    2.36
   0   4   6   26.65    2.08
   0   4   6   26.37    3.21
   0  -4  -6   34.40    4.60
   0  -4  -7  186.10   13.54
   0   4   7  160.74   11.72
   0   4   7  182.55   14.27
   0  -4  -7  176.25   21.04
   0  -4  -8   34.52    2.80
   0   4   8   28.55    2.31
   0   4   8   42.70    5.61
   0  -4  -8   37.72    4.63
   0  -4  -9  574.94   19.06
   0   4   9  558.03   20.25
   0  -4 -10   62.42    3.37
   0   4  10   51.29    5.96
   0  -4 -10   64.39    8.74
   0   4  11   50.19    4.97
   0  -4 -11   83.05   10.87
   0   4  12  125.78    7.75
   0  -4 -12  126.85   15.06
   0  -5  12   18.01    2.66
   0  -5  12   14.27    2.85
   0  -5  11   29.15    3.59
   0   5 -11   28.88    3.43
   0  -5  10  111.82    5.96
   0   5 -10  111.58    5.50
   0  -5  10  123.45    5.90
   0  -5   9  329.21    9.86
   0   5  -9  319.28    9.04
   0  -5   9  319.19    8.69
   0  -5   8  445.84   13.45
   0   5  -8  448.19   12.58
   0  -5   8  462.39   12.81
   0  -5   7   20.60    3.11
   0   5  -7   23.23    3.18
   0  -5   7   11.01    2.10
   0  -5   7   18.21    1.83
   0  -5   6   44.16    4.67
   0   5  -6   48.33    7.08
   0  -5   6   34.77    3.21
   0  -5   6   37.00    3.62
   0  -5   6   44.64    3.80
   0  -5   5  286.16    7.33
   0   5  -5  281.79    6.32
   0  -5   5  277.23   21.41
   0  -5   5  257.41   13.00
   0  -5   5  282.88    5.90
   0  -5   4   11.61    2.16
   0   5  -4   10.04    1.44
   0  -5   4    9.84    1.37
   0  -5   4   10.57    1.08
   0   5  -4   12.00    1.07
   0  -5   3 1159.20   18.13
   0   5  -3 1141.68   17.05
   0  -5   3 1074.95   15.94
   0  -5   3 1175.49   16.88
   0   5  -3 1141.41   16.44
   0  -5   2 4026.47  205.89
   0   5  -2 4014.77  205.14
   0  -5   2 3649.51   51.35
   0  -5   2 3908.73  199.57
   0   5  -2 3603.15   50.46
   0  -5   1  465.45    8.67
   0   5  -1  427.03   17.50
   0  -5   1  416.09   16.93
   0  -5   1  460.65    7.39
   0   5  -1  399.96   16.23
   0   5   0  375.32   15.59
   0  -5   0  387.40   15.90
   0  -5   0  410.90   16.71
   0   5   0  379.26   15.46
   0  -5  -1  148.25    7.07
   0   5   1  145.81    7.14
   0  -5  -1  131.53    5.89
   0  -5  -1  144.38    6.51
   0   5   1  133.22    5.85
   0  -5  -2   88.93    4.59
   0   5   2   91.13    4.79
   0  -5  -2   89.16    4.91
   0  -5  -3  116.15    7.02
   0   5   3  111.89    7.11
   0  -5  -3  127.69    7.34
   0  -5  -4  823.86   12.82
   0   5   4  850.12   14.44
   0  -5  -4  885.42   14.14
   0  -5  -5  595.51   12.64
   0   5   5  581.59   13.08
   0  -5  -5  567.43   12.46
   0  -5  -6 2389.55  144.30
   0  -5  -6 2254.28   51.87
   0  -5  -7 1496.54   31.97
   0   5   7 1407.17   31.06
   0  -5  -7 1455.97   31.75
   0  -5  -8   27.29    2.58
   0   5   8   37.53    5.42
   0  -5  -8   36.28    6.58
   0  -5  -9  150.62    5.91
   0   5   9  133.28    6.57
   0  -5  -9  154.24   16.40
   0   5  10   11.71    3.53
   0   5  11    4.05    3.65
   0  -5 -11    4.96    2.01
   0   5  12   90.21    8.41
   0  -5 -12   72.26   16.48
   0  -6  12    3.12    2.30
   0  -6  11   54.70    5.77
   0   6 -11   51.04    4.74
   0  -6  10  154.10    7.58
   0   6 -10  157.57    6.53
   0  -6   9   11.63    2.62
   0   6  -9   15.85    2.94
   0  -6   8  162.51    8.88
   0   6  -8  155.16    7.27
   0  -6   8  148.20    6.63
   0  -6   7  758.35   21.54
   0   6  -7  760.34   20.64
   0  -6   7  749.81   19.85
   0  -6   6   85.33    6.99
   0   6  -6   82.18    6.11
   0  -6   6   71.52    4.66
   0  -6   6   84.93    5.41
   0  -6   5 1619.04   31.59
   0   6  -5 1585.31   30.06
   0  -6   5 1482.60   27.44
   0  -6   4   44.62    4.65
   0   6  -4   45.78    4.08
   0  -6   4   35.37    3.19
   0  -6   4   45.92    3.79
   0   6  -4   43.32    3.57
   0  -6   3  134.25    8.36
   0   6  -3  118.08    6.65
   0  -6   3  110.06    6.05
   0  -6   3  121.48    6.41
   0   6  -3  120.57    6.41
   0  -6   2  763.15   12.76
   0   6  -2  773.52   12.09
   0  -6   2  647.41    9.82
   0  -6   2  746.45   10.90
   0   6  -2  661.14    9.81
   0  -6   1 1825.35   26.46
   0   6  -1 1673.57   23.70
   0  -6   1 1740.64   24.07
   0   6  -1 1543.23   21.53
   0  -6   0  714.58   12.54
   0   6   0  686.48   11.01
   0  -6   0  697.32   10.68
   0  -6  -1 1428.27   21.14
   0   6   1 1410.36   20.70
   0  -6  -1 1421.93   20.37
   0  -6  -2  406.79    9.66
   0   6   2  371.09    8.95
   0  -6  -2  372.56    8.62
   0  -6  -3  109.25    6.79
   0   6   3  119.01    7.63
   0  -6  -3  117.63    7.05
   0  -6  -4   15.45    3.24
   0   6   4    3.82    3.20
   0  -6  -4    2.32    1.99
   0  -6  -5  369.62   10.03
   0   6   5  366.33   11.26
   0  -6  -5  379.65   10.67
   0  -6  -6   14.11    2.19
   0   6   6   14.65    2.47
   0  -6  -6   21.77    3.99
   0  -6  -7    7.78    2.52
   0   6   7    7.17    3.27
   0  -6  -7    7.15    2.17
   0  -6  -8  178.66    6.98
   0  -6  -8  182.40   13.14
   0  -6  -9  251.90   17.25
   0   6  10   -0.14    3.26
   0  -6 -10    8.87    2.56
   0   6  11    9.41    4.02
   0  -6 -11    6.90    2.73
   0  -7  11  123.30    8.10
   0  -7  10  326.68   15.00
   0  -7   9   65.09    5.47
   0   7  -9   55.41    6.93
   0  -7   8  153.27    8.63
   0   7  -8  135.36    6.74
   0  -7   7  137.46    7.94
   0   7  -7  147.32    7.03
   0  -7   6  568.90   19.89
   0   7  -6  527.13   17.62
   0  -7   6  527.39   17.09
   0  -7   5   31.82    4.51
   0   7  -5   34.02    3.44
   0  -7   5   23.93    2.15
   0  -7   5   25.72    2.42
   0  -7   4  480.31   12.63
   0   7  -4  482.50   11.31
   0  -7   4  471.88   10.32
   0   7  -4  418.57    9.18
   0  -7   3  866.27   21.53
   0   7  -3  816.83   19.56
   0  -7   3  819.92   18.94
   0   7  -3  776.84   18.11
   0  -7   2  592.48   13.24
   0   7  -2  707.87   14.64
   0  -7   2  692.67   13.64
   0   7  -2  584.56   11.67
   0  -7   1   22.39    3.12
   0   7  -1   23.10    2.93
   0  -7   1   26.38    2.92
   0   7  -1   20.86    2.35
   0  -7   0   15.69    4.34
   0   7   0    8.45    3.54
   0  -7   0    5.82    2.03
   0  -7  -1  142.04    8.79
   0   7   1  134.30    8.14
   0  -7  -1  153.44    8.37
   0  -7  -2   10.91    4.46
   0   7   2   10.19    3.88
   0  -7  -2    3.43    1.97
   0  -7  -3   34.46    4.23
   0   7   3   36.68    4.70
   0  -7  -3   28.56    3.17
   0  -7  -4 1500.38   32.63
   0   7   4 1543.35   33.79
   0  -7  -4 1491.23   32.36
   0  -7  -5  591.15   20.55
   0   7   5  600.81   21.50
   0  -7  -5  581.91   19.97
   0  -7  -6   -0.48    2.03
   0   7   6    4.07    3.52
   0  -7  -6    1.61    1.43
   0  -7  -7    9.21    2.85
   0   7   7    7.27    3.60
   0  -7  -8   10.69    2.21
   0   7   8    8.20    3.73
   0  -7  -8   23.81    5.11
   0  -7  -9   23.88    3.19
   0   7   9   20.66    4.36
   0  -7  -9   41.28    6.18
   0   7  10   10.02    4.12
   0  -7 -10    6.51    2.39
   0  -8  10   14.57    4.58
   0  -8   9  271.42   12.72
   0  -8   8  590.62   20.54
   0   8  -8  545.56   17.96
   0  -8   7  422.68   11.13
   0   8  -7  413.37    9.16
   0  -8   6   78.03    6.25
   0   8  -6   76.27    3.79
   0  -8   5  185.74    9.70
   0   8  -5  215.20    6.68
   0  -8   4  513.47   18.77
   0   8  -4  551.56   18.85
   0  -8   4  523.03   17.12
   0  -8   3   36.90    4.86
   0   8  -3   46.78    5.17
   0  -8   3   43.71    3.97
   0  -8   2   34.82    4.62
   0   8  -2   46.80    4.60
   0  -8   2   45.15    4.13
   0   8  -2   30.33    2.96
   0   8  -1  866.24   23.88
   0  -8   1  913.15   24.52
   0  -8   0  692.72   20.02
   0   8   0  700.07   19.78
   0  -8   0  712.88   19.58
   0  -8  -1    6.64    3.21
   0   8   1    7.36    2.74
   0  -8  -1   -1.26    1.51
   0  -8  -2    5.69    2.61
   0   8   2   13.90    3.42
   0  -8  -2   12.22    2.82
   0  -8  -3   15.68    3.10
   0   8   3    7.89    2.82
   0  -8  -3   13.59    3.45
   0  -8  -4   21.56    4.05
   0   8   4   14.69    3.71
   0  -8  -4   12.77    2.84
   0  -8  -5   14.07    3.01
   0   8   5   13.60    4.73
   0  -8  -5   14.29    2.80
   0  -8  -6  114.24    6.85
   0   8   6  109.77    7.35
   0  -8  -6  119.58   17.15
   0  -8  -7  125.89    9.18
   0   8   7  135.39    8.52
   0  -8  -7  140.36   14.21
   0  -8  -8   12.60    3.07
   0   8   8   12.72    3.94
   0  -8  -8   13.17    3.91
   0   8   9   -0.92    3.72
   0  -8  -9    8.61    3.33
   0  -9   9   15.15    3.50
   0  -9   8  101.70    7.37
   0  -9   7   76.35    9.12
   0  -9   6  346.70   13.55
   0   9  -6  322.86   11.26
   0  -9   5  291.90    8.83
   0   9  -5  257.20    6.45
   0  -9   4  100.77    7.79
   0   9  -4   95.43    5.44
   0  -9   3   96.22    7.13
   0   9  -3  106.50    5.02
   0  -9   3   91.60    3.67
   0  -9   2   35.87    4.43
   0   9  -2   33.49    4.66
   0  -9   2   42.46    2.87
   0   9  -1    8.36    3.13
   0  -9   1    4.62    2.07
   0  -9   0   15.16    4.96
   0   9   0    3.63    2.57
   0  -9   0    5.25    2.22
   0  -9  -1  304.47   12.01
   0   9   1  321.95   12.52
   0  -9  -1  322.50   11.67
   0  -9  -2  650.92   22.81
   0   9   2  681.09   23.63
   0  -9  -2  667.16   22.75
   0  -9  -3   95.73    6.27
   0   9   3  107.85    6.91
   0  -9  -3  102.43    7.80
   0  -9  -4  118.97    7.71
   0   9   4  135.33    7.19
   0  -9  -4  124.03   18.13
   0  -9  -5  126.89    9.64
   0   9   5  137.63    8.21
   0  -9  -5  129.12   25.60
   0  -9  -6   23.76    4.42
   0   9   6   29.10    4.77
   0  -9  -6   23.31    5.67
   0  -9  -7    3.33    2.35
   0   9   7    5.99    5.48
   0  -9  -7    1.88    1.97
   0  -9  -8    1.61    1.98
   0   9   8    5.27    3.72
   0  -9  -8    5.16    2.30
   0 -10   7  140.28    9.29
   0 -10   6  109.85    7.28
   0 -10   5   74.39    8.11
   0 -10   4   81.55    9.66
   0  10  -4   61.67    5.94
   0 -10   3  224.39    9.81
   0  10  -3  203.26    7.48
   0 -10   2  192.00    9.26
   0  10  -2  190.12    8.08
   0 -10   1  108.95    9.55
   0  10  -1   86.47    6.73
   0 -10   1   90.91    6.64
   0 -10   0  132.98    7.87
   0  10   0  125.30    9.53
   0 -10   0  125.13    9.14
   0 -10  -1    3.16    3.13
   0 -10  -1    5.07    1.83
   0 -10  -2   11.17    4.34
   0  10   2    5.62    2.93
   0 -10  -2    4.69    1.81
   0 -10  -3   24.54    4.54
   0  10   3   25.52    4.47
   0 -10  -3   20.14    3.65
   0 -10  -4    6.17    2.92
   0  10   4    7.51    3.18
   0 -10  -4   11.21    3.69
   0 -10  -5  209.59   10.31
   0  10   5  205.78   11.08
   0 -10  -5  197.79   14.08
   0 -10  -6    2.24    2.43
   0  10   6    6.26    5.33
   0 -10  -6    2.89    1.66
   0 -11   4   51.77    5.63
   0 -11   3    1.59    3.19
   0  11  -2   32.10    4.97
   0 -11   1   24.10    3.34
   0  11  -1   39.07    4.39
   0 -11   0  180.23    9.72
   0  11   0  187.24    9.40
   0 -11  -1   21.64    4.50
   0  11   1   34.27    5.19
   0 -11  -1   19.54    7.23
   0 -11  -2  107.00    8.55
   0  11   2  116.46    7.67
   0 -11  -2   90.97   13.59
   0 -11  -3    5.85    3.15
   0  11   3    9.83    5.28
   0 -11  -3    3.68    1.47
   1 -11  -1   55.01    6.46
   1 -11   0   12.83    3.72
  -1  11   0   18.37    4.90
   1 -11   1   95.04    8.04
  -1  11  -1   93.44    6.35
   1 -11   2  188.24   11.33
  -1  11  -2  197.41   11.50
   1 -10  -5   37.78    5.88
   1 -10  -5   14.63    4.32
   1 -10  -4   36.17    5.33
  -1  10   4   34.75    5.94
   1 -10  -4   36.44    6.64
   1 -10  -3  180.64   10.02
  -1  10   3  185.58   10.44
   1 -10  -3  131.31   15.06
   1 -10  -2   39.22    5.05
  -1  10   2   44.35    6.08
   1 -10  -2   33.24    7.57
   1 -10  -1    4.41    3.05
  -1  10   1   14.37    5.46
   1 -10  -1    1.91    1.89
   1 -10   0   13.99    3.53
  -1  10   0   23.40    4.56
   1 -10   0   10.39    3.20
   1 -10   1   18.87    4.44
  -1  10  -1   13.51    3.85
   1 -10   2   -0.21    3.22
  -1  10  -2    2.79    2.65
   1 -10   3   31.67    5.49
  -1  10  -3   30.98    3.84
   1 -10   4  270.58   13.64
  -1  10  -4  295.10   13.56
   1 -10   5  459.77   21.22
  -1  10  -5  468.89   20.36
   1 -10   6   38.79    5.40
   1  -9  -7   33.45    4.51
  -1   9   7   36.91    5.81
   1  -9  -7   32.21    7.32
   1  -9  -6   21.02    3.18
  -1   9   6   20.21    4.02
   1  -9  -6   30.16    3.85
   1  -9  -5   13.71    3.28
  -1   9   5   30.92    5.49
   1  -9  -5   16.41    3.68
   1  -9  -4    6.65    3.07
  -1   9   4   10.58    4.25
   1  -9  -4   10.32    3.01
   1  -9  -3    9.25    3.53
  -1   9   3    3.74    3.82
   1  -9  -3    8.53    2.47
   1  -9  -2   41.13    4.98
  -1   9   2   39.57    4.60
   1  -9  -2   36.95    5.89
   1  -9  -1   28.23    5.04
  -1   9   1   22.10    3.84
   1  -9  -1   19.42    4.16
   1  -9   0  364.11   12.82
  -1   9   0  364.79   12.79
   1  -9   0  358.40   12.38
  -1   9  -1  409.05   13.71
   1  -9   1  379.88   11.79
   1  -9   2    2.00    3.35
  -1   9  -2    4.13    2.33
   1  -9   2   -0.03    0.82
   1  -9   3   29.80    5.44
  -1   9  -3   26.95    4.27
   1  -9   4   32.04    4.76
  -1   9  -4   41.00    3.83
   1  -9   5   18.92    5.51
  -1   9  -5   15.30    3.50
   1  -9   6  209.46    8.76
  -1   9  -6  206.70    7.44
   1  -9   7  386.71   17.32
  -1   9  -7  377.51   16.19
   1  -9   8  306.54   17.86
   1  -8  -8    5.93    2.55
  -1   8   8    6.39    3.96
   1  -8  -8   15.76    4.92
   1  -8  -7   10.42    2.74
   1  -8  -7   18.82    3.33
   1  -8  -6    5.16    2.38
  -1   8   6    8.18    3.99
   1  -8  -6    1.99    1.26
   1  -8  -5  182.77    6.23
  -1   8   5  184.51    6.94
   1  -8  -5  185.71   13.39
   1  -8  -4  266.25   10.59
  -1   8   4  264.46   10.32
   1  -8  -4  266.59   16.39
   1  -8  -3  129.00    6.41
  -1   8   3  146.69    7.78
   1  -8  -3  111.69   12.39
   1  -8  -2   64.44    4.92
  -1   8   2   60.79    4.60
   1  -8  -2   63.43    4.85
   1  -8  -1  381.91   14.19
  -1   8   1  364.49   13.66
   1  -8  -1  359.24   13.59
   1  -8   0  207.76   10.51
  -1   8   0  182.13    9.14
   1  -8   0  199.88   13.94
   1  -8   1   32.43    4.06
  -1   8  -1   42.50    4.77
   1  -8   2  327.72   13.17
  -1   8  -2  308.92   11.90
   1  -8   2  299.23   10.72
   1  -8   3  487.61   17.69
  -1   8  -3  502.87   17.60
   1  -8   3  450.06   14.74
   1  -8   4  260.98   10.15
  -1   8  -4  244.65    7.85
   1  -8   5   10.90    4.99
  -1   8  -5    9.86    3.76
   1  -8   6    3.05    3.56
  -1   8  -6   10.76    3.11
   1  -8   7    0.27    2.95
  -1   8  -7    3.83    1.57
   1  -8   8    4.32    2.95
  -1   8  -8    4.09    1.40
   1  -8   9   78.32    6.31
  -1   8  -9   54.35    7.86
   1  -8  10  195.06   11.59
   1  -7  -9   82.50    5.39
  -1   7   9   96.17    8.83
   1  -7  -9   86.54    9.91
   1  -7  -8  141.72    6.04
   1  -7  -8  151.50   12.95
   1  -7  -7   27.55    2.83
  -1   7   7   28.38    4.54
   1  -7  -7   32.84    5.68
   1  -7  -6  148.53    7.55
  -1   7   6  141.87    9.20
   1  -7  -6  151.29   12.64
   1  -7  -5    5.06    2.04
  -1   7   5    7.09    3.83
   1  -7  -5   16.63    3.56
   1  -7  -4  273.64   11.03
  -1   7   4  293.60   12.09
   1  -7  -4  287.59   10.92
   1  -7  -3  243.47   14.13
  -1   7   3  232.52   14.01
   1  -7  -3  256.23   22.73
   1  -7  -2  787.29   18.90
  -1   7   2  772.31   18.30
   1  -7  -2  796.89   17.94
   1  -7  -1 2091.13   45.10
  -1   7   1 2154.20  175.21
   1  -7  -1 2130.07  173.11
   1  -7   0   72.74    6.44
  -1   7   0   85.03    7.18
   1  -7   0   88.51    9.81
   1  -7   1  368.01   10.60
  -1   7  -1  337.45    9.56
   1  -7   1  350.97    9.33
  -1   7  -1  272.33    7.08
   1  -7   2  119.96    9.63
  -1   7  -2  121.70    9.74
   1  -7   2  106.86    8.44
  -1   7  -2   97.59    7.29
   1  -7   3   40.87    5.45
  -1   7  -3   27.04    3.14
   1  -7   3   25.09    2.69
  -1   7  -3   25.31    1.98
   1  -7   4  165.00   11.40
  -1   7  -4  131.99    8.03
   1  -7   4  119.95    6.33
  -1   7  -4  126.56    6.68
   1  -7   5  983.17   27.72
  -1   7  -5  944.47   25.76
   1  -7   6  691.74   23.86
  -1   7  -6  633.37   21.32
   1  -7   7  528.47   19.11
  -1   7  -7  493.93   16.97
   1  -7   8    5.21    3.08
  -1   7  -8    8.57    1.93
   1  -7   9    8.54    3.96
  -1   7  -9    6.20    2.00
   1  -7  10    0.43    2.60
  -1   7 -10    1.55    1.55
   1  -7  11   -1.10    2.46
  -1   7 -11    5.32    1.94
  -1   6  10    2.75    3.46
   1  -6 -10    5.44    3.36
   1  -6  -9   18.03    2.94
  -1   6   9    6.79    3.64
   1  -6  -9   18.06    3.39
   1  -6  -8  169.56    5.32
  -1   6   8  167.62    6.91
   1  -6  -8  167.94   11.51
   1  -6  -7   40.94    3.41
  -1   6   7   37.69    4.11
   1  -6  -7   51.23    7.35
   1  -6  -6  201.41    9.70
   1  -6  -6  212.79   15.30
   1  -6  -5  193.30   11.06
  -1   6   5  175.32   11.43
   1  -6  -5  203.41   16.69
   1  -6  -4  125.55    9.77
  -1   6   4  123.38   10.10
   1  -6  -4  116.19   13.75
   1  -6  -3   40.28    4.32
  -1   6   3   34.96    4.51
   1  -6  -3   46.57    5.32
   1  -6  -2  166.14    9.19
  -1   6   2  186.31   10.57
   1  -6  -2  194.05   13.26
   1  -6  -1  409.20   10.31
  -1   6   1  397.54    9.49
   1  -6  -1  393.38    9.50
  -1   6   0 1208.63   24.31
   1  -6   0 1229.95   23.88
  -1   6   0  989.15   19.34
   1  -6   1 1010.01   20.87
  -1   6  -1 1009.85   20.57
   1  -6   1  988.16   19.18
  -1   6  -1  890.93   17.45
   1  -6   2  234.30   12.94
  -1   6  -2  244.46   13.26
   1  -6   2  227.91   11.67
  -1   6  -2  208.04   10.72
   1  -6   3  406.37    9.92
  -1   6  -3  409.01    9.33
   1  -6   3  373.12    7.40
  -1   6  -3  391.86    7.72
   1  -6   4   57.49    6.68
  -1   6  -4   60.19    5.66
   1  -6   4   45.05    3.51
   1  -6   5  262.57    8.34
  -1   6  -5  260.55    7.29
   1  -6   6  151.82   10.87
  -1   6  -6  140.77    9.17
   1  -6   7  292.58   16.65
  -1   6  -7  280.66   16.21
   1  -6   8  631.20   17.49
  -1   6  -8  613.55   16.24
   1  -6   9  481.76   15.64
  -1   6  -9  487.21   15.23
   1  -6  10  207.97    8.64
  -1   6 -10  172.53   14.51
   1  -6  11    2.61    3.21
  -1   6 -11    6.98    1.46
   1  -6  12   11.22    4.27
  -1   6 -12    3.51    2.33
   1  -5 -11   27.63    6.03
   1  -5 -10    9.67    2.93
  -1   5  10   13.10    4.80
   1  -5 -10    3.65    1.99
   1  -5  -9   53.28    3.94
  -1   5   9   56.53    6.59
   1  -5  -9   62.50    5.89
   1  -5  -8  109.08    4.85
  -1   5   8   91.94    5.60
   1  -5  -8  105.62   16.13
   1  -5  -7   56.50    4.52
  -1   5   7   58.70    6.67
   1  -5  -7   65.31   10.37
   1  -5  -6    8.91    1.85
  -1   5   6    6.86    3.29
   1  -5  -6    9.44    2.48
   1  -5  -5   86.23    7.01
  -1   5   5   81.18    8.33
   1  -5  -5   60.07    9.17
   1  -5  -4  579.97   12.50
   1  -5  -4  609.50   13.28
   1  -5  -3 1690.66   33.10
  -1   5   3 1760.00   34.72
   1  -5  -3 1723.95   33.46
   1  -5  -2  126.82    7.59
  -1   5   2  123.88    7.46
   1  -5  -2  132.36   12.25
   1  -5  -1  200.76   11.25
  -1   5   1  203.13   11.20
   1  -5  -1  202.12   10.90
  -1   5   1  176.60    9.48
  -1   5   0   25.34    3.13
   1  -5   0   31.37    4.37
  -1   5   0   21.54    1.67
   1  -5   1 1005.83   16.21
  -1   5  -1  969.75   15.56
   1  -5   1  977.88   14.34
  -1   5  -1  887.32   13.17
   1  -5   2 1086.57   17.19
  -1   5  -2 1036.54   16.28
   1  -5   2 1051.93   15.12
  -1   5  -2  976.89   14.21
   1  -5   3 1366.72   20.34
  -1   5  -3 1288.61   18.84
   1  -5   3 1342.65   18.04
  -1   5  -3 1353.91   18.28
   1  -5   4 1653.11   24.27
  -1   5  -4 1608.86   23.13
   1  -5   5  700.54   15.24
  -1   5  -5  671.61   13.89
   1  -5   6   77.49    7.09
  -1   5  -6   92.31    5.48
   1  -5   7    7.02    3.97
  -1   5  -7   11.50    1.71
   1  -5   8  254.61   14.41
  -1   5  -8  255.84   14.08
   1  -5   8  229.87   12.01
   1  -5   8  243.91   12.76
   1  -5   9    7.66    3.55
  -1   5  -9    3.49    1.22
   1  -5   9    3.11    0.69
   1  -5  10  181.57    7.04
  -1   5 -10  179.57    6.94
   1  -5  11  686.63   22.87
  -1   5 -11  704.42   23.70
   1  -5  12   53.30    5.01
  -1   5 -12   53.42    4.80
  -1   4  12    6.78    3.86
   1  -4 -12    4.06    1.69
  -1   4  11   14.72    4.00
   1  -4 -11   30.75    4.47
   1  -4 -10    8.62    2.01
  -1   4  10    4.48    3.34
   1  -4 -10    6.16    1.98
   1  -4  -9   61.88    3.93
  -1   4   9   63.96    7.16
   1  -4  -9   47.99    6.77
   1  -4  -8  820.14   27.21
  -1   4   8  740.57   25.86
   1  -4  -8  612.41   22.02
   1  -4  -7   54.78    4.26
  -1   4   7   49.38    5.53
   1  -4  -7   55.33    8.01
   1  -4  -6  622.70   13.03
  -1   4   6  610.87   13.70
   1  -4  -6  608.92   13.24
   1  -4  -5  957.91   19.28
  -1   4   5  979.14   20.38
   1  -4  -5  945.96   19.35
   1  -4  -4  104.82    6.11
  -1   4   4  131.94    8.69
   1  -4  -4  117.33    9.97
   1  -4  -3   69.68    4.11
   1  -4  -3   74.04    7.95
   1  -4  -2 1237.14   18.80
  -1   4   2 1363.76   20.73
   1  -4  -2 1320.70   19.57
  -1   4   2 1190.60   17.70
   1  -4  -1 1464.55   11.67
  -1   4   1 1365.06   11.01
  -1   4   0  311.36    5.19
   1  -4   0  275.76    4.12
   1  -4   0  298.79    3.68
  -1   4   0  271.92    3.36
  -1   4  -1  541.50    6.35
   1  -4   1  506.07    5.66
   1  -4   1  535.72    4.89
  -1   4  -1  525.97    4.87
   1  -4   2    4.97    2.52
  -1   4  -2    7.59    1.47
   1  -4   2   10.87    1.40
   1  -4   2    6.04    0.67
  -1   4  -2    8.41    0.69
  -1   4  -3  700.71   11.22
   1  -4   3  637.62   10.10
   1  -4   3  696.69    9.82
  -1   4  -3  705.69    9.96
   1  -4   4  212.24    9.42
  -1   4  -4  206.32    8.83
   1  -4   4  189.11    8.17
   1  -4   5  214.25   12.00
  -1   4  -5  193.05   10.42
   1  -4   5  187.15   10.10
   1  -4   6 1669.56   32.57
  -1   4  -6 1621.06   31.36
   1  -4   6 1599.56   29.94
   1  -4   6 1600.62   29.99
   1  -4   7  353.75   25.49
  -1   4  -7  353.39   25.69
   1  -4   7  358.66    6.97
   1  -4   8 1035.92   22.74
  -1   4  -8 1119.72   24.31
   1  -4   8 1026.69   21.57
   1  -4   8 1110.71   23.45
   1  -4   9   11.99    2.16
  -1   4  -9   16.90    2.76
   1  -4   9   11.16    1.74
   1  -4  10    1.68    1.89
  -1   4 -10    2.39    1.05
   1  -4  10    6.18    2.04
   1  -4  11   12.22    2.63
  -1   4 -11   13.25    2.50
   1  -4  12   44.96    4.71
  -1   4 -12   41.72    4.73
   1  -4  13  122.21    7.98
  -1   3  12   27.39    5.28
   1  -3 -12   34.05    6.72
  -1   3  11  289.10   11.20
   1  -3 -11  271.40   24.25
   1  -3 -10   56.07    6.76
  -1   3  10   61.52    6.91
   1  -3 -10   57.23    6.95
   1  -3  -9   31.50    4.60
  -1   3   9   28.77    5.79
   1  -3  -9   25.49    4.45
   1  -3  -8  142.72    8.12
  -1   3   8  130.04    8.52
   1  -3  -8  134.87   11.80
   1  -3  -7  568.94   13.94
  -1   3   7  526.78   14.42
   1  -3  -7  520.43   13.90
   1  -3  -6  808.15   16.31
  -1   3   6  811.94   17.28
   1  -3  -6  789.83   16.43
   1  -3  -5  469.55    7.96
  -1   3   5  409.60    6.79
  -1   3   5  457.57    8.61
   1  -3  -5  481.07    8.49
   1  -3  -4   74.76    3.94
  -1   3   4   73.87    3.72
  -1   3   4   72.30    4.44
   1  -3  -4   80.39    7.83
   1  -3  -3  495.84    5.80
  -1   3   3  476.12    5.45
   1  -3  -3  493.49    5.73
  -1   3   3  469.11    5.35
   1  -3  -2  190.23    3.75
  -1   3   2  176.26    3.33
  -1   3   2  191.95    4.13
   1  -3  -2  176.42    3.10
  -1   3   2  179.19    2.87
   1  -3  -1 1214.08   10.21
  -1   3   1 1161.26    9.66
   1  -3  -1 1142.62    9.51
   1  -3  -1 1209.16    9.46
  -1   3   1 1175.86    9.26
   1  -3   0  713.48    7.06
  -1   3   0  675.94    6.46
   1  -3   0  676.15    6.29
   1  -3   0  718.84    7.53
  -1   3   0  686.71    5.73
   1  -3   1 7020.80   46.70
  -1   3  -1 6781.69   45.00
   1  -3   2 2034.85   15.41
  -1   3  -2 1887.84   14.15
  -1   3  -2 2085.83   15.57
   1  -3   2 1929.04   14.25
   1  -3   2 2061.88   13.53
  -1   3  -2 1940.24   12.81
   1  -3   3 2541.70   19.17
  -1   3  -3 2373.37   17.68
  -1   3  -3 2531.25   18.82
   1  -3   3 2308.76   17.16
   1  -3   4  955.21    9.20
  -1   3  -4  878.10    8.00
  -1   3  -4  927.92    8.39
   1  -3   4  850.26    7.81
   1  -3   5  796.52   12.53
  -1   3  -5  677.67   10.51
  -1   3  -5  797.92   12.51
   1  -3   5  719.83   11.27
   1  -3   5  777.70   11.04
   1  -3   5  765.31   10.94
   1  -3   6  669.28    9.94
   1  -3   6  746.56   11.88
  -1   3  -6  699.92   10.74
   1  -3   6  731.68   10.19
   1  -3   6  744.63   10.55
   1  -3   7   12.27    2.43
  -1   3  -7    9.02    1.64
   1  -3   7    8.52    1.01
   1  -3   7    9.84    1.25
   1  -3   8   73.77    6.54
  -1   3  -8   89.68   10.86
   1  -3   8   65.19    5.25
   1  -3   8   71.86    6.02
   1  -3   9 1466.17   31.35
  -1   3  -9 1460.91   31.28
   1  -3   9 1305.09   27.53
   1  -3   9 1490.31   31.58
   1  -3  10  277.54    9.90
  -1   3 -10  276.13   12.37
   1  -3  10  284.98   10.21
   1  -3  11  119.87    6.10
  -1   3 -11  125.59    6.60
   1  -3  11  128.02    6.38
   1  -3  12   19.56    3.89
   1  -3  12   23.86    4.60
   1  -3  13   25.90    3.70
  -1   2  13   10.11    5.56
   1  -2 -13   -1.18    2.32
  -1   2  12   37.13    4.88
   1  -2 -12   38.44    5.77
  -1   2  11   52.15    4.94
   1  -2 -11   39.66    7.46
   1  -2 -10  133.92    6.08
  -1   2  10  123.51    6.94
   1  -2 -10  121.80   11.66
   1  -2  -9   35.25    5.97
  -1   2   9   37.14    5.65
   1  -2  -9   45.25    7.04
   1  -2  -8 1212.40   28.06
  -1   2   8 1151.28   27.66
   1  -2  -8 1172.69   30.22
  -1   2   7  114.07    6.14
  -1   2   7  126.69    7.85
   1  -2  -6  105.20    6.03
  -1   2   6  105.78    5.97
  -1   2   6  116.04    7.55
   1  -2  -6  123.97   12.59
   1  -2  -5  195.49    8.36
  -1   2   5  176.15    7.52
  -1   2   5  187.80    8.54
   1  -2  -5  190.42   11.54
  -1   2   4 1403.43   11.27
  -1   2   4 1383.72   12.16
   1  -2  -4 1503.14   12.50
   1  -2  -3 3625.18   25.02
  -1   2   3 3665.68   25.71
   1  -2  -2  282.34    7.59
  -1   2   2  241.39    6.81
   1  -2  -2  232.41    6.38
   1  -2  -2  288.62    7.68
  -1   2   1 1511.82   11.44
   1  -2  -1 1470.92   11.03
   1  -2  -1 1601.60   11.61
  -1   2   1 1553.73   11.23
  -1   2   0  390.30    9.99
   1  -2   0  389.90    9.84
  -1   2   0  400.48    9.85
   1  -2   1  912.94    7.70
  -1   2  -1  879.80    7.30
  -1   2  -1  921.90    7.67
   1  -2   1  911.48    7.47
   1  -2   1  944.58    6.67
  -1   2  -1  919.34    6.43
   1  -2   2   17.76    1.60
  -1   2  -2   22.71    1.33
   1  -2   2   16.94    1.55
  -1   2  -3  104.95    3.37
  -1   2  -3   97.51    3.09
   1  -2   3   96.45    3.11
   1  -2   4 6920.44   45.60
  -1   2  -4 6871.18   45.01
  -1   2  -4 6934.22   45.72
   1  -2   4 6736.49   44.58
   1  -2   5 5673.63   38.42
  -1   2  -5 5823.78  231.08
   1  -2   5 5458.12   37.69
  -1   2  -5 6007.85  238.02
   1  -2   5 5526.30   36.87
   1  -2   6  418.52   16.94
   1  -2   6  454.01   23.54
  -1   2  -6  432.86   18.09
  -1   2  -6  447.64   23.07
   1  -2   6  424.71   17.10
   1  -2   7  262.74   13.71
   1  -2   7  286.36   15.12
  -1   2  -7  291.99   15.53
  -1   2  -7  287.51   15.40
   1  -2   7  283.51   14.78
   1  -2   8  154.57    8.15
   1  -2   8  171.66    8.98
  -1   2  -8  166.45    8.78
  -1   2  -8  173.05    9.00
   1  -2   8  171.38    8.73
   1  -2   9   15.98    3.07
   1  -2   9   24.58    2.54
  -1   2  -9   26.67    4.36
  -1   2  -9   28.24    4.81
   1  -2  10   70.21    5.25
  -1   2 -10   71.57    5.72
  -1   2 -10   75.06    9.76
   1  -2  11  140.77   15.88
  -1   2 -11  142.98   16.23
   1  -2  12  683.66   15.32
  -1   2 -12  673.76   13.85
   1  -2  13   71.84    6.87
  -1   2 -13   70.61    6.38
   1  -2  14   16.19    4.64
  -1   1  13  194.94   12.26
   1  -1 -13  164.24   20.66
  -1   1  12   21.74    3.92
   1  -1 -12   17.90    4.61
   1  -1 -11    2.30    1.05
  -1   1  11   13.49    5.55
   1  -1 -11    4.43    1.87
   1  -1 -10    3.89    1.13
  -1   1  10    3.09    2.97
   1  -1 -10    5.47    2.83
   1  -1  -9    3.36    0.78
  -1   1   9   12.84    5.63
   1  -1  -9    1.14    1.77
  -1   1   8  958.15   23.28
   1  -1  -8  969.68   23.32
   1  -1  -7   54.60    3.98
  -1   1   7   50.45    3.10
  -1   1   7   52.54    4.42
   1  -1  -7   57.04    8.12
   1  -1  -6    2.66    1.11
  -1   1   6    5.29    1.71
  -1   1   6    2.85    2.56
   1  -1  -6   -0.37    1.81
   1  -1  -5   11.99    1.43
  -1   1   5   11.63    1.15
  -1   1   5    9.43    1.70
   1  -1  -4  703.47    6.34
  -1   1   4  682.80    6.22
  -1   1   4  734.87    7.64
   1  -1  -4  729.86    7.76
  -1   1   4  678.78    6.55
  -1   1   3 3280.48   22.33
   1  -1  -3 3407.48   23.93
  -1   1   2 3193.40   21.84
   1  -1  -2 3298.81   22.38
  -1   1   1 6797.35   44.13
  -1   1   1 7261.01   47.13
   1  -1   1 1239.08    8.97
   1  -1   1 1211.80    8.84
  -1   1  -1 1290.87    8.52
  -1   1  -1 1262.02    8.38
   1  -1   2 1712.65   11.97
   1  -1   2 1660.50   11.82
  -1   1  -2 1643.66   10.61
   1  -1   2 1694.11   10.94
  -1   1  -3  517.39   12.65
  -1   1  -3  522.91   12.94
   1  -1   3  536.82    4.98
  -1   1  -3  523.17   12.63
   1  -1   3  502.58   12.12
   1  -1   4  442.07   10.94
  -1   1  -4  445.71   10.94
  -1   1  -4  474.82   11.59
   1  -1   4  448.88   10.99
   1  -1   5  379.56    3.84
   1  -1   5  382.14    3.89
  -1   1  -5  383.09    4.48
   1  -1   5  378.21    4.40
  -1   1  -5  401.63    4.00
   1  -1   5  376.66    3.85
   1  -1   6 1995.04   28.09
   1  -1   6 2150.39   30.41
  -1   1  -6 2166.90   31.15
   1  -1   6 1975.08   28.38
  -1   1  -6 2177.91   31.01
   1  -1   6 2085.36   29.62
   1  -1   7 2827.95   37.99
   1  -1   7 3038.77   40.79
  -1   1  -7 3040.85   41.68
  -1   1  -7 3071.91   41.68
   1  -1   7 2744.52   37.18
   1  -1   8  388.34    8.01
   1  -1   8  428.53    8.83
  -1   1  -8  450.35    9.97
  -1   1  -8  404.45    8.81
   1  -1   9   83.62    6.20
   1  -1   9   87.07    6.50
  -1   1  -9   81.42    6.55
  -1   1  -9   92.12   10.93
   1  -1  10   65.97    5.62
   1  -1  10   71.89    5.19
  -1   1 -10   71.54   11.15
   1  -1  11    8.16    1.60
   1  -1  11   13.21    3.16
  -1   1 -11    8.00    2.18
   1  -1  12   11.50    3.34
  -1   1 -12   15.13    3.82
  -1   1 -13    9.57    2.48
   1  -1  14   60.21    5.48
  -1   1 -14   66.48    5.19
  -1   0  13  172.71   11.12
   1   0 -13  166.53   10.14
  -1   0  12    9.94    3.20
   1   0 -12   11.50    3.45
   1   0 -11   52.63    5.06
  -1   0  11   52.37    4.68
   1   0 -11   66.99    9.90
   1   0 -10  368.47    9.89
  -1   0  10  358.06   11.07
   1   0 -10  366.46   11.11
   1   0  -9  506.73   11.75
  -1   0   9  472.38   12.12
   1   0  -9  511.24   12.93
   1   0  -8   90.54    7.94
  -1   0   8   70.15    5.86
  -1   0   8   82.03    7.09
   1   0  -8   92.62   10.85
   1   0  -7   85.66    5.22
  -1   0   7   85.91    4.91
  -1   0   7   83.52    5.22
   1   0  -7   91.07    7.61
   1   0  -6  476.36    7.85
  -1   0   6  431.35   17.50
  -1   0   6  449.16   23.60
   1   0  -6  444.32   23.28
   1   0  -5  593.74    5.72
  -1   0   5  555.53    5.46
  -1   0   5  537.16    5.28
  -1   0   5  574.20    6.37
   1   0  -4   68.43    2.69
  -1   0   4   62.76    2.36
   1   0  -4   61.26    2.54
   1   0  -4   78.55    7.01
  -1   0   4   62.18    4.69
   1   0  -3  328.66    8.29
  -1   0   3  308.20    7.85
  -1   0   3  328.86    8.59
   1   0  -3  324.91    8.26
  -1   0   3  328.36    8.37
  -1   0   2 1494.01   10.57
  -1   0   2 1601.72   11.37
  -1   0   2 1587.60   11.26
  -1   0   0    5.01    0.45
  -1   0  -1   17.92    0.83
   1   0   2 2370.94   15.42
   1   0   2 2434.45   16.35
   1   0   2 2419.59   15.92
  -1   0  -3 7742.60   50.12
   1   0   3 7653.54   49.58
   1   0   4  927.98    6.37
   1   0   4  943.57    6.60
   1   0   4  938.85    7.64
  -1   0  -4  950.40    7.51
   1   0   4  919.10    7.21
   1   0   5  392.33    9.59
   1   0   5  395.71    9.66
  -1   0  -5  393.05   10.09
   1   0   5  386.09    9.93
  -1   0  -5  415.94   10.50
   1   0   5  377.54    9.58
   1   0   6  136.41    1.79
   1   0   6  131.72    1.86
  -1   0  -6  143.99    2.79
   1   0   6  128.93    2.61
   1   0   7   11.31    0.91
   1   0   7   13.19    1.04
  -1   0  -7    8.21    1.43
  -1   0  -7   17.45    2.29
   1   0   7   14.54    1.65
   1   0   8  618.79   11.97
   1   0   8  628.34   12.18
  -1   0  -8  644.20   13.46
  -1   0  -8  658.94   13.76
   1   0   9  431.70   10.10
   1   0   9  456.83   10.72
   1   0   9  468.74   12.42
  -1   0  -9  464.35   12.35
   1   0  10  543.26   14.48
   1   0  10  576.45   15.35
   1   0  10  574.80   17.07
  -1   0 -10  593.49   16.68
   1   0  11  228.25    8.04
  -1   0 -11  209.40   15.21
   1   0  12   17.37    3.36
  -1   0 -12   19.42    4.18
   1   0  13   90.10    8.44
  -1   0 -13   82.15   11.04
   1   0  14    5.37    3.22
  -1   0 -14    3.56    1.73
  -1  -1  13    8.33    4.04
  -1  -1  12   30.29    4.40
   1   1 -12   37.81    5.23
   1   1 -11   19.68    2.87
  -1  -1  11   15.26    2.69
   1   1 -11   16.11    3.16
   1   1 -10  422.36   14.21
  -1  -1  10  408.35   14.91
   1   1 -10  419.94   14.84
   1   1  -9   49.58    5.54
  -1  -1   9   47.60    4.57
   1   1  -9   53.46    4.24
   1   1  -8   40.55    5.54
  -1  -1   8   32.51    3.09
  -1  -1   8   38.81    4.43
   1   1  -8   45.29    6.03
   1   1  -7 1045.46   15.06
  -1  -1   7  990.73   15.05
   1   1  -7 1019.88   15.43
   1   1  -6  513.80    8.69
  -1  -1   6  446.06   23.08
  -1  -1   6  448.84   23.22
  -1  -1   6  522.69    8.94
   1   1  -6  516.41    8.75
   1   1  -5  847.89    7.42
  -1  -1   5  798.16    7.02
  -1  -1   5  806.94    6.92
  -1  -1   5  835.74    7.78
   1   1  -5  853.61    9.37
  -1  -1   5  813.69    7.35
   1   1  -4  848.10    7.26
  -1  -1   4  834.40    6.92
  -1  -1   4  838.43    6.67
  -1  -1   4  837.69    7.08
  -1  -1   4  832.27    7.20
   1   1  -3 2907.82   19.81
  -1  -1   3 2906.04   19.38
  -1  -1   3 2888.85   19.46
   1   1  -2 3359.28   22.61
  -1  -1   2 3313.81   22.08
  -1  -1   2 3288.16   21.87
  -1  -1   2 3350.32   22.50
  -1  -1   1  982.43    7.15
  -1  -1   1  960.23    6.42
  -1  -1   1  978.43    7.24
  -1  -1   0 2358.96   15.72
  -1  -1  -2   22.95    1.07
  -1  -1  -2   21.07    0.75
  -1  -1  -2   22.27    2.02
   1   1   2   17.07    1.48
  -1  -1  -2   14.96    1.06
   1   1   2   15.70    1.22
  -1  -1  -3 4377.21   28.98
  -1  -1  -3 4711.37   31.18
   1   1   3 4446.25   29.45
   1   1   4 1548.99   11.37
  -1  -1  -5 3190.48   20.99
   1   1   5 3198.38   21.11
   1   1   5 3079.60   22.12
   1   1   5 3094.04   22.20
   1   1   6 1041.20    7.33
  -1  -1  -6 1076.53    9.90
   1   1   7  353.93    5.06
   1   1   7  371.40    7.62
  -1  -1  -7  377.71    7.22
   1   1   8  371.66    7.27
   1   1   8  369.64    7.22
   1   1   8  358.05    9.17
  -1  -1  -8  380.57   10.22
   1   1   9    7.70    0.87
   1   1   9    7.73    0.87
   1   1   9   10.88    3.32
  -1  -1  -9   11.17    2.37
   1   1  10    4.81    0.94
   1   1  10    3.28    0.83
   1   1  10   11.94    4.14
  -1  -1 -10    5.23    1.63
   1   1  11   15.41    4.76
  -1  -1 -11    4.23    1.29
   1   1  12   34.73    3.76
  -1  -1 -12   38.65    5.12
   1   1  13  186.96   10.20
  -1  -1 -13  169.65   17.02
   1   1  14   50.95    5.55
  -1  -1 -14   47.14    6.68
  -1  -2  13   72.00    8.84
  -1  -2  13   54.09    7.23
  -1  -2  12  211.87    8.38
  -1  -2  12  212.97    8.58
  -1  -2  11    6.78    2.81
  -1  -2  11    3.52    2.48
  -1  -2  10   77.85    4.52
  -1  -2  10   84.30    5.53
   1   2 -10   80.07    5.02
   1   2  -9  385.47   11.18
  -1  -2   9  383.85   12.11
   1   2  -9  403.76   11.87
   1   2  -8  231.38   11.84
  -1  -2   8  242.76   12.85
   1   2  -8  239.52   12.42
   1   2  -7  194.13   10.41
  -1  -2   7  203.91   11.15
   1   2  -7  218.47   11.66
   1   2  -6    7.99    1.38
  -1  -2   6    3.76    0.89
  -1  -2   6    8.10    2.32
   1   2  -6    5.20    1.46
  -1  -2   6    6.50    0.88
   1   2  -5 1739.74   13.59
  -1  -2   5 1685.84   13.10
  -1  -2   5 1736.45   12.86
  -1  -2   5 1710.18   13.01
  -1  -2   5 1733.31   13.18
  -1  -2   5 1759.31   13.93
  -1  -2   4 2529.89   18.20
  -1  -2   4 2556.65   17.83
  -1  -2   4 2455.92   17.53
  -1  -2   4 2614.71   19.07
   1   2  -3   18.08    1.83
   1   2  -3   15.28    0.85
  -1  -2   3   13.64    1.71
  -1  -2   3   12.87    0.88
  -1  -2   3   15.51    1.52
  -1  -2   2  518.24   12.74
   1   2  -2  547.39    4.10
  -1  -2   2  532.73    4.01
   1   2  -2  515.60   12.67
  -1  -2   1  599.45    5.29
  -1  -2   1  594.99    4.07
  -1  -2   1  623.24    5.51
   1   2   0 2842.59   18.96
  -1  -2   0 2612.50   17.46
   1   2   0 2766.14   17.88
  -1  -2   0 2726.54   18.35
  -1  -2  -2 2631.07   17.46
   1   2   2 2467.38   16.61
   1   2   2 2596.60   17.77
  -1  -2  -2 2519.64   17.52
  -1  -2  -3    5.48    0.69
   1   2   3    7.03    0.76
   1   2   3    3.79    1.17
   1   2   3    6.38    1.01
  -1  -2  -4   55.83    1.75
   1   2   4   52.43    1.66
   1   2   4   55.12    2.18
  -1  -2  -5  102.01    1.42
   1   2   5   93.98    1.34
   1   2   5   81.74    2.10
   1   2   5   83.76    2.81
  -1  -2  -5   98.49    2.78
   1   2   5   94.94    2.52
  -1  -2  -6  916.42   12.99
   1   2   6  858.45   12.22
   1   2   6  880.37   13.98
  -1  -2  -6  900.99   14.10
  -1  -2  -7 1080.34   14.66
   1   2   7 1024.51   13.88
   1   2   7 1071.02   16.26
  -1  -2  -7 1056.99   15.85
  -1  -2  -8 1466.98   27.57
   1   2   8 1402.70   26.37
   1   2   8 1471.18   29.32
  -1  -2  -8 1437.47   28.35
  -1  -2  -9  527.12   11.98
   1   2   9  537.70   12.27
   1   2   9  568.00   15.31
  -1  -2  -9  571.46   14.55
   1   2  10   54.97    4.51
   1   2  10   55.05    4.52
   1   2  10   69.68    7.70
  -1  -2 -10   75.46   12.26
   1   2  11  203.76    9.58
  -1  -2 -11  212.88    8.88
   1   2  12   76.15    7.50
  -1  -2 -12   66.00    8.92
   1   2  13   66.30    8.01
  -1  -2 -13   53.59    9.21
   1   2  14   54.31    5.10
  -1  -2 -14   45.27    9.31
  -1  -3  13   55.71    7.16
  -1  -3  13   54.73    7.20
  -1  -3  12   43.30    4.61
  -1  -3  12   35.29    4.30
  -1  -3  12   49.07    5.93
  -1  -3  11   40.23    3.90
  -1  -3  11   50.86    4.41
  -1  -3  11   39.38    4.27
  -1  -3  10    4.66    2.11
  -1  -3  10   13.68    4.09
  -1  -3  10   10.24    2.72
  -1  -3   9  349.47   10.51
  -1  -3   9  339.30   22.84
  -1  -3   9  332.78   22.66
  -1  -3   8  420.73   10.87
  -1  -3   8  433.58   11.28
  -1  -3   8  411.61   11.10
  -1  -3   7  730.04   14.96
  -1  -3   7  673.52   13.47
  -1  -3   7  730.60   14.83
  -1  -3   7  767.46   15.93
   1   3  -6  407.88    6.51
  -1  -3   6  389.30    6.28
  -1  -3   6  380.05    6.55
  -1  -3   6  415.05    7.41
  -1  -3   5  286.83   11.91
   1   3  -5  328.97   13.39
  -1  -3   5  304.66   12.39
  -1  -3   5  297.05   12.14
  -1  -3   5  321.02   13.40
  -1  -3   4 1974.65   14.85
   1   3  -4 2132.71   15.37
  -1  -3   4 2021.16   14.40
  -1  -3   4 1969.84   14.32
  -1  -3   4 2140.67   16.06
  -1  -3   3  106.03    8.18
  -1  -3   3  116.69    4.16
   1   3  -3  118.51    3.36
  -1  -3   3  115.01    3.09
  -1  -3   3  125.91    3.83
   1   3  -3  108.48    3.17
  -1  -3   2  381.58    9.66
  -1  -3   2  369.41    9.53
   1   3  -2  366.24    8.91
  -1  -3   2  353.89    8.66
  -1  -3   2  376.71    9.54
   1   3  -2  342.09    8.62
  -1  -3   1 3377.18   23.17
   1   3  -1 3471.62   22.59
   1   3  -1 3387.38   22.84
   1   3   0 1313.59    9.31
  -1  -3   0 1239.83    8.71
  -1  -3   0 1319.30    9.89
   1   3   0 1250.47    9.50
   1   3   1 1922.94   13.63
   1   3   1 1970.89   13.82
  -1  -3  -1 1912.57   13.30
  -1  -3  -1 2002.39   14.47
  -1  -3  -2 3662.31   24.61
   1   3   2 3613.50   24.20
   1   3   2 3624.48   24.65
  -1  -3  -2 3779.57   25.90
  -1  -3  -3 2205.94   15.43
  -1  -3  -3 2085.60   15.04
  -1  -3  -3 2284.66   16.88
  -1  -3  -4   35.48    1.40
   1   3   4   30.06    1.14
   1   3   4   31.04    1.40
   1   3   4   36.12    2.63
  -1  -3  -4   34.21    2.07
   1   3   4   22.64    1.79
  -1  -3  -5  638.79    5.61
   1   3   5  585.69    5.04
   1   3   5  594.50    6.95
  -1  -3  -5  609.94    7.01
  -1  -3  -6   83.28    3.73
   1   3   6   75.25    3.38
   1   3   6   73.32    4.59
  -1  -3  -7    7.75    0.88
   1   3   7    8.60    0.94
   1   3   7   10.56    2.88
  -1  -3  -7   16.73    2.78
  -1  -3  -8    6.62    0.88
   1   3   8    4.50    0.79
   1   3   8    3.22    3.06
  -1  -3  -8   11.49    2.33
  -1  -3  -9   54.22    3.88
   1   3   9   50.82    3.31
   1   3   9   50.06    6.00
  -1  -3  -9   64.21    8.87
  -1  -3 -10  762.11   24.48
   1   3  10  824.75   28.16
  -1  -3 -10  834.00   28.18
   1   3  11  328.67   12.75
  -1  -3 -11  340.25   11.75
   1   3  12    4.83    4.43
  -1  -3 -12    3.70    1.60
   1   3  13    6.47    3.69
  -1  -3 -13   18.32    3.85
  -1  -4  12   20.17    3.01
  -1  -4  12   12.66    2.78
  -1  -4  12   13.33    2.06
  -1  -4  11    6.05    2.82
  -1  -4  11    9.30    3.02
  -1  -4  10   66.76    4.42
  -1  -4  10   60.84    3.69
  -1  -4  10   60.79    3.99
  -1  -4   9   43.84    4.26
  -1  -4   9   56.13    4.94
  -1  -4   9   53.29    4.48
  -1  -4   8   54.55    4.68
  -1  -4   8   49.01    3.90
  -1  -4   8   57.01    4.72
  -1  -4   7  818.09   16.61
   1   4  -7  861.84   16.65
  -1  -4   7  771.34   15.05
  -1  -4   7  790.09   16.13
  -1  -4   6 1765.27   34.22
   1   4  -6 1868.56   35.50
  -1  -4   6 1666.70   31.78
  -1  -4   6 1577.42   30.08
  -1  -4   6 1830.71   35.19
  -1  -4   5  250.71   13.52
   1   4  -5  252.20   13.12
  -1  -4   5  244.03   12.79
  -1  -4   5  242.50   12.67
  -1  -4   5  249.57   13.23
  -1  -4   4   99.76    5.49
   1   4  -4   91.59    4.38
  -1  -4   4   88.05    3.86
  -1  -4   4   88.68    3.96
  -1  -4   4   92.11    4.36
  -1  -4   3  612.37    6.77
   1   4  -3  651.89    5.33
  -1  -4   3  668.65    5.58
  -1  -4   3  661.79    6.30
   1   4  -3  629.98    5.84
  -1  -4   2 1220.73   10.07
  -1  -4   2 1265.78   10.81
   1   4  -2 1254.43    9.29
  -1  -4   2 1234.00    9.07
  -1  -4   2 1257.35   10.01
   1   4  -2 1211.14    9.57
   1   4  -1  362.67    9.09
  -1  -4   1  349.61    8.69
  -1  -4   1  345.37    8.80
   1   4  -1  317.65    8.18
   1   4   0   37.74    1.82
   1   4   0   36.40    1.73
  -1  -4   0   42.71    2.07
   1   4   0   39.63    1.92
  -1  -4  -1  843.99    7.67
   1   4   1  841.56    7.30
  -1  -4  -1  812.91    6.74
   1   4   1  785.94    7.05
  -1  -4  -2  283.95    4.00
   1   4   2  256.94    3.42
   1   4   2  281.18    4.31
  -1  -4  -2  255.53    3.60
  -1  -4  -2  285.85    4.40
   1   4   2  248.12    3.53
  -1  -4  -3 1887.83   14.54
   1   4   3 1828.27   14.53
  -1  -4  -3 1762.08   13.69
  -1  -4  -3 1895.37   15.19
  -1  -4  -4 1040.12   15.54
   1   4   4  972.43   14.37
  -1  -4  -4 1052.59   16.27
  -1  -4  -5 2252.21   32.14
   1   4   5 2129.63   30.24
   1   4   5 2214.73   32.37
  -1  -4  -5 2225.24   32.49
  -1  -4  -6  823.78   12.03
   1   4   6  716.79   10.41
  -1  -4  -6  805.55   12.80
  -1  -4  -7   26.64    2.52
   1   4   7   22.88    2.16
   1   4   7   22.58    3.28
  -1  -4  -7   23.27    3.12
  -1  -4  -8   16.56    1.63
   1   4   8   14.82    1.58
   1   4   8   10.55    2.61
  -1  -4  -9  130.08    7.06
   1   4   9  116.49    8.35
  -1  -4  -9  131.64   12.53
   1   4  10   14.10    4.99
  -1  -4 -10    7.44    2.43
   1   4  11   14.72    3.17
  -1  -4 -11   19.32    4.03
   1   4  12   64.87    6.63
  -1  -4 -12   68.75   10.01
   1   4  13  104.31    8.57
  -1  -4 -13   98.74   18.22
  -1  -5  12   67.34    8.36
  -1  -5  11  321.78   11.17
  -1  -5  11  326.23   10.58
  -1  -5  11  339.26   11.03
  -1  -5  10   64.54    4.53
  -1  -5  10   60.86    3.77
  -1  -5  10   73.14    4.47
  -1  -5   9  137.16    7.57
  -1  -5   9  137.43    6.81
  -1  -5   9  143.64    7.28
  -1  -5   8   12.71    2.94
   1   5  -8   11.16    1.75
  -1  -5   8    9.94    1.95
  -1  -5   7  374.76   10.13
  -1  -5   7  307.14    7.20
  -1  -5   7  389.14    9.35
  -1  -5   6  694.34   14.52
   1   5  -6  709.84   13.86
  -1  -5   6  647.03   12.72
  -1  -5   6  595.67   12.11
  -1  -5   6  713.29   14.33
  -1  -5   5   21.99    2.27
   1   5  -5   26.33    3.47
  -1  -5   5   19.16    1.61
  -1  -5   5   17.59    2.19
  -1  -5   5   17.04    1.85
  -1  -5   4  644.44   10.68
   1   5  -4  674.50    9.68
  -1  -5   4  614.55    8.97
  -1  -5   4  706.04   10.62
   1   5  -4  603.70    8.97
  -1  -5   3 3913.56  200.10
   1   5  -3 3687.75   51.61
  -1  -5   3 3602.83   50.37
  -1  -5   3 3807.14   53.45
   1   5  -3 3598.63   50.54
  -1  -5   2  764.13   12.63
   1   5  -2  713.02   10.75
  -1  -5   2  699.19   10.45
  -1  -5   2  723.82   11.06
   1   5  -2  679.23   10.46
  -1  -5   1  618.24    7.12
   1   5  -1  603.52    5.92
  -1  -5   1  588.92    5.45
  -1  -5   1  627.99    6.12
  -1  -5   0   10.42    1.33
   1   5   0   11.40    1.41
  -1  -5   0   11.68    1.15
  -1  -5   0   15.60    1.61
   1   5   0   12.27    1.36
  -1  -5  -1 1449.35   12.45
   1   5   1 1524.68   12.28
  -1  -5  -1 1402.82   11.12
  -1  -5  -1 1521.26   12.44
   1   5   1 1380.47   11.40
  -1  -5  -2  542.26    9.48
   1   5   2  461.50    7.67
   1   5   2  534.36    9.03
  -1  -5  -2  514.86    8.42
  -1  -5  -2  533.59    9.23
  -1  -5  -3   22.25    2.02
   1   5   3   15.28    1.68
   1   5   3   21.35    2.73
  -1  -5  -3   21.67    2.33
  -1  -5  -4  283.89   15.14
   1   5   4  265.89   14.03
   1   5   4  297.88   16.08
  -1  -5  -4  315.19   16.53
  -1  -5  -5  777.97   15.79
   1   5   5  707.31   14.07
   1   5   5  774.27   16.64
  -1  -5  -5  818.85   17.02
  -1  -5  -6  193.27    9.99
   1   5   6  175.32    9.04
   1   5   6  184.19   10.54
  -1  -5  -6  191.39   10.63
  -1  -5  -7    6.67    2.07
   1   5   7    8.50    1.78
  -1  -5  -7    2.08    2.12
  -1  -5  -8    5.61    1.31
   1   5   8    4.13    1.23
  -1  -5  -8    3.45    1.30
  -1  -5  -9  606.14   15.37
   1   5   9  605.80   17.50
  -1  -5  -9  649.17   18.46
   1   5  10   38.94    4.77
  -1  -5 -10   41.80    8.01
   1   5  11   17.49    3.90
  -1  -5 -11   33.77    5.43
   1   5  12   17.24    5.38
  -1  -5 -12    9.84    3.33
  -1  -6  12   26.42    4.09
  -1  -6  11   67.81    7.07
  -1  -6  10   14.83    3.60
  -1  -6  10   12.88    2.76
  -1  -6   9  423.00   14.18
   1   6  -9  402.11   12.37
  -1  -6   9  414.27   12.96
  -1  -6   8  809.02   21.90
   1   6  -8  810.90   20.51
  -1  -6   8  797.98   20.39
  -1  -6   7   21.89    3.31
   1   6  -7   26.97    4.12
  -1  -6   7   21.76    2.43
  -1  -6   7   14.92    2.45
  -1  -6   7   26.83    3.14
  -1  -6   6  107.61    7.88
   1   6  -6  103.28    6.61
  -1  -6   6   97.11    6.36
  -1  -6   6   84.22    5.94
  -1  -6   6  104.96    6.95
  -1  -6   5   90.15    5.94
   1   6  -5   95.02    5.10
  -1  -6   5  100.26    5.41
  -1  -6   5   79.07    5.85
  -1  -6   5  101.88    5.69
  -1  -6   4  790.53   16.68
   1   6  -4  782.00   15.29
  -1  -6   4  739.72   14.47
  -1  -6   4  797.35   15.76
   1   6  -4  770.71   15.20
  -1  -6   3  394.63    9.49
   1   6  -3  400.25    8.34
  -1  -6   3  370.21    7.69
  -1  -6   3  374.43    7.93
   1   6  -3  370.50    7.86
  -1  -6   2  394.61    8.21
   1   6  -2  429.36    7.01
  -1  -6   2  395.67    6.27
  -1  -6   2  412.57    6.76
   1   6  -2  400.58    6.74
  -1  -6   1   35.89    4.10
   1   6  -1   25.07    2.29
  -1  -6   1   27.41    2.10
  -1  -6   1   27.02    2.44
   1   6  -1   23.88    2.17
  -1  -6   0  822.69   13.06
   1   6   0  818.95   12.31
  -1  -6   0  788.48   11.60
  -1  -6   0  869.15   13.02
  -1  -6  -1  516.38    9.17
   1   6   1  505.88    8.57
  -1  -6  -1  452.77    7.33
  -1  -6  -1  523.16    8.84
  -1  -6  -2  205.93   11.52
   1   6   2  184.06   10.32
  -1  -6  -2  191.16   10.66
  -1  -6  -3  809.47   16.75
   1   6   3  780.29   16.45
  -1  -6  -3  836.67   17.20
  -1  -6  -4 1933.35   37.43
   1   6   4 1960.89   38.17
  -1  -6  -4 1953.67   37.98
  -1  -6  -5  145.49    7.91
   1   6   5  153.68    8.85
  -1  -6  -5  151.16    8.87
  -1  -6  -6  643.18   15.77
   1   6   6  629.09   16.54
  -1  -6  -6  661.87   16.96
  -1  -6  -7   18.21    2.35
   1   6   7   16.59    3.39
  -1  -6  -7   22.36    3.70
  -1  -6  -8   19.86    3.13
   1   6   8   17.71    4.38
  -1  -6  -8   22.06    4.35
  -1  -6  -9   23.80    3.35
   1   6   9   23.03    4.15
  -1  -6  -9   19.76    3.98
   1   6  10   79.21    7.06
  -1  -6 -10   70.99    8.80
   1   6  11  117.18    7.41
   1   6  12   83.96    7.36
  -1  -6 -12   85.66   16.42
  -1  -7  11   23.12    4.63
  -1  -7  10   13.01    3.51
  -1  -7   9  171.70    8.15
  -1  -7   8  133.52    8.06
   1   7  -8  118.31    6.96
  -1  -7   8  133.27    6.24
  -1  -7   7  374.22   11.56
   1   7  -7  377.26   10.61
  -1  -7   7  403.11   10.64
  -1  -7   6  212.23   10.60
   1   7  -6  220.91    9.34
  -1  -7   6  203.95    8.75
  -1  -7   5  669.87   16.16
   1   7  -5  654.28   14.19
  -1  -7   5  597.66   13.08
  -1  -7   5  655.16   14.35
  -1  -7   4  306.50    9.39
   1   7  -4  289.16    7.36
  -1  -7   4  283.29    7.14
  -1  -7   4  296.14    7.60
   1   7  -4  275.18    7.07
  -1  -7   3  291.56    8.97
   1   7  -3  285.19    7.39
  -1  -7   3  258.29    6.71
  -1  -7   3  282.19    7.41
   1   7  -3  250.92    6.71
  -1  -7   2  488.15   11.46
   1   7  -2  492.35   10.25
  -1  -7   2  465.94    9.48
  -1  -7   2  484.16   10.11
   1   7  -2  421.15    8.83
  -1  -7   1  425.26    8.78
  -1  -7   1  464.84    9.97
  -1  -7   0   82.29    7.02
   1   7   0   85.29    5.52
  -1  -7   0   95.46    5.88
  -1  -7  -1   56.75    5.65
   1   7   1   55.75    5.20
  -1  -7  -1   59.19    5.35
  -1  -7  -2  516.18   11.78
   1   7   2  530.73   11.63
  -1  -7  -2  547.18   11.80
  -1  -7  -3  569.69   14.81
   1   7   3  558.64   14.34
  -1  -7  -3  565.71   14.32
  -1  -7  -4   42.05    4.62
   1   7   4   37.53    4.00
  -1  -7  -4   47.52    5.28
  -1  -7  -5   11.92    2.26
   1   7   5   12.87    3.16
  -1  -7  -5   12.87    3.20
  -1  -7  -6   51.04    4.50
   1   7   6   50.50    6.21
  -1  -7  -6   54.05    5.64
  -1  -7  -7  303.69    8.98
   1   7   7  305.02   10.68
  -1  -7  -7  333.28   11.00
  -1  -7  -8   23.39    3.46
   1   7   8   33.37    6.25
  -1  -7  -8   31.17    6.47
  -1  -7  -9   66.24    5.16
   1   7   9   49.66    5.55
  -1  -7  -9   65.11   10.78
   1   7  10   26.69    5.69
  -1  -7 -10   26.33    3.80
  -1  -7 -11   15.39    4.80
  -1  -8  10  294.28   16.70
  -1  -8   9  139.57    7.84
  -1  -8   8   26.39    5.92
  -1  -8   7    8.49    4.90
   1   8  -7    4.35    1.06
  -1  -8   6    9.49    3.37
   1   8  -6    8.38    1.76
  -1  -8   6    8.55    1.51
  -1  -8   5   65.56    4.88
   1   8  -5   61.39    4.43
  -1  -8   5   64.31    3.49
  -1  -8   4   63.19    9.30
   1   8  -4   74.70    3.85
  -1  -8   4   84.49    4.23
  -1  -8   3  514.96   15.41
   1   8  -3  506.32   14.15
  -1  -8   3  504.98   14.08
   1   8  -3  420.60   11.81
  -1  -8   2  409.67   11.57
   1   8  -2  434.97   10.29
  -1  -8   2  429.76   10.08
   1   8  -1  356.18    9.25
  -1  -8   1  335.41    8.35
  -1  -8   0  277.98    8.79
   1   8   0  257.84    6.98
  -1  -8   0  273.28    7.16
  -1  -8  -1  143.00   10.52
   1   8   1  123.39    8.49
  -1  -8  -1  131.11    8.79
  -1  -8  -2  636.26   15.57
   1   8   2  601.20   14.20
  -1  -8  -2  644.47   15.17
  -1  -8  -3  163.00    9.80
   1   8   3  162.91    9.72
  -1  -8  -3  166.84   10.05
  -1  -8  -4  188.74    8.97
   1   8   4  182.92    9.42
  -1  -8  -4  179.83    8.90
  -1  -8  -5   83.93    5.39
   1   8   5   74.29    5.62
  -1  -8  -5   84.76    6.15
  -1  -8  -6   30.08    4.14
   1   8   6   24.45    4.47
  -1  -8  -6   30.14    4.14
  -1  -8  -7    8.50    2.88
   1   8   7    7.89    3.48
  -1  -8  -7    3.18    2.74
  -1  -8  -8  122.00    8.79
   1   8   8  124.13   10.47
  -1  -8  -8  137.82   10.07
   1   8   9   28.44    3.74
  -1  -8  -9   11.78    2.51
   1   8  10   26.25    4.86
  -1  -8 -10   31.53    4.53
  -1  -9   9   68.00    5.54
  -1  -9   8  491.23  118.71
  -1  -9   7  203.29    9.13
  -1  -9   6   22.61    5.87
  -1  -9   5  153.05    8.35
   1   9  -5  158.36    7.05
  -1  -9   4    6.71    4.75
   1   9  -4    9.37    1.66
  -1  -9   4    7.48    1.58
  -1  -9   3  305.42   12.02
   1   9  -3  327.58   11.49
  -1  -9   3  314.49   10.90
  -1  -9   2  211.50    8.52
   1   9  -2  236.92    7.26
  -1  -9   2  218.23    6.72
  -1  -9   1  165.28    8.72
   1   9  -1  197.39    9.66
  -1  -9   1  169.56    8.12
  -1  -9   0  834.81   22.63
   1   9   0  779.60   20.44
  -1  -9   0  802.86   20.72
  -1  -9  -1  357.70   11.66
   1   9   1  338.72   10.09
  -1  -9  -1  338.25    9.87
  -1  -9  -2   13.60    3.27
   1   9   2   12.14    2.99
  -1  -9  -2   11.44    2.48
  -1  -9  -3   38.11    3.11
   1   9   3   53.58    4.17
  -1  -9  -3   39.43    3.92
  -1  -9  -4   11.63    3.60
   1   9   4    7.49    3.17
  -1  -9  -4    4.55    2.39
  -1  -9  -5  265.56    8.12
   1   9   5  268.43    8.74
  -1  -9  -5  289.84    8.65
  -1  -9  -6   17.80    4.04
   1   9   6   15.25    5.67
  -1  -9  -6   16.22    3.94
  -1  -9  -7    5.92    2.22
   1   9   7    7.46    5.24
  -1  -9  -7   17.33    5.53
  -1  -9  -8   30.07    3.43
   1   9   8   27.50    5.43
  -1  -9  -8   33.71    5.74
   1   9   9   37.72    6.49
  -1  -9  -9   33.27    6.30
  -1 -10   6   16.47    4.85
  -1 -10   5  300.27   11.78
  -1 -10   4  161.35    8.13
  -1 -10   3   40.50    6.03
   1  10  -3   46.48    4.08
  -1 -10   2   50.20    5.90
   1  10  -2   52.51    4.08
  -1 -10   2   43.35    3.21
  -1 -10   1   95.38    6.86
   1  10  -1  106.75    6.96
  -1 -10   1   98.87    6.11
  -1 -10   0  357.51   10.11
   1  10   0  365.62    9.57
  -1 -10   0  337.83    7.95
  -1 -10  -1   80.93    6.27
   1  10   1   86.95    5.65
  -1 -10  -1   80.76    5.08
  -1 -10  -2  206.15    7.35
   1  10   2  220.03    7.36
  -1 -10  -2  202.99    6.21
  -1 -10  -3   68.68    6.48
  -1 -10  -3   59.86    5.49
  -1 -10  -4  330.67   11.51
   1  10   4  320.72   11.25
  -1 -10  -4  341.57   11.54
  -1 -10  -5   17.17    4.61
   1  10   5   14.37    3.42
  -1 -10  -5   20.34    3.57
  -1 -10  -6   11.17    4.30
   1  10   6   11.13    4.34
  -1 -10  -6   10.59    3.57
  -1 -10  -7   97.35    6.36
   1  10   7   95.02    6.98
  -1 -10  -7   80.84   17.72
  -1 -11   5   67.75    5.89
  -1 -11   4   14.23    5.02
  -1 -11   3  202.92   11.27
  -1 -11   1   96.62    7.45
   1  11  -1   93.39    5.51
  -1 -11   0   21.40    4.40
   1  11   0   35.67    4.03
  -1 -11   0   32.29    3.64
  -1 -11  -1   26.12    5.25
  -1 -11  -1   15.22    3.02
  -1 -11  -2  278.30   13.35
   1  11   2  293.78   13.95
  -1 -11  -3   12.57    4.01
   1  11   3    1.42    2.70
  -1 -11  -3   13.27    3.08
  -1 -11  -4    3.99    2.82
   1  11   4    2.32    2.84
  -1 -11  -4    0.57    2.01
  -1 -11  -5   26.56    4.70
   1  11   5   15.02    3.14
  -1 -11  -5   19.05    3.51
   2 -10  -3    5.82    3.26
  -2  10   3    9.47    4.46
   2 -10  -3    1.68    1.77
   2 -10  -2    0.46    2.76
  -2  10   2    6.96    3.93
   2 -10  -2    1.35    1.36
   2 -10  -1   58.84    7.81
  -2  10   1   63.58    8.23
   2 -10   0  120.23    8.52
  -2  10   0  138.26    8.15
   2 -10   1    5.11    2.99
  -2  10  -1   11.01    5.00
   2 -10   2   22.89    4.96
  -2  10  -2   11.77    2.70
   2 -10   3  154.29   11.67
  -2  10  -3  147.52   10.02
   2 -10   4   66.41    8.48
  -2  10  -4   69.39    8.73
   2 -10   5   54.63    5.32
   2  -9  -5  117.32    8.44
  -2   9   5  132.47   10.25
   2  -9  -5  110.49   12.24
   2  -9  -4    7.19    3.37
  -2   9   4    7.29    5.82
   2  -9  -4    4.03    1.84
   2  -9  -3  168.63    9.49
  -2   9   3  165.36   10.29
   2  -9  -3  113.63   16.54
   2  -9  -2  240.50   10.18
  -2   9   2  224.24    9.39
   2  -9  -2  191.91   13.07
   2  -9  -1   55.50    6.24
  -2   9   1   58.56    5.84
   2  -9  -1   37.44    8.89
   2  -9   0  118.96    9.60
  -2   9   0  117.38    9.34
   2  -9   0   90.30   10.70
   2  -9   1   14.22    6.14
  -2   9  -1    9.18    4.15
   2  -9   1    2.44    0.97
   2  -9   2   87.09    7.45
  -2   9  -2   90.96    7.72
   2  -9   3  148.73    7.45
  -2   9  -3  141.00    7.02
   2  -9   4   -6.14    2.97
  -2   9  -4   10.66    4.51
   2  -9   5  149.71    7.80
  -2   9  -5  152.14    6.60
   2  -9   6   73.82    8.05
  -2   9  -6   60.68    6.29
   2  -9   7   66.60    8.87
  -2   9  -7   51.14    6.41
   2  -9   8    3.97    3.23
  -2   9  -8    6.94    2.61
   2  -8  -7   79.18    5.86
  -2   8   7   89.60    7.34
   2  -8  -7   82.67   12.48
   2  -8  -6   -1.82    2.56
  -2   8   6    3.74    3.87
   2  -8  -6    7.28    3.17
   2  -8  -5   15.27    4.38
  -2   8   5    5.22    5.07
   2  -8  -5    7.94    3.05
   2  -8  -4   16.04    5.77
  -2   8   4   16.27    6.76
   2  -8  -4   -3.57    2.00
   2  -8  -3  147.57    6.04
  -2   8   3  137.35    6.65
   2  -8  -3  142.60    8.92
   2  -8  -2  134.80    7.29
  -2   8   2  125.51    7.99
   2  -8  -2  128.21    8.85
   2  -8  -1   32.17    5.12
  -2   8   1   38.31    3.88
   2  -8  -1   34.11    6.19
   2  -8   0  161.65    8.02
  -2   8   0  145.83   16.92
   2  -8   0  140.40   17.59
   2  -8   1  228.75   10.20
  -2   8  -1  247.90   10.34
   2  -8   1  215.23    7.78
   2  -8   2   33.61    5.86
  -2   8  -2   26.61    3.96
   2  -8   2   21.65    4.79
   2  -8   3  417.02   15.99
  -2   8  -3  429.00   15.83
   2  -8   4  347.81   14.40
  -2   8  -4  324.20   12.29
   2  -8   5  436.39   16.09
  -2   8  -5  440.68   14.54
   2  -8   6  178.26    7.59
  -2   8  -6  204.65    7.18
   2  -8   7  110.05   11.16
  -2   8  -7   95.09    9.04
   2  -8   8  204.48   10.84
  -2   8  -8  178.25   16.39
   2  -8   9   62.78    8.32
  -2   8  -9   48.25    9.02
   2  -7  -8    7.47    3.48
  -2   7   8    9.13    4.98
   2  -7  -8   18.09    6.05
   2  -7  -7  142.98    7.91
  -2   7   7  154.61    9.54
   2  -7  -7  120.63   18.97
   2  -7  -6    1.27    2.28
  -2   7   6   16.59    5.92
   2  -7  -6    4.88    2.93
   2  -7  -5   92.54    6.13
  -2   7   5   95.38    6.62
   2  -7  -5   83.10    8.35
   2  -7  -4  780.96   26.79
  -2   7   4  812.40   28.04
   2  -7  -4  768.87   29.02
   2  -7  -3  108.31    7.31
  -2   7   3  108.16    6.83
   2  -7  -3  104.63    8.41
   2  -7  -2  524.74   18.61
  -2   7   2  524.13   18.79
   2  -7  -2  478.96   16.92
   2  -7  -1   71.44    6.41
  -2   7   1   67.98    7.34
   2  -7  -1   54.63    6.66
   2  -7   0   85.04    6.07
  -2   7   0   97.43    6.58
   2  -7   0   87.76    7.45
   2  -7   1  556.01   16.48
  -2   7  -1  536.12   16.07
   2  -7   1  485.30   13.43
   2  -7   2   28.82    4.70
  -2   7  -2   12.17    2.77
   2  -7   2   18.44    2.28
  -2   7  -2   10.80    1.37
   2  -7   3  240.28   14.26
  -2   7  -3  260.57   14.67
   2  -7   3  228.64   12.11
   2  -7   4  233.85   11.76
  -2   7  -4  238.55   11.22
   2  -7   5  272.18   11.67
  -2   7  -5  234.04   10.74
   2  -7   6  504.32   18.63
  -2   7  -6  492.11   17.29
   2  -7   7  290.57   11.48
  -2   7  -7  282.51    9.97
   2  -7   8  314.87    8.66
  -2   7  -8  324.28    8.33
   2  -7   9   44.30    5.83
  -2   7  -9   43.02    7.75
   2  -7  10   23.11    3.39
  -2   7 -10   17.41    4.80
   2  -7  11   -1.07    2.32
  -2   7 -11    3.50    1.60
   2  -6  -9  193.50    9.85
  -2   6   9  193.72   10.83
   2  -6  -9  167.30   17.60
   2  -6  -8   31.15    4.25
  -2   6   8   30.94    4.70
   2  -6  -8   19.03    4.60
   2  -6  -7   13.55    2.94
  -2   6   7   16.24    5.63
   2  -6  -7   12.46    3.52
   2  -6  -6   -2.89    2.06
  -2   6   6    4.43    3.77
   2  -6  -6    1.34    2.65
   2  -6  -5    4.39    2.36
   2  -6  -5    7.74    2.28
   2  -6  -4  951.76   26.45
  -2   6   4  992.05   27.84
   2  -6  -4  931.40   27.47
   2  -6  -3   -0.12    2.45
  -2   6   3    0.60    3.31
   2  -6  -3    0.19    1.64
   2  -6  -2  787.53   19.74
  -2   6   2  797.29   20.13
   2  -6  -2  754.24   19.30
   2  -6  -1  736.90   18.78
  -2   6   1  799.50   20.27
   2  -6  -1  742.29   17.79
  -2   6   0  625.65   13.80
   2  -6   0  637.45   13.08
   2  -6   1  110.44    7.08
  -2   6  -1  106.52    6.50
   2  -6   1  103.29    5.89
  -2   6  -1   95.73    5.19
   2  -6   2  196.93   11.48
  -2   6  -2  182.21   10.22
   2  -6   2  178.23    9.12
  -2   6  -2  161.34    8.19
   2  -6   3  712.55   18.04
  -2   6  -3  714.27   17.86
  -2   6  -3  676.54   15.54
   2  -6   4  532.08   14.70
  -2   6  -4  525.59   13.72
   2  -6   5  198.86    7.20
  -2   6  -5  213.07    6.51
   2  -6   6  426.63   13.53
  -2   6  -6  413.00   12.40
   2  -6   7  576.05   20.27
  -2   6  -7  557.62   19.21
   2  -6   8   59.77    4.64
  -2   6  -8   65.76    8.09
   2  -6   9  320.45   11.36
  -2   6  -9  297.06   10.21
   2  -6  10  190.90    7.68
  -2   6 -10  158.89   15.39
   2  -6  11  162.12    8.66
  -2   6 -11  134.62   14.79
   2  -6  12    3.99    2.20
  -2   6 -12   -2.83    1.84
   2  -5 -10   47.74    4.57
  -2   5  10   42.22    6.70
   2  -5 -10   46.83    8.68
   2  -5  -9  125.08   11.22
  -2   5   9  113.66   11.13
   2  -5  -9   99.91   13.54
   2  -5  -8   69.97    4.93
  -2   5   8   73.20    6.17
   2  -5  -8   60.89    8.50
   2  -5  -7  445.13   15.99
  -2   5   7  425.61   16.54
   2  -5  -7  433.49   15.86
   2  -5  -6  574.50   19.73
  -2   5   6  586.63   21.02
   2  -5  -6  579.90   20.04
   2  -5  -5  180.96   10.62
  -2   5   5  176.99   10.78
   2  -5  -5  182.33   18.28
   2  -5  -4   20.29    2.92
  -2   5   4   15.26    3.09
   2  -5  -4   15.47    2.27
   2  -5  -3   34.10    3.98
   2  -5  -3   42.50    4.96
   2  -5  -2  263.28   14.45
  -2   5   2  274.23   14.72
   2  -5  -2  262.16   13.77
   2  -5  -1  383.09    9.29
  -2   5   1  397.58   10.22
   2  -5  -1  396.91    9.60
   2  -5   0   21.17    2.81
  -2   5   0   23.05    3.81
   2  -5   0   22.98    3.23
  -2   5   0   18.23    1.78
   2  -5   1 1092.35   16.86
  -2   5  -1 1226.36   18.58
   2  -5   1 1257.95   17.61
  -2   5  -1 1130.11   15.90
   2  -5   2 1284.88   19.38
  -2   5  -2 1273.30   19.11
   2  -5   2 1280.12   17.64
  -2   5  -2 1203.42   16.61
   2  -5   3  228.01   12.63
  -2   5  -3  238.95   12.97
  -2   5  -3  227.26   11.47
   2  -5   4  419.40   10.27
  -2   5  -4  434.19   10.16
   2  -5   5  445.78   10.47
  -2   5  -5  444.98   10.16
   2  -5   6  851.46   20.98
  -2   5  -6  818.05   19.93
   2  -5   7   36.33    3.85
  -2   5  -7   34.42    3.29
   2  -5   8   40.73    4.43
  -2   5  -8   38.68    4.87
   2  -5   9  206.86    8.49
  -2   5  -9  209.69    8.28
   2  -5  10  512.02   16.54
  -2   5 -10  461.31   14.77
   2  -5  11   16.22    3.63
  -2   5 -11   14.06    2.63
   2  -5  12   77.32    4.53
  -2   5 -12   59.57    9.60
  -2   4  11   48.16    8.06
   2  -4 -11   35.76    7.56
   2  -4 -10    3.35    1.54
  -2   4  10    0.35    3.21
   2  -4 -10   10.76    3.96
   2  -4  -9    6.75    2.68
  -2   4   9    3.55    3.47
   2  -4  -9    9.54    2.59
   2  -4  -8   45.87    3.14
  -2   4   8   47.14    4.63
   2  -4  -8   42.77    6.08
   2  -4  -7   37.72    4.19
  -2   4   7   29.48    4.39
   2  -4  -7   42.26    5.93
   2  -4  -6  141.77    9.64
  -2   4   6  121.86    8.99
   2  -4  -6  138.24   12.96
   2  -4  -5    7.88    2.16
  -2   4   5   12.81    3.64
   2  -4  -5   15.61    2.52
   2  -4  -4  766.88   16.09
  -2   4   4  657.10   14.74
   2  -4  -4  749.85   15.52
   2  -4  -3 1614.67   23.53
  -2   4   3 1701.61   25.09
   2  -4  -3 1648.14   23.52
   2  -4  -2  558.06    9.83
  -2   4   2  553.61   10.08
   2  -4  -2  547.72    9.02
   2  -4  -1   15.62    2.13
   2  -4  -1   13.61    1.36
  -2   4   1   11.36    1.31
   2  -4   0  539.03    9.69
  -2   4   0  554.63   10.05
   2  -4   0  551.52    8.99
  -2   4   0  513.00    8.19
   2  -4   1 1810.58   26.94
  -2   4  -1 1804.42   26.79
   2  -4   1 1825.95   25.94
  -2   4  -1 1703.39   24.28
   2  -4   2  320.66   13.78
  -2   4  -2  313.31   13.20
   2  -4   2  345.82   14.08
  -2   4  -2  322.20   12.99
   2  -4   3  417.25   17.63
  -2   4  -3  415.33   17.28
  -2   4  -3  403.84   16.08
  -2   4  -3  387.76   15.43
   2  -4   4 1565.49   22.79
  -2   4  -4 1577.47   22.76
   2  -4   5 2250.76   31.91
  -2   4  -5 2207.94   31.14
   2  -4   6   70.61    5.20
  -2   4  -6   73.10    4.86
   2  -4   7 1249.31   29.39
  -2   4  -7 1227.14   28.89
   2  -4   8  139.16    9.52
  -2   4  -8  126.70    8.51
   2  -4   9  318.81   11.49
  -2   4  -9  300.48   11.49
   2  -4   9  288.69    9.41
   2  -4  10   47.26    3.47
  -2   4 -10   43.40    5.59
   2  -4  11  151.16    5.27
  -2   4 -11  151.05   13.38
   2  -4  12   18.59    2.68
  -2   4 -12   29.51    5.69
  -2   4 -13   11.67    4.26
  -2   3  11   48.73    5.69
   2  -3 -11   60.35   12.09
   2  -3 -10   20.19    3.93
  -2   3  10   20.33    5.97
   2  -3 -10   16.61    4.17
   2  -3  -9  129.40    5.41
  -2   3   9  143.80   17.31
   2  -3  -9  146.47   15.45
   2  -3  -8  570.79   19.41
  -2   3   8  508.28   18.21
   2  -3  -8  529.85   18.77
   2  -3  -7  217.03    6.26
  -2   3   7  209.19    7.48
   2  -3  -7  218.26   15.03
   2  -3  -6  113.16    8.73
  -2   3   6  112.01    9.70
   2  -3  -6  119.26   13.29
   2  -3  -5   90.24    5.70
  -2   3   5   86.08    6.00
   2  -3  -5   90.85    7.60
   2  -3  -4  261.54   14.09
  -2   3   4  264.51   14.83
   2  -3  -4  259.64   14.16
   2  -3  -3  279.87   12.14
  -2   3   3  281.50   12.49
   2  -3  -3  271.92   12.65
   2  -3  -2 1632.36   24.21
  -2   3   2 1610.59   24.18
   2  -3  -2 1635.22   23.90
  -2   3   2 1504.48   21.98
   2  -3  -1 2834.87   20.70
  -2   3   1 2600.92   18.95
  -2   3   0  976.69    9.00
   2  -3   1   19.67    1.85
  -2   3  -1   12.13    1.26
  -2   3  -1   16.01    1.76
   2  -3   1   22.39    2.00
   2  -3   1   23.16    2.84
  -2   3  -1   18.20    1.04
   2  -3   2 1147.50   10.32
  -2   3  -2 1121.70    8.14
  -2   3  -3  286.82    4.08
  -2   3  -3  336.94    5.07
   2  -3   3  298.88    4.28
   2  -3   4 1152.22   17.56
  -2   3  -4 1009.61   15.24
  -2   3  -4 1047.75   16.16
   2  -3   5  705.19   11.81
  -2   3  -5  742.20   11.99
   2  -3   6  526.99    9.02
  -2   3  -6  532.60    9.13
   2  -3   7  276.68   21.62
  -2   3  -7  284.14    7.01
   2  -3   7  279.39    5.53
   2  -3   7  300.32    6.01
   2  -3   8  657.64   15.99
  -2   3  -8  635.07   15.71
   2  -3   8  597.52   13.77
   2  -3   8  649.80   15.04
   2  -3   9  442.95   12.76
  -2   3  -9  453.09   13.58
   2  -3   9  414.83   11.24
   2  -3  10  171.76    7.89
  -2   3 -10  166.25    8.05
   2  -3  11  357.30   11.37
  -2   3 -11  347.63   11.58
   2  -3  11  315.49    9.94
  -2   3 -12  213.63    8.53
  -2   3 -13    3.33    2.06
  -2   2  12   54.10    7.64
   2  -2 -12   44.92   10.47
  -2   2  11   33.16    5.82
   2  -2 -11   27.23    4.45
   2  -2 -10   19.68    3.80
  -2   2  10   17.63    5.58
   2  -2 -10   17.01    3.64
   2  -2  -9    5.71    1.76
  -2   2   9   10.62    5.01
   2  -2  -9    7.01    1.97
   2  -2  -8  131.31    7.85
  -2   2   8  116.77    7.88
   2  -2  -7   30.84    3.25
  -2   2   7   22.54    2.95
   2  -2  -7   29.35    5.03
   2  -2  -6 1091.28   21.44
  -2   2   6 1023.26   20.74
   2  -2  -6  975.96   21.37
   2  -2  -5  488.53    8.51
  -2   2   5  466.41    8.83
   2  -2  -5  488.13    8.63
   2  -2  -4 1331.71   20.04
  -2   2   4 1427.40   21.97
   2  -2  -4 1405.43   21.15
   2  -2  -3  217.65    4.26
  -2   2   3  204.40    3.67
  -2   2   3  214.75    5.01
  -2   2   2 1227.91   10.93
   2  -2  -2 1225.26   10.66
  -2   2   2 1151.49    9.69
  -2   2   1 1603.66   12.52
  -2   2   1 1779.86   14.05
  -2   2   1 1707.31   12.59
  -2   2   0 1200.33    9.88
  -2   2   0 1267.69   10.01
   2  -2   1 2875.24   20.65
   2  -2   1 2764.24   19.75
  -2   2  -1 2881.99   19.40
   2  -2   2 2787.24   20.12
   2  -2   2 2629.20   18.95
  -2   2  -2 2798.37   18.36
  -2   2  -2 2696.37   17.78
  -2   2  -3 4822.77   32.55
   2  -2   3 4690.88   32.11
  -2   2  -3 4849.32   30.92
   2  -2   4 5495.33   38.01
  -2   2  -4 5040.62   34.77
   2  -2   4 5276.77   34.50
   2  -2   5   52.52    2.33
  -2   2  -5   48.73    1.91
  -2   2  -5   47.88    2.14
   2  -2   5   51.87    2.28
  -2   2  -5   50.92    0.93
   2  -2   5   52.10    1.03
   2  -2   6   17.78    2.00
  -2   2  -6   19.38    1.67
  -2   2  -6   17.20    2.00
  -2   2  -6   19.01    2.26
   2  -2   6   12.18    0.95
   2  -2   7  173.44    9.19
   2  -2   7  177.87    9.63
  -2   2  -7  186.69   10.26
  -2   2  -7  169.50    9.30
   2  -2   7  187.76    9.84
   2  -2   8  341.73   24.36
   2  -2   8  363.58    7.84
  -2   2  -8  375.95    8.63
  -2   2  -8  352.02   25.18
   2  -2   8  363.44    7.42
   2  -2   9  170.23   12.29
   2  -2   9  195.12   12.25
  -2   2  -9  216.23    6.77
  -2   2  -9  203.04   12.66
   2  -2   9  178.35   12.91
   2  -2  10  163.29    7.34
  -2   2 -10  155.19    7.61
  -2   2 -10  152.37    7.14
   2  -2  11  103.22    3.84
  -2   2 -11  113.73   12.04
  -2   2 -11   98.89    9.42
  -2   2 -12   34.66    3.38
  -2   2 -13   46.22    4.44
   2  -2  14  159.06    9.79
  -2   1  12   16.74    4.36
   2  -1 -12   11.60    3.77
   2  -1 -11  113.07   10.03
  -2   1  11  129.13   12.03
   2  -1 -11  142.35    6.63
   2  -1 -10  135.08    6.66
  -2   1  10  142.93    8.64
   2  -1 -10  145.56   19.21
   2  -1  -9  484.35   16.47
  -2   1   9  463.30   16.50
   2  -1  -9  493.14   17.79
   2  -1  -8  174.75   14.71
  -2   1   8  182.45   16.15
   2  -1  -8  167.70   11.16
   2  -1  -7  170.61    9.04
  -2   1   7  160.80    9.12
   2  -1  -7  168.19   12.52
   2  -1  -6  186.93   10.04
  -2   1   6  179.64   10.23
   2  -1  -6  178.54    9.85
   2  -1  -5   66.70    3.47
  -2   1   5   61.90    3.32
  -2   1   5   65.28    3.99
   2  -1  -5   89.77   10.85
  -2   1   4 1903.11   27.51
   2  -1  -4 1791.10   26.30
   2  -1  -3 3601.00   25.86
  -2   1   3 3286.62   23.68
  -2   1   3 3568.29   25.74
  -2   1   3 3315.95   23.82
  -2   1   2   51.21    2.29
  -2   1   2   54.35    2.68
   2  -1  -2   65.14    4.94
  -2   1   2   48.54    3.62
   2  -1  -1   21.10    1.98
  -2   1   1   17.06    1.32
  -2   1   1   20.03    1.59
   2  -1  -1   15.19    1.23
   2  -1  -1   19.67    1.36
   2  -1   0   70.77    2.90
  -2   1   0   79.10    2.94
  -2   1   0   76.98    2.91
   2  -1   0   71.37    2.74
   2  -1   0   87.14    2.84
  -2   1   0   82.34    4.33
   2  -1   1 1629.24   12.15
  -2   1  -1 1640.16   12.51
  -2   1  -1 1640.32   11.30
  -2   1  -1 1659.47   11.67
   2  -1   2 7543.36   49.29
   2  -1   2 7158.53   47.11
   2  -1   2 7410.78   47.51
   2  -1   3 2119.77   15.08
  -2   1  -3 2151.66   15.22
  -2   1  -3 2199.10   16.16
   2  -1   3 2088.58   15.28
  -2   1  -3 2151.63   14.38
   2  -1   3 2121.08   14.18
   2  -1   4 3832.66   25.80
  -2   1  -4 3661.01   24.59
   2  -1   4 3805.14   26.35
  -2   1  -4 3865.74   25.31
   2  -1   4 3798.55   24.85
   2  -1   5 5796.38   39.23
  -2   1  -5 5817.11   39.23
  -2   1  -5 5852.07  231.85
   2  -1   5 5827.66  230.89
   2  -1   6  550.93    8.49
  -2   1  -6  562.34    8.51
  -2   1  -6  571.05   10.44
  -2   1  -6  572.58    8.73
   2  -1   6  547.98    8.38
   2  -1   7  576.07    8.30
   2  -1   7  599.48    8.88
  -2   1  -7  629.54   10.18
  -2   1  -7  607.90    9.52
   2  -1   7  568.97    8.53
   2  -1   8   16.36    2.01
   2  -1   8   19.16    1.71
  -2   1  -8   24.79    3.46
  -2   1  -8   21.74    2.86
   2  -1   8   19.59    1.66
   2  -1   9  759.88   17.46
   2  -1   9  854.99   19.72
  -2   1  -9  883.42   21.22
  -2   1  -9  852.75   20.50
   2  -1  10  461.36   12.36
  -2   1 -10  597.95   17.14
  -2   1 -10  572.63   16.48
   2  -1  11    4.38    1.01
  -2   1 -11    5.17    2.90
  -2   1 -11    6.62    1.71
  -2   1 -12  134.60    5.26
  -2   1 -12  124.18   11.37
   2  -1  13  149.33    7.49
  -2   1 -13  127.56   15.28
   2  -1  14    6.61    3.33
  -2   1 -14    5.08    1.46
  -2   0  12    5.94    3.20
   2   0 -12    2.69    2.35
   2   0 -11   -0.66    1.35
  -2   0  11    2.65    2.77
   2   0 -11    2.28    2.46
   2   0 -10    5.30    1.76
  -2   0  10   13.62    3.41
   2   0 -10    6.95    2.60
   2   0  -9   11.82    1.85
  -2   0   9   12.39    3.41
   2   0  -9   13.78    2.43
   2   0  -8  900.51   20.59
  -2   0   8  850.68   19.49
   2   0  -8  881.79   20.88
   2   0  -7  123.42    6.74
  -2   0   7  125.51    7.60
   2   0  -7  113.42    7.30
   2   0  -6   86.20    5.26
  -2   0   6   92.22    6.29
   2   0  -6   95.85    7.37
   2   0  -5  577.16    9.51
  -2   0   5  478.98    7.81
  -2   0   5  527.51    9.27
   2   0  -4 1860.72   14.57
  -2   0   4 1672.66   13.07
  -2   0   4 1781.47   14.08
   2   0  -4 1761.63   13.65
   2   0  -3   98.30    3.43
  -2   0   3   94.65    3.02
  -2   0   3  112.30    4.03
   2   0  -3  103.12    3.18
  -2   0   3  107.86    7.43
   2   0  -2   73.50    2.87
  -2   0   2   68.55    2.59
   2   0  -2   62.46    2.34
   2   0  -2   72.58    2.62
  -2   0   1 5649.86   37.27
  -2   0   1 5823.35   38.30
  -2   0   0 6687.72   43.62
   2   0   0 6598.14   42.92
   2   0   1 1417.51   10.41
  -2   0  -1 1399.42   10.19
  -2   0  -1 1423.17   10.56
   2   0   1 1381.70    9.98
  -2   0  -2 6101.31   39.65
  -2   0  -2 6189.40   40.65
  -2   0  -2 6338.01   41.09
   2   0   3   19.18    1.20
  -2   0  -3   28.59    1.33
  -2   0  -3   27.43    1.90
   2   0   3   17.21    1.15
  -2   0  -3   20.89    1.05
   2   0   3   20.68    1.18
   2   0   4  210.58    5.37
  -2   0  -4  202.81    5.20
   2   0   4  188.74    5.25
  -2   0  -4  209.90    5.56
   2   0   4  207.49    5.41
   2   0   5  594.01    4.84
  -2   0  -5  607.82    4.81
   2   0   5  608.44    6.10
  -2   0  -5  613.09    5.72
   2   0   5  577.72    5.29
   2   0   6  335.21   13.41
   2   0   6  333.51   13.39
  -2   0  -6  335.45   13.75
   2   0   6  322.00   13.18
   2   0   7 1749.39   24.47
   2   0   7 1797.88   25.20
  -2   0  -7 1882.04   27.64
  -2   0  -7 1864.86   27.00
   2   0   7 1715.86   24.81
   2   0   8  663.13   12.63
   2   0   8  687.99   13.12
  -2   0  -8  682.12   14.24
  -2   0  -8  699.11   15.02
   2   0   9   51.39    3.77
   2   0   9   49.35    3.63
  -2   0  -9   53.10    5.23
  -2   0  -9   60.31    8.85
   2   0  10   66.72    5.46
   2   0  10   75.43    4.02
  -2   0 -10   74.39    5.82
  -2   0 -10   74.43    9.13
  -2   0 -11  195.21   11.04
   2   0  12   84.03    6.28
  -2   0 -12   45.38    9.52
   2   0  13  112.49   10.64
  -2   0 -13   93.21   15.32
   2   0  14   -2.48    2.85
  -2   0 -14   11.18    3.73
  -2  -1  12  169.82    9.34
   2   1 -11  187.09    8.65
  -2  -1  11  197.47    8.11
   2   1 -11  221.45    9.33
   2   1 -10   20.29    3.37
  -2  -1  10   11.40    2.69
   2   1 -10   14.69    2.80
   2   1  -9   22.82    3.34
  -2  -1   9   10.93    2.73
   2   1  -9   19.26    2.90
   2   1  -8  455.53   12.18
  -2  -1   8  450.51   11.81
   2   1  -8  465.22   12.24
   2   1  -7    3.76    1.66
  -2  -1   7    7.09    1.47
   2   1  -7    1.78    1.89
   2   1  -6  621.60   10.42
  -2  -1   6  613.09   10.03
   2   1  -6  650.62   10.70
   2   1  -5  466.62    8.45
  -2  -1   5  412.58   16.86
  -2  -1   5  437.62   22.77
   2   1  -5  476.22    8.31
   2   1  -4   70.95    6.55
  -2  -1   4   63.66    2.08
  -2  -1   4   70.78    2.57
   2   1  -4   67.13    1.94
   2   1  -3 1213.01   10.18
  -2  -1   3 1170.81    9.07
   2   1  -3 1193.85    9.12
  -2  -1   3 1119.78    9.10
  -2  -1   3 1211.48   10.23
  -2  -1   2  643.67    5.90
  -2  -1   2  677.99    5.69
   2   1  -2  648.17    5.34
  -2  -1   2  628.46    5.76
  -2  -1   2  674.05    6.47
  -2  -1   1 2257.82   15.78
   2   1  -1 2183.51   14.75
  -2  -1   1 2304.57   16.42
   2   1   0  719.41    6.03
  -2  -1   0  687.93    5.71
   2   1   0  698.18    5.41
   2   1   0  661.90    5.71
   2   1   1  537.74    4.71
  -2  -1  -1  512.12   12.52
   2   1   1  512.29   12.72
   2   1   2 7786.75   50.34
   2   1   2 7753.63   50.25
   2   1   3 5550.07   35.62
  -2  -1  -3 5592.36   35.92
  -2  -1  -3 5542.95   36.56
   2   1   4  162.61    4.00
  -2  -1  -4  160.40    3.98
  -2  -1  -4  160.62    5.74
  -2  -1  -4  163.78    4.69
   2   1   4  161.11    4.43
   2   1   5 1418.51   11.32
  -2  -1  -5 1501.04   12.02
   2   1   5 1368.98   10.86
  -2  -1  -6   14.95    1.70
  -2  -1  -6   12.04    1.48
   2   1   6    9.69    1.26
  -2  -1  -7 2926.10   41.86
  -2  -1  -8  534.50   11.77
  -2  -1  -8  561.57   11.92
  -2  -1  -9    1.82    2.02
  -2  -1  -9    4.45    2.23
   2   1  10  481.09   14.85
  -2  -1 -10  499.81   15.52
   2   1  11  303.84   10.20
  -2  -1 -11  322.68    9.57
   2   1  12   45.70    5.64
  -2  -1 -12   51.94    6.65
   2   1  13   13.51    4.46
  -2  -1 -13    5.68    2.34
   2   1  14   18.83    5.64
  -2  -1 -14   18.50    5.51
  -2  -2  12  184.57    9.85
  -2  -2  12  171.43    8.89
   2   2 -11    2.61    1.50
  -2  -2  11    3.46    2.24
  -2  -2  11    1.12    2.65
   2   2 -10  721.69   24.18
  -2  -2  10  718.69   24.42
  -2  -2  10  704.04   24.33
   2   2  -9  260.97   12.11
  -2  -2   9  231.95   10.45
  -2  -2   9  230.28   10.89
   2   2  -8  282.96    9.28
  -2  -2   8  268.80    7.12
  -2  -2   8  263.93    8.09
   2   2  -7   14.06    2.18
  -2  -2   7    5.55    2.77
  -2  -2   7    8.47    2.16
   2   2  -6  118.55    6.76
  -2  -2   6  107.67    5.87
  -2  -2   6  108.28    6.51
  -2  -2   6  107.31    6.73
   2   2  -5   11.31    1.70
  -2  -2   5    8.83    1.08
  -2  -2   5    8.81    1.65
  -2  -2   5   11.07    1.46
  -2  -2   5    9.08    1.83
   2   2  -4    3.44    1.29
  -2  -2   4    2.85    1.33
  -2  -2   4    2.25    0.71
  -2  -2   4    3.67    1.04
  -2  -2   4    2.86    0.96
  -2  -2   4    5.97    3.10
  -2  -2   3  834.76    6.16
  -2  -2   3  871.86    6.70
  -2  -2   3  912.41    8.33
  -2  -2   2 5668.38   37.66
   2   2  -2 6010.39   38.54
  -2  -2   2 6070.30   40.50
   2   2  -1 1724.77   13.42
   2   2  -1 1748.85   11.47
  -2  -2   1 1805.22   13.47
   2   2   0 6701.38   43.79
   2   2   0 6244.05   39.93
  -2  -2   0 6615.50   43.56
   2   2   0 6321.04   41.52
   2   2   2 9027.05   59.75
   2   2   2 8956.82   58.21
   2   2   3    3.49    0.43
  -2  -2  -3    5.91    0.79
  -2  -2  -3    7.78    1.21
   2   2   3    5.26    1.31
  -2  -2  -4  715.73    5.01
  -2  -2  -4  706.92    4.99
  -2  -2  -4  728.92    6.69
   2   2   4  666.37    5.96
  -2  -2  -4  699.01    6.80
  -2  -2  -5 1645.44   13.16
  -2  -2  -5 1591.97   13.12
  -2  -2  -6 1891.36   27.44
  -2  -2  -6 2005.59   29.28
  -2  -2  -7    8.29    1.84
  -2  -2  -7   12.65    1.94
   2   2   8  125.84    7.50
  -2  -2  -8  132.67    7.72
   2   2   9   87.52    8.12
  -2  -2  -9   75.84   11.67
   2   2  10  360.85   12.38
  -2  -2 -10  342.44   10.70
   2   2  11   34.42    6.39
  -2  -2 -11   48.58    8.00
   2   2  12   53.83    5.62
  -2  -2 -12   47.63    7.27
   2   2  13    8.68    3.36
  -2  -2 -13   11.11    3.34
   2   2  14   66.34    8.55
  -2  -2 -14   64.70   10.96
  -2  -3  12    7.19    3.40
  -2  -3  12   14.26    3.66
  -2  -3  11   24.74    4.68
  -2  -3  11   21.30    4.60
  -2  -3  11   34.46    4.62
   2   3 -10   28.87    3.92
  -2  -3  10   30.64    4.53
  -2  -3  10   28.97    5.11
   2   3  -9   37.94    3.70
  -2  -3   9   33.06    3.68
  -2  -3   9   37.97    4.57
   2   3  -8   29.90    2.95
  -2  -3   8   25.44    2.67
  -2  -3   8   29.19    3.85
   2   3  -7  557.41   11.64
  -2  -3   7  472.27    9.50
  -2  -3   7  524.69   10.97
  -2  -3   7  574.55   12.50
   2   3  -6  474.66   10.95
  -2  -3   6  460.63    9.27
  -2  -3   6  489.30   10.12
  -2  -3   6  512.81   11.34
   2   3  -5  964.78   15.13
  -2  -3   5  866.48   12.65
  -2  -3   5  884.83   13.10
  -2  -3   5  912.24   14.48
   2   3  -4    9.91    2.12
  -2  -3   4    9.26    1.26
  -2  -3   4    5.30    0.78
  -2  -3   4    6.15    0.78
  -2  -3   4    7.48    1.62
   2   3  -3  820.44    9.86
  -2  -3   3  778.73    5.84
  -2  -3   3  743.51    5.58
  -2  -3   3  804.87    7.95
   2   3  -3  734.33    6.84
   2   3  -2  195.80    5.59
  -2  -3   2  175.68    4.89
   2   3  -2  170.00    4.77
   2   3  -1  326.32    8.49
  -2  -3   1  316.02    8.57
   2   3  -1  296.56    7.75
   2   3   0   38.67    2.02
  -2  -3   0   33.33    3.27
   2   3   0   42.53    1.90
   2   3   0   40.75    1.37
  -2  -3   0   32.20    2.11
  -2  -3  -1 8213.96   53.21
  -2  -3  -1 8305.75   54.37
  -2  -3  -2  233.84    6.29
  -2  -3  -2  244.07    6.34
   2   3   2  231.06    5.91
   2   3   2  240.88    6.37
  -2  -3  -2  241.82    6.60
  -2  -3  -3 1118.55    8.22
  -2  -3  -3 1101.63    8.29
   2   3   3 1056.24    8.26
   2   3   3 1063.69    8.72
  -2  -3  -3 1109.39    9.50
   2   3   3 1040.27    8.82
  -2  -3  -4  363.52    3.72
  -2  -3  -4  361.88    3.46
   2   3   4  344.84    3.99
  -2  -3  -4  371.76    5.07
   2   3   4  328.98    4.29
  -2  -3  -5 1759.76   12.24
  -2  -3  -5 1705.04   12.02
  -2  -3  -6  499.29    7.17
  -2  -3  -6  505.83    7.28
  -2  -3  -6  517.17    9.38
   2   3   7  152.87    9.01
  -2  -3  -7  140.85    8.42
   2   3   8  467.05   10.70
  -2  -3  -8  499.58   11.35
   2   3   9 1063.11   24.01
  -2  -3  -9 1073.56   23.95
   2   3  10   59.68    9.01
  -2  -3 -10   59.58   11.17
   2   3  11   78.24    5.42
  -2  -3 -11   82.47    7.42
   2   3  12   33.92    4.58
  -2  -3 -12   25.36    6.98
   2   3  13   99.56    8.13
  -2  -3 -13   82.38   10.61
   2   3  14   19.19    3.81
  -2  -3 -14   15.96    2.79
  -2  -4  12  162.96    9.50
  -2  -4  12  172.80   10.62
  -2  -4  11  297.67   10.04
  -2  -4  11  281.47    9.40
  -2  -4  11  279.71   10.33
  -2  -4  10    2.31    2.26
  -2  -4  10    7.54    2.66
  -2  -4  10    3.82    2.28
  -2  -4   9    9.84    4.44
  -2  -4   9    0.50    1.54
  -2  -4   9    5.49    3.45
  -2  -4   8   56.91    5.42
  -2  -4   8   52.93    5.84
   2   4  -7    4.23    2.46
  -2  -4   7    1.34    0.67
  -2  -4   7    3.78    1.97
  -2  -4   7    6.99    2.64
   2   4  -6    9.48    1.95
  -2  -4   6    9.94    1.27
  -2  -4   6    9.10    1.62
  -2  -4   6    6.95    3.16
   2   4  -5   20.55    2.05
  -2  -4   5   21.25    1.40
  -2  -4   5   27.22    2.08
  -2  -4   5   16.11    2.69
  -2  -4   5   23.08    2.93
   2   4  -4 5773.30  294.90
  -2  -4   4 5430.22  277.11
  -2  -4   4 5595.42  285.52
  -2  -4   4 4931.38  251.84
  -2  -4   4 5800.14  296.27
  -2  -4   3 1602.86   22.33
  -2  -4   3 1600.84   22.28
  -2  -4   3 1671.34   24.49
   2   4  -3 1540.38   22.42
  -2  -4   2  955.44    8.71
   2   4  -2  943.70    8.37
   2   4  -1   93.74    1.08
   2   4  -1   94.85    1.12
  -2  -4   1  107.81    3.19
   2   4  -1   93.78    2.58
  -2  -4   0 1145.99    9.60
   2   4   0 1125.26    7.80
   2   4   0 1150.33    8.18
  -2  -4  -1   52.28    4.00
  -2  -4  -1   49.94    2.30
   2   4   1   55.01    1.98
   2   4   1   51.50    2.14
  -2  -4  -1   57.48    2.90
   2   4   1   51.57    2.21
  -2  -4  -2 2933.43   20.65
  -2  -4  -2 3056.71   21.80
   2   4   2 3082.36   21.48
   2   4   2 3048.27   21.60
  -2  -4  -2 3066.40   22.52
  -2  -4  -3 3825.02   26.27
  -2  -4  -3 4015.32   27.92
   2   4   3 3884.48   27.12
   2   4   3 3988.57   28.18
  -2  -4  -3 3951.51   28.51
  -2  -4  -4  841.49    6.85
  -2  -4  -4  863.89    7.45
   2   4   4  800.60    7.33
   2   4   4  822.16    8.47
  -2  -4  -4  856.03    9.03
  -2  -4  -5   41.56    2.09
  -2  -4  -5   40.58    2.28
   2   4   5   37.17    2.63
  -2  -4  -5   44.14    3.43
  -2  -4  -6   85.24    4.60
  -2  -4  -6   86.02    4.75
   2   4   6   86.06    5.60
  -2  -4  -6   91.26    5.92
  -2  -4  -7   26.76    1.57
  -2  -4  -7   30.26    1.89
  -2  -4  -8  650.11   14.74
  -2  -4  -8  641.64   14.59
   2   4   8  638.58   16.62
  -2  -4  -8  651.83   16.63
   2   4   9  591.51   17.37
  -2  -4  -9  628.40   18.09
   2   4  10   26.81    5.34
  -2  -4 -10   28.39    5.37
   2   4  11  401.97   14.01
  -2  -4 -11  411.19   16.08
   2   4  12   36.47    5.20
  -2  -4 -12   60.36   10.23
   2   4  13    1.99    4.59
  -2  -4 -13    3.02    1.81
  -2  -5  12    7.76    3.79
  -2  -5  12   11.80    3.40
  -2  -5  11    4.60    3.59
  -2  -5  11    4.25    3.07
  -2  -5  10   97.07    7.92
  -2  -5  10   87.41    6.50
  -2  -5  10  103.07    8.05
  -2  -5   9  412.05   15.22
  -2  -5   9  359.21   12.51
  -2  -5   9  392.56   14.09
  -2  -5   8  460.51   16.44
  -2  -5   8  473.54   15.89
  -2  -5   8  467.58   16.30
  -2  -5   7   94.01    7.24
  -2  -5   7   96.98    6.29
  -2  -5   7  103.30    6.83
  -2  -5   7  101.55    7.22
  -2  -5   6   52.97    5.54
  -2  -5   6   55.89    4.26
  -2  -5   6   57.63    4.58
  -2  -5   6   62.98    5.31
  -2  -5   5   19.31    2.57
  -2  -5   5   20.77    1.49
  -2  -5   5   17.55    1.44
  -2  -5   5   17.49    2.49
  -2  -5   4   22.83    3.26
   2   5  -4   24.04    1.46
  -2  -5   4   24.48    1.53
  -2  -5   4   21.55    2.12
   2   5  -4   20.80    1.89
  -2  -5   3   10.69    2.04
   2   5  -3   12.45    1.14
  -2  -5   3    9.11    0.64
  -2  -5   3    9.87    1.64
   2   5  -3    9.74    1.30
  -2  -5   2  490.48    8.77
   2   5  -2  485.71    6.98
  -2  -5   2  463.81    6.69
  -2  -5   2  505.31    8.57
   2   5  -2  449.37   23.32
  -2  -5   1 1365.37   20.49
   2   5  -1 1391.06   19.69
  -2  -5   1 1341.43   18.91
  -2  -5   1 1380.28   20.43
   2   5  -1 1309.42   19.40
  -2  -5   0 1107.67   10.14
   2   5   0 1088.23    8.55
  -2  -5   0 1064.35    8.14
  -2  -5   0 1129.37    9.99
  -2  -5  -1 1969.32   15.08
   2   5   1 2036.46   15.03
  -2  -5  -1 1882.68   13.73
  -2  -5  -1 2018.71   15.90
  -2  -5  -2  793.21   12.02
  -2  -5  -2  794.31   12.50
   2   5   2  729.80   10.99
   2   5   2  806.26   12.36
  -2  -5  -3  179.73    7.61
  -2  -5  -3  170.95    7.62
   2   5   3  161.50    6.96
   2   5   3  175.76    7.84
  -2  -5  -3  176.94    8.13
  -2  -5  -4  114.24    5.33
   2   5   4   95.01    5.19
  -2  -5  -4  111.75    5.65
  -2  -5  -5  623.22    9.75
   2   5   5  555.86    8.42
   2   5   5  567.30    9.52
  -2  -5  -5  638.84   11.10
  -2  -5  -6  496.73   10.29
   2   5   6  466.66    9.41
   2   5   6  489.03   11.55
  -2  -5  -6  517.65   11.69
  -2  -5  -7  235.73    6.10
   2   5   7  243.17    8.50
  -2  -5  -7  236.69    7.74
  -2  -5  -8  268.58    5.99
  -2  -5  -8  302.10    6.90
   2   5   8  294.60    9.03
  -2  -5  -8  310.15    8.70
  -2  -5  -9  234.64    9.67
  -2  -5  -9  277.12   10.97
   2   5  10   64.56    4.76
  -2  -5 -10   74.14    8.49
   2   5  11  314.22    9.82
  -2  -5 -11  310.99    8.93
   2   5  12   -0.44    3.36
  -2  -5 -12    7.06    2.63
   2   5  13   38.39    5.79
  -2  -5 -13   37.63    6.80
  -2  -6  11   27.08    4.37
  -2  -6  10   60.11    6.52
  -2  -6  10   68.90    7.01
  -2  -6   9   39.93    3.88
  -2  -6   9   46.19    4.54
  -2  -6   8    4.66    3.11
  -2  -6   8    3.20    1.56
  -2  -6   8    8.12    2.70
  -2  -6   7   91.00    5.58
  -2  -6   7  101.20    5.63
  -2  -6   6 2103.51   45.24
  -2  -6   6 1897.18   39.48
  -2  -6   6 2065.15   42.91
  -2  -6   6 2151.38  174.78
  -2  -6   5  856.53   20.95
   2   6  -5  818.13   18.61
  -2  -6   5  842.37   19.26
  -2  -6   5  877.92   20.88
  -2  -6   4  363.80    8.97
   2   6  -4  321.62   22.83
  -2  -6   4  331.03   23.51
  -2  -6   4  322.54   23.35
   2   6  -4  290.31   14.57
  -2  -6   3    8.55    3.30
   2   6  -3    6.67    0.85
  -2  -6   3    4.68    0.63
  -2  -6   3    9.74    2.01
   2   6  -3    2.85    0.66
  -2  -6   2   52.62    4.41
   2   6  -2   61.70    3.47
  -2  -6   2   53.10    2.97
  -2  -6   2   54.01    3.80
   2   6  -2   48.52    3.23
  -2  -6   1    1.49    2.47
   2   6  -1    2.16    1.16
  -2  -6   1    2.06    1.71
   2   6  -1    7.13    1.79
  -2  -6   0  893.65   14.28
   2   6   0  855.06   12.39
  -2  -6   0  834.45   11.89
  -2  -6   0  847.32   12.87
  -2  -6  -1  669.37   11.16
   2   6   1  666.88   10.18
  -2  -6  -1  635.93    9.50
  -2  -6  -1  655.28   10.61
  -2  -6  -2  698.33   11.67
   2   6   2  695.86   10.82
  -2  -6  -2  620.28    9.38
  -2  -6  -2  685.99   11.06
  -2  -6  -3  243.52   13.25
   2   6   3  253.63   13.83
  -2  -6  -3  244.22   13.23
  -2  -6  -4  228.29   12.07
   2   6   4  229.07   12.27
  -2  -6  -4  248.72   13.48
  -2  -6  -5   38.06    3.80
   2   6   5   39.02    4.20
  -2  -6  -5   31.52    3.47
  -2  -6  -6  593.25   14.43
   2   6   6  513.38   12.26
   2   6   6  581.68   14.88
  -2  -6  -6  640.78   16.38
  -2  -6  -7  274.58    6.96
   2   6   7  237.06    5.83
   2   6   7  278.70    8.49
  -2  -6  -7  306.35    8.91
  -2  -6  -8   54.79    4.20
   2   6   8   45.99    5.07
  -2  -6  -8   45.10    5.26
  -2  -6  -9  353.49   11.90
   2   6   9  349.71   13.77
  -2  -6  -9  402.77   14.97
   2   6  10  176.63    7.36
  -2  -6 -11   99.68   14.14
   2   6  12    6.69    2.98
  -2  -6 -12   20.75    5.11
  -2  -7  11  368.98   19.57
  -2  -7  10   69.35   17.44
  -2  -7   9   44.27    5.21
  -2  -7   9   39.44    4.78
  -2  -7   8   72.07    5.23
  -2  -7   8   73.78    4.52
  -2  -7   7   60.41    5.01
  -2  -7   7   51.70    2.18
  -2  -7   7   60.28    3.21
  -2  -7   6  344.77   13.14
   2   7  -6  322.00   10.57
  -2  -7   6  372.79   13.09
  -2  -7   5    6.22    3.35
   2   7  -5    4.38    0.79
  -2  -7   5    6.30    0.88
  -2  -7   5   10.17    2.44
  -2  -7   4  755.89   18.99
   2   7  -4  705.15   16.12
  -2  -7   4  700.72   16.06
  -2  -7   4  752.23   17.99
  -2  -7   3 2037.29   47.32
   2   7  -3 1896.71   42.83
  -2  -7   3 1909.71   43.11
  -2  -7   3 1950.49   44.62
  -2  -7   2  632.94   14.11
   2   7  -2  591.98   11.51
  -2  -7   2  569.23   10.99
  -2  -7   2  584.40   12.14
   2   7  -1   74.59    6.21
  -2  -7   1   76.52    6.11
  -2  -7   1   82.18    6.61
  -2  -7   0  293.28    8.42
   2   7   0  268.56   13.86
  -2  -7   0  251.47   12.93
  -2  -7   0  280.84    6.90
  -2  -7  -1   86.22    6.22
   2   7   1   96.72    5.77
  -2  -7  -1   83.71    4.65
  -2  -7  -1   86.08    5.09
  -2  -7  -2  305.67   15.72
   2   7   2  320.53   23.17
  -2  -7  -2  312.34   15.92
  -2  -7  -3  166.46    9.55
   2   7   3  140.07    7.92
  -2  -7  -3  165.91    9.43
  -2  -7  -4  438.82   11.39
   2   7   4  453.40   11.97
  -2  -7  -4  457.22   12.51
  -2  -7  -5  847.04   18.95
   2   7   5  849.00   19.41
  -2  -7  -5  857.56   19.82
  -2  -7  -6   80.90    5.21
   2   7   6   78.36    5.53
  -2  -7  -6   89.32    6.21
  -2  -7  -7  167.00    7.75
   2   7   7  158.20    9.30
  -2  -7  -7  160.08    8.34
  -2  -7  -8    8.73    2.33
   2   7   8    1.42    3.28
  -2  -7  -8    5.67    2.79
   2   7   9   50.74    5.59
  -2  -7  -9   46.93    5.66
   2   7  10   28.03    4.74
  -2  -7 -10   44.93    6.67
   2   7  11  193.95   10.87
  -2  -7 -11  205.06   18.73
  -2  -8  10   18.10    4.26
  -2  -8   9  176.49    9.84
  -2  -8   8  417.27   13.98
  -2  -8   7  122.26    8.42
  -2  -8   7  110.01    6.41
  -2  -8   6   13.82    4.86
  -2  -8   6    7.08    2.02
  -2  -8   5  271.84    9.87
   2   8  -5  236.47    6.22
  -2  -8   5  256.72    7.51
  -2  -8   4  402.43   15.22
   2   8  -4  375.41   12.35
  -2  -8   4  389.27   13.34
  -2  -8   3   26.50    3.80
   2   8  -3   28.43    2.69
  -2  -8   3   24.87    2.37
  -2  -8   3   30.29    3.45
  -2  -8   2  257.50    8.36
   2   8  -2  247.69    5.99
  -2  -8   2  236.64    5.71
  -2  -8   2  257.11    7.08
  -2  -8   1  742.59   17.87
   2   8  -1  775.42   16.99
  -2  -8   1  684.57   14.87
  -2  -8   1  724.27   16.35
  -2  -8   0  410.50   11.49
   2   8   0  416.22   10.52
  -2  -8   0  361.22    8.94
  -2  -8   0  420.41   10.92
  -2  -8  -1  420.46   11.34
   2   8   1  439.78   10.67
  -2  -8  -1  433.74   10.69
  -2  -8  -2    7.69    2.56
   2   8   2    3.58    2.09
  -2  -8  -2    3.16    2.32
  -2  -8  -3   14.16    3.62
   2   8   3    6.53    3.47
  -2  -8  -3    7.25    2.67
  -2  -8  -4   64.08    6.15
   2   8   4   65.89    6.81
  -2  -8  -4   75.88    5.77
  -2  -8  -5  177.93    9.21
   2   8   5  175.04    9.02
  -2  -8  -5  180.86    9.05
  -2  -8  -6  104.65    6.21
   2   8   6  111.97    7.07
  -2  -8  -6  110.92    7.13
  -2  -8  -7  183.74    7.06
   2   8   7  173.59    7.96
  -2  -8  -7  187.95    8.25
   2   8   8   72.06    6.19
  -2  -8  -8   75.54    5.73
   2   8   9   -1.50    3.40
  -2  -8  -9    4.01    2.73
   2   8  10    4.87    3.64
  -2  -8 -10    0.13    1.87
  -2  -9   9   40.92    5.84
  -2  -9   8  126.42    8.82
  -2  -9   7    1.15    3.15
  -2  -9   6  673.17   23.10
  -2  -9   5  331.96   12.69
  -2  -9   5  299.33    9.76
  -2  -9   4  470.09   17.76
  -2  -9   4  470.37   16.00
  -2  -9   3   29.30    5.71
   2   9  -3   40.13    2.38
  -2  -9   3   36.12    2.83
  -2  -9   2    8.12    3.23
   2   9  -2    3.73    1.52
  -2  -9   2    4.93    1.36
  -2  -9   1    4.08    2.86
   2   9  -1    1.56    1.40
  -2  -9   0   71.31    5.09
   2   9   0   66.04    9.10
  -2  -9   0   68.33    9.65
  -2  -9  -1   11.18    4.49
   2   9   1   12.66    2.42
  -2  -9  -1   11.36    2.41
  -2  -9  -2  515.12   18.13
   2   9   2  527.89   18.26
  -2  -9  -2  539.56   18.75
  -2  -9  -3  837.95   22.32
   2   9   3  829.14   21.94
  -2  -9  -3  780.69   20.79
  -2  -9  -4  107.57    4.96
   2   9   4  114.77    6.00
  -2  -9  -4  109.31    5.77
  -2  -9  -5   22.55    3.66
   2   9   5   20.23    4.50
  -2  -9  -5   28.76    4.35
  -2  -9  -6   64.35    5.09
   2   9   6   90.35    6.69
  -2  -9  -6   57.11    4.92
  -2  -9  -7   65.86    5.43
   2   9   7   67.52    7.38
  -2  -9  -7   69.57    6.54
  -2  -9  -8    3.58    2.60
   2   9   8    8.34    4.93
  -2  -9  -8    3.04    2.75
   2   9   9  170.15   11.41
  -2  -9  -9  155.41   20.53
  -2 -10   6   22.32    4.88
  -2 -10   5   12.05    2.59
  -2 -10   4   69.89    6.38
  -2 -10   4   69.98    5.19
  -2 -10   3  317.05    9.67
  -2 -10   3  305.54    7.42
   2  10  -2  513.28   10.62
  -2 -10   2  526.56   11.57
  -2 -10   1   56.50    5.00
   2  10  -1   55.83    3.66
  -2 -10   1   49.81    3.55
  -2 -10   0   24.30    4.61
   2  10   0   29.66    4.33
  -2 -10   0   26.01    3.82
  -2 -10  -1    8.74    4.03
   2  10   1   12.52    2.97
  -2 -10  -1    7.71    2.05
  -2 -10  -2   13.04    3.33
   2  10   2   13.30    2.79
  -2 -10  -2   12.03    2.48
  -2 -10  -3    7.95    2.63
   2  10   3    9.83    2.81
  -2 -10  -3    3.73    2.25
  -2 -10  -4   18.99    4.44
   2  10   4   15.93    3.76
  -2 -10  -4   13.69    3.42
  -2 -10  -5   39.14    5.29
   2  10   5   31.06    4.41
  -2 -10  -5   37.27    4.63
  -2 -10  -6  117.18    6.67
   2  10   6  108.15    7.23
  -2 -10  -6  110.52    6.88
  -2 -10  -7   13.55    2.50
   2  10   7   13.15    4.69
  -2 -10  -7   19.16    3.63
   2  10   8    7.22    5.05
  -2 -10  -8    2.92    2.90
  -2 -11   5    5.51    3.60
  -2 -11   4    8.26    5.37
  -2 -11   3    9.55    5.31
  -2 -11   2   54.82    7.10
  -2 -11   2   51.09    4.74
  -2 -11   1   13.48    3.68
  -2 -11   1    8.94    2.33
  -2 -11   0  448.34   15.59
   2  11   0  462.81   14.39
  -2 -11   0  435.52   13.46
  -2 -11  -1  478.99   20.88
   2  11   1  448.18   18.95
  -2 -11  -1  446.44   19.13
  -2 -11  -2   15.94    3.54
   2  11   2    8.57    3.03
  -2 -11  -2    9.38    3.19
  -2 -11  -3   26.44    4.47
   2  11   3   36.51    4.84
  -2 -11  -3   22.87    3.86
  -2 -11  -4   37.59    4.70
   2  11   4   22.22    3.95
  -2 -11  -4   24.78    3.76
  -2 -11  -5   -0.64    2.35
   2  11   5    9.29    3.56
  -2 -11  -5    9.70    4.03
  -2 -11  -6   57.30    4.55
   2  11   6   70.37    6.13
  -2 -11  -6   78.48    5.90
  -2 -12   1   15.09    4.62
  -2 -12   0    6.05    4.34
  -2 -12   0    7.96    2.92
  -2 -12  -1   60.24    5.40
  -2 -12  -1   62.61    4.56
   3  -9  -3   28.13    5.52
  -3   9   3   26.96    4.78
   3  -9  -3   21.12    5.00
   3  -9  -2   29.16    5.17
  -3   9   2   32.65    6.42
   3  -9  -2   21.40    6.00
   3  -9  -1   51.17    5.52
  -3   9   1   37.40    5.29
   3  -9  -1   32.42    7.03
   3  -9   0  316.73   15.12
  -3   9   0  303.49   14.71
   3  -9   1   71.85    7.86
  -3   9  -1   69.43    7.03
   3  -9   2  125.41    7.64
  -3   9  -2  121.88    7.65
   3  -9   3   78.67    8.05
  -3   9  -3   90.14    9.02
   3  -9   4    8.81    5.14
  -3   9  -4    3.31    3.09
   3  -9   5    4.55    3.61
  -3   9  -5   -2.73    2.90
   3  -9   6   14.87    5.14
  -3   9  -6   25.95    4.26
   3  -9   7   44.21    5.94
  -3   9  -7   53.00    5.10
   3  -8  -5  395.74   21.94
  -3   8   5  446.06  124.94
   3  -8  -5  394.45   21.43
   3  -8  -4   40.88    5.12
  -3   8   4   32.17    5.25
   3  -8  -4   29.39    4.36
   3  -8  -3    9.62    4.80
  -3   8   3    5.80    5.16
   3  -8  -3    8.61    2.81
   3  -8  -2   53.96    5.29
  -3   8   2   49.26    6.00
   3  -8  -2   39.00    6.02
   3  -8  -1   26.18    3.98
  -3   8   1   18.00    5.45
   3  -8  -1   22.55    5.64
   3  -8   0   75.38    6.43
  -3   8   0   73.05    6.11
   3  -8   0   71.86    6.38
   3  -8   1   23.88    6.17
  -3   8  -1   19.33    4.78
   3  -8   1   15.63    2.94
   3  -8   2  291.46    8.66
  -3   8  -2  281.18    9.12
   3  -8   3  768.99  127.77
  -3   8  -3  728.41   16.37
   3  -8   4  203.74    7.33
  -3   8  -4  223.91    7.71
   3  -8   5   37.06    5.78
  -3   8  -5   37.88    4.91
   3  -8   6   13.48    3.45
  -3   8  -6   16.49    2.83
  -3   8  -7   17.66    5.74
   3  -8   8   44.07    6.00
  -3   8  -8   51.06    5.26
   3  -8   9   12.61    3.17
  -3   8  -9    4.63    2.28
  -3   7   7   30.57    6.53
   3  -7  -6   13.22    3.53
  -3   7   6   21.19    4.56
   3  -7  -6   12.63    3.76
   3  -7  -5   77.84    7.84
   3  -7  -5   65.43   10.93
   3  -7  -4    0.15    3.00
  -3   7   4    7.17    5.66
   3  -7  -4   10.58    3.06
   3  -7  -3  126.89    7.49
  -3   7   3  113.91    7.08
   3  -7  -3  122.62   11.31
   3  -7  -2  421.51   15.97
  -3   7   2  454.25   17.34
   3  -7  -2  433.37   15.75
   3  -7  -1   94.04    6.26
  -3   7   1   99.02    5.84
   3  -7  -1   98.09    6.14
  -3   7   0  139.30    7.80
   3  -7   0  133.02   10.09
   3  -7   1  142.17    8.17
  -3   7  -1  154.53    8.90
   3  -7   1  132.66    7.27
   3  -7   2   55.08    5.55
  -3   7  -2   54.23    5.42
   3  -7   2   54.18    3.01
   3  -7   3   18.83    4.56
  -3   7  -3   18.90    3.81
  -3   7  -3   14.63    2.25
   3  -7   4   92.89    6.69
  -3   7  -4   92.51    6.78
   3  -7   5  336.94   13.10
  -3   7  -5  321.10   12.33
   3  -7   6 1058.57  136.08
  -3   7  -6 1024.62   31.15
   3  -7   7  159.72    6.29
  -3   7  -7  174.74    6.76
   3  -7   8   74.30    7.54
  -3   7  -8   88.12    8.63
   3  -7   9   16.45    3.65
  -3   7  -9   19.08    2.73
   3  -7  10  110.13    8.08
  -3   7 -10   92.55   16.28
   3  -6  -8    4.71    2.55
  -3   6   8   10.91    6.71
   3  -6  -8    4.72    2.62
   3  -6  -7  254.15   11.98
  -3   6   7  268.20   13.96
   3  -6  -7  230.16   10.90
   3  -6  -6   71.74    6.40
  -3   6   6   56.40    6.77
   3  -6  -6   61.38   10.09
   3  -6  -5   18.52    3.54
  -3   6   5   25.40    5.17
   3  -6  -5   24.86    4.50
   3  -6  -4    7.85    1.91
  -3   6   4    9.76    3.77
   3  -6  -4    9.41    1.83
   3  -6  -3   60.35    5.32
   3  -6  -3   54.87    5.95
   3  -6  -2  113.31    7.07
  -3   6   2  127.03    7.96
   3  -6  -2  126.75    8.57
   3  -6  -1  140.71    8.73
  -3   6   1  142.24    8.90
   3  -6  -1  137.89    8.11
   3  -6   0  119.86    7.99
  -3   6   0  108.97    7.37
   3  -6   0  126.36   10.99
   3  -6   1 1438.98   31.81
  -3   6  -1 1529.57   33.68
   3  -6   1 1488.24   31.77
   3  -6   2  659.95   16.14
  -3   6  -2  690.33   16.58
   3  -6   2  650.15   14.08
  -3   6  -2  577.96   12.67
   3  -6   3   23.06    3.93
  -3   6  -3   14.65    2.63
  -3   6  -3   17.97    1.79
  -3   6  -3   20.44    1.98
   3  -6   4   17.95    3.38
  -3   6  -4   20.94    3.70
   3  -6   5    6.39    3.15
  -3   6  -5    9.75    3.00
   3  -6   6  137.56    7.55
  -3   6  -6  165.86    8.74
   3  -6   7    6.51    3.17
  -3   6  -7    8.59    3.28
   3  -6   8  535.92   17.52
  -3   6  -8  532.29   17.22
   3  -6   9  726.62   24.42
  -3   6  -9  730.89   24.51
   3  -6  10  182.95    9.31
  -3   6 -10  153.31    8.29
   3  -6  11   28.80    4.11
  -3   6 -11   31.93    5.80
   3  -5  -9   49.45    6.08
  -3   5   9   55.27    8.50
   3  -5  -9   62.06    9.28
   3  -5  -8    6.70    2.71
  -3   5   8   15.50    4.97
   3  -5  -8    8.29    2.71
   3  -5  -7   54.38    4.70
  -3   5   7   57.35    7.39
   3  -5  -7   52.72    5.65
   3  -5  -6   12.82    3.59
  -3   5   6   13.51    4.05
   3  -5  -6   17.39    3.76
   3  -5  -5    1.32    2.39
  -3   5   5    8.34    2.77
   3  -5  -5   15.57    2.88
   3  -5  -4  419.59   13.02
  -3   5   4  400.70   13.05
   3  -5  -4  466.51   24.17
   3  -5  -3  856.96   19.85
  -3   5   3  873.45   20.72
   3  -5  -3  821.17   21.33
   3  -5  -2  111.64    9.23
  -3   5   2  110.40    9.07
   3  -5  -2  103.38    9.44
   3  -5  -1  338.47   10.32
   3  -5  -1  351.97   12.44
   3  -5   0  111.63    6.73
  -3   5   0  116.97    7.37
   3  -5   0  112.65    9.42
   3  -5   1  126.13    7.43
  -3   5  -1  137.07    8.11
   3  -5   1  144.55    7.61
  -3   5  -1  108.46    5.79
   3  -5   2  158.23    9.59
  -3   5  -2  163.57    9.90
  -3   5  -2  158.06    8.04
   3  -5   3 2149.63   41.20
  -3   5  -3 2106.46   40.47
  -3   5  -3 2023.69   37.36
  -3   5  -3 2092.54   38.61
   3  -5   4 2204.42   51.16
  -3   5  -4 2234.08   51.67
   3  -5   5  332.64   10.06
  -3   5  -5  350.16    9.92
   3  -5   6   19.87    4.63
  -3   5  -6    7.90    1.99
   3  -5   7  123.25    7.02
  -3   5  -7  112.86    6.51
   3  -5   8    3.67    3.65
  -3   5  -8    2.18    1.83
   3  -5   9   34.14    2.97
  -3   5  -9   49.56    6.70
   3  -5  10   95.68    6.13
  -3   5 -10  109.03   12.44
   3  -5  11  155.31    8.00
  -3   5 -11  140.71   14.13
  -3   5 -12   97.08   14.76
   3  -4 -10   14.93    4.20
   3  -4 -10   16.91    5.62
   3  -4  -9  124.08    6.53
  -3   4   9  121.98    7.64
   3  -4  -9  114.75   16.48
   3  -4  -8  126.44    7.81
  -3   4   8  124.97    9.58
   3  -4  -8  132.26   11.09
   3  -4  -7  115.55    5.81
  -3   4   7  130.67    8.59
   3  -4  -7  120.48   12.34
   3  -4  -6   18.43    2.88
  -3   4   6   15.78    3.03
   3  -4  -6   23.05    3.98
   3  -4  -5  136.76    8.51
  -3   4   5  141.27    9.32
   3  -4  -5  150.11   12.36
   3  -4  -4   16.01    2.89
  -3   4   4   21.71    5.52
   3  -4  -4   19.09    3.95
   3  -4  -3   80.92    7.25
  -3   4   3   84.33    6.84
   3  -4  -3   87.20    6.95
   3  -4  -2  634.94   14.05
  -3   4   2  683.16   15.00
   3  -4  -2  689.91   14.72
  -3   4   1  661.19   14.75
   3  -4  -1  671.26   15.44
   3  -4   0  631.77   11.23
   3  -4   0  619.53    9.66
  -3   4   0  546.29    8.48
   3  -4   1    8.41    2.00
  -3   4  -1    7.56    1.73
   3  -4   1    4.88    1.06
  -3   4  -1    6.82    1.02
   3  -4   2   15.52    2.61
  -3   4  -2   21.37    3.71
  -3   4  -2    8.91    0.92
  -3   4  -2    7.78    1.00
   3  -4   3   24.11    3.11
  -3   4  -3   11.49    2.19
  -3   4  -3   14.60    1.06
  -3   4  -3   14.14    1.19
   3  -4   4  351.54    9.01
  -3   4  -4  359.35    8.77
   3  -4   5  222.19   11.85
  -3   4  -5  236.24   12.64
   3  -4   6 2238.05   42.67
  -3   4  -6 2263.04   43.17
   3  -4   7  666.86   15.42
  -3   4  -7  695.78   16.20
   3  -4   8  889.99   24.57
  -3   4  -8  847.25   23.82
   3  -4   9   90.03    5.01
  -3   4  -9   94.62   10.67
   3  -4  10   46.80    3.66
  -3   4 -10   47.58    7.32
   3  -4  11   20.93    4.47
  -3   4 -11   15.51    4.00
  -3   4 -12   46.30    7.30
  -3   3  11   60.38    7.16
   3  -3 -10   31.76    3.91
  -3   3  10   29.84    4.60
   3  -3 -10   35.38    6.01
   3  -3  -9    9.60    3.39
  -3   3   9    3.53    3.54
   3  -3  -9    4.86    1.79
   3  -3  -8   24.30    4.17
  -3   3   8   24.11    5.48
   3  -3  -8   18.39    3.66
   3  -3  -7   17.57    3.62
  -3   3   7   13.72    2.93
   3  -3  -7   11.01    2.85
   3  -3  -6  204.32   11.74
  -3   3   6  202.09   12.20
   3  -3  -6  202.93   15.54
   3  -3  -5  887.48   21.59
  -3   3   5  895.55   22.34
   3  -3  -5  919.29   22.61
   3  -3  -4   19.59    2.62
  -3   3   4   21.62    4.78
   3  -3  -4   13.65    2.29
   3  -3  -3    7.13    2.18
  -3   3   3    2.44    3.16
   3  -3  -3    5.23    1.75
   3  -3  -2   76.30    5.21
  -3   3   2   75.92    5.65
   3  -3  -2   87.82    8.03
  -3   3   1  384.99   16.51
   3  -3  -1  366.76   15.38
   3  -3   0 1036.26   16.61
  -3   3   0  997.02   15.99
   3  -3   0 1117.06   16.70
  -3   3   0  968.47   14.91
   3  -3   1 6009.38  307.03
  -3   3  -1 5867.36  299.81
  -3   3  -1 5604.96  286.19
   3  -3   2 1895.88   28.18
  -3   3  -2 1784.29   25.29
  -3   3  -2 1864.22   26.51
   3  -3   3  577.08   10.09
  -3   3  -3  608.25   10.69
  -3   3  -3  550.44    8.13
  -3   3  -3  587.21    8.73
   3  -3   4   36.24    3.07
  -3   3  -4   44.20    3.61
  -3   3  -4   24.07    1.29
  -3   3  -4   42.00    2.23
   3  -3   5   20.28    2.36
  -3   3  -5   23.06    2.72
   3  -3   6   37.76    3.25
  -3   3  -6   27.37    2.87
   3  -3   7  434.32    9.73
  -3   3  -7  432.70   10.03
   3  -3   8  722.24   16.36
  -3   3  -8  701.25   16.20
   3  -3   9  583.34   16.26
  -3   3  -9  599.48   19.33
   3  -3   9  567.35   14.99
   3  -3  10  953.16   24.26
  -3   3 -10  956.43   26.30
   3  -3  11  183.29    6.72
  -3   3 -11  170.89    7.15
  -3   3 -12   21.46    4.63
  -3   3 -13   33.21    5.68
   3  -2 -11   64.53   11.63
  -3   2  11   91.88    7.90
   3  -2 -11  106.76    8.73
   3  -2 -10  144.60    5.87
  -3   2  10  139.80   18.72
   3  -2 -10  149.20    7.97
   3  -2  -9   51.70    4.12
  -3   2   9   43.89    4.48
   3  -2  -8   46.48    3.52
  -3   2   8   43.43    4.31
   3  -2  -8   55.75    7.93
   3  -2  -7  353.06   11.18
  -3   2   7  317.50   17.79
   3  -2  -7  258.49   14.56
   3  -2  -6   12.38    2.54
  -3   2   6   14.58    3.84
   3  -2  -6   16.88    3.45
   3  -2  -5   49.06    4.65
  -3   2   5   44.04    4.89
   3  -2  -5   55.31    7.68
   3  -2  -4  439.08    9.89
  -3   2   4  450.01   10.86
   3  -2  -4  468.86   10.67
   3  -2  -3  518.06    8.96
  -3   2   3  532.82    9.60
   3  -2  -3  531.58   10.00
   3  -2  -2  497.17    9.11
  -3   2   2  528.28    9.65
   3  -2  -2  534.07    9.39
   3  -2  -1   10.83    1.81
  -3   2   1   11.06    4.14
   3  -2  -1    8.70    1.72
  -3   2   1    7.90    1.18
   3  -2   0   12.73    2.08
  -3   2   0   16.90    2.45
   3  -2   0   18.58    1.71
  -3   2   0   11.77    2.51
   3  -2   1   20.30    1.80
  -3   2  -1   15.13    1.95
   3  -2   1   15.31    1.74
  -3   2  -1   20.54    3.03
  -3   2  -1   21.40    1.82
   3  -2   2   39.11    2.16
  -3   2  -2   30.21    1.63
  -3   2  -2   32.74    2.37
  -3   2  -2   34.58    1.73
   3  -2   4 2282.11   32.95
  -3   2  -4 2123.61   30.60
  -3   2  -4 2269.98   31.64
  -3   2  -4 2206.52   30.85
   3  -2   5  722.95   11.49
  -3   2  -5  656.99   10.40
  -3   2  -5  728.68   12.02
  -3   2  -5  736.49   10.55
   3  -2   5  723.39   10.39
   3  -2   6  778.48   11.93
  -3   2  -6  683.22   10.31
  -3   2  -6  750.30   11.99
  -3   2  -6  741.00   10.20
   3  -2   6  751.85   10.40
   3  -2   7  136.32    7.47
  -3   2  -7  125.12    6.81
  -3   2  -7  134.34    9.58
  -3   2  -7  129.46    6.93
   3  -2   7  132.68    6.88
   3  -2   8  683.18   13.74
  -3   2  -8  578.95   11.48
  -3   2  -8  666.31   14.72
  -3   2  -8  650.68   12.56
   3  -2   8  650.28   12.49
   3  -2   9   42.65    2.99
   3  -2   9   55.14    3.94
  -3   2  -9   66.46    9.23
  -3   2  -9   47.48    3.95
   3  -2   9   43.02    2.97
   3  -2  10  109.12    5.08
  -3   2 -10  118.93   12.94
  -3   2 -10  109.60    6.83
   3  -2  11  268.78    9.33
  -3   2 -11  287.71   10.72
  -3   2 -11  254.64    9.48
  -3   2 -12  785.24  145.28
  -3   2 -13  165.73    8.52
  -3   2 -14   19.05    3.78
   3  -1 -11    2.84    1.54
  -3   1  11    7.48    5.04
   3  -1 -11    7.44    3.19
   3  -1 -10   63.57   10.83
  -3   1  10   71.73    6.25
   3  -1 -10   74.53    7.23
   3  -1  -9   40.88    5.50
  -3   1   9   45.57    4.88
   3  -1  -9   45.22    3.83
   3  -1  -8  180.57    9.10
  -3   1   8  150.07    8.51
   3  -1  -8  147.44    7.44
   3  -1  -7  674.12   15.59
  -3   1   7  631.96   15.48
   3  -1  -7  677.23   16.26
   3  -1  -6    4.63    2.63
  -3   1   6    4.30    2.93
   3  -1  -6   10.59    3.09
   3  -1  -5    6.90    1.39
  -3   1   5   11.33    3.77
   3  -1  -5   10.56    2.08
   3  -1  -4  127.02    7.36
  -3   1   4  117.28    7.14
   3  -1  -4  169.81    9.72
   3  -1  -3   74.89    4.40
  -3   1   3   65.73    5.04
   3  -1  -3   81.28    4.93
   3  -1  -2  623.11    7.00
   3  -1  -1 4690.76   32.72
  -3   1   1 5979.04  237.03
   3  -1   0 1637.40   13.15
  -3   1   0 1699.70   13.55
  -3   1   0 1618.71   12.05
  -3   1   0 1683.68   12.94
   3  -1   1  664.47    6.74
  -3   1  -1  642.08    6.62
  -3   1  -1  673.65    7.06
  -3   1  -1  650.95    5.75
  -3   1  -1  652.87    6.18
   3  -1   2  154.11    4.90
  -3   1  -2  163.79    4.74
  -3   1  -2  179.94    5.80
  -3   1  -2  171.31    4.78
   3  -1   2  159.96    4.48
   3  -1   3  296.00    4.46
  -3   1  -3  275.77    3.77
  -3   1  -3  292.43    4.79
   3  -1   3  270.99    4.43
  -3   1  -3  298.39    3.48
   3  -1   3  282.74    3.21
  -3   1  -4  742.15    6.91
  -3   1  -4  750.56    6.24
   3  -1   4  765.28    6.34
   3  -1   5  486.79    8.00
  -3   1  -5  457.71   23.69
  -3   1  -5  474.29    8.52
  -3   1  -5  480.97    7.43
   3  -1   5  485.76    7.50
   3  -1   6  899.11   13.58
  -3   1  -6  843.32   12.68
  -3   1  -6  917.23   13.49
   3  -1   6  861.66   12.67
   3  -1   7 3684.78  183.93
  -3   1  -7 3617.77   48.46
  -3   1  -7 3713.31  185.72
  -3   1  -7 3675.74  183.46
   3  -1   7 3507.97   47.00
   3  -1   8  905.22   17.07
   3  -1   8 1008.46   19.20
  -3   1  -8 1046.69   21.23
  -3   1  -8  990.57   18.96
   3  -1   8  967.66   18.46
   3  -1   9  106.43    7.77
   3  -1   9  128.04    9.41
  -3   1  -9  141.52   16.36
  -3   1  -9  130.54    9.71
   3  -1   9  110.19    8.14
  -3   1 -10  118.39   14.49
  -3   1 -10   87.25    5.26
  -3   1 -11   64.14    8.06
  -3   1 -11   57.13    7.23
  -3   1 -12   68.93    5.60
  -3   1 -12   54.65    9.32
  -3   1 -13  128.24   11.73
  -3   1 -13  100.54    9.61
  -3   0  12   60.64    5.10
  -3   0  12   64.09    5.74
   3   0 -11   12.03    2.82
  -3   0  11   15.17    4.67
   3   0 -11   11.37    2.97
   3   0 -10  184.93    5.76
  -3   0  10  175.81    5.95
   3   0 -10  198.00    6.83
   3   0  -9  234.26   10.81
  -3   0   9  245.96   10.24
   3   0  -9  245.06   10.05
   3   0  -8   12.00    2.20
  -3   0   8    9.12    3.03
   3   0  -8   17.01    2.93
   3   0  -7  307.02    8.34
  -3   0   7  280.34    8.45
   3   0  -7  311.87    9.09
   3   0  -6  884.85   17.83
  -3   0   6  866.70   17.65
   3   0  -5  964.26   14.75
  -3   0   5  918.94   14.59
   3   0  -5  989.75   15.55
   3   0  -4  287.69   12.28
  -3   0   4  275.90   12.06
   3   0  -4  282.05   12.29
   3   0  -3   49.78    2.52
  -3   0   3   39.60    2.53
   3   0  -3   42.39    2.02
   3   0  -2  272.58    4.48
  -3   0   2  236.65    3.82
  -3   0   2  267.05    4.54
   3   0  -2  238.99    3.58
  -3   0   1    3.36    1.79
   3   0  -1    8.81    1.23
  -3   0   1    4.39    0.67
  -3   0   1    6.06    1.23
   3   0   0 1059.93    9.13
  -3   0   0 1059.29    9.00
   3   0   0  989.26    8.30
  -3   0   0  995.73    8.07
   3   0   1 1045.77    8.84
  -3   0  -1 1073.12    9.16
  -3   0  -1 1104.72    9.12
   3   0   1 1047.81    8.49
  -3   0  -2 2553.66   18.07
  -3   0  -2 2583.19   18.73
   3   0   2 2432.36   17.64
   3   0   2 2491.82   17.45
   3   0   3  360.24    9.20
  -3   0  -3  363.34    9.23
  -3   0  -3  361.73    9.63
  -3   0  -3  366.99    9.40
   3   0   3  358.95    9.10
   3   0   4 1414.44   10.82
  -3   0  -4 1389.79   10.64
  -3   0  -4 1459.54   12.14
  -3   0  -4 1416.36   10.96
   3   0   4 1392.05   10.69
   3   0   5  585.72    5.30
  -3   0  -5  584.46    5.36
  -3   0  -5  592.03    5.89
   3   0   5  581.18    5.49
   3   0   6  564.47    8.53
  -3   0  -6  550.98    8.29
  -3   0  -6  561.65    9.66
  -3   0  -6  564.24    8.98
   3   0   6  551.36    8.62
   3   0   7   23.80    1.65
  -3   0  -7   20.00    1.43
  -3   0  -7   20.68    1.97
   3   0   7   17.10    1.56
   3   0   8   32.66    1.90
   3   0   8   33.14    2.00
  -3   0  -8   46.05    5.63
  -3   0  -8   35.84    2.79
   3   0   8   33.64    2.34
   3   0   9  914.28   20.64
   3   0   9  957.18   21.61
  -3   0  -9 1007.84   24.09
  -3   0  -9 1027.72   24.11
  -3   0 -10 2463.02  162.47
  -3   0 -10 2296.64   60.56
  -3   0 -11   59.51    4.32
  -3   0 -11   39.15    5.01
  -3   0 -12   10.31    3.41
  -3   0 -12    4.31    1.56
  -3   0 -13   12.65    2.99
   3   0  14   50.35    7.32
  -3   0 -14   24.65    6.93
  -3  -1  12   78.36    6.41
  -3  -1  12   78.53    7.28
   3   1 -11   54.87    8.07
  -3  -1  11   62.61    7.07
  -3  -1  11   54.09    6.27
   3   1 -10  140.72    4.82
  -3  -1  10  134.24    5.62
  -3  -1  10  141.14    6.62
   3   1  -9   42.00    4.58
  -3  -1   9   37.79    3.63
  -3  -1   9   50.56    5.39
   3   1  -8   26.90    4.42
  -3  -1   8   17.03    2.52
  -3  -1   8   18.31    3.94
   3   1  -7  337.03   10.77
  -3  -1   7  328.11    8.98
  -3  -1   7  334.06   10.12
   3   1  -6   80.28    9.91
  -3  -1   6   61.89    5.84
  -3  -1   6   69.54    6.79
   3   1  -5  534.50   10.65
  -3  -1   5  535.39    8.98
   3   1  -5  517.69    8.38
  -3  -1   5  571.25   10.29
   3   1  -4  401.62   16.68
  -3  -1   4  399.95   16.47
   3   1  -4  373.20   15.26
  -3  -1   4  415.89   17.47
   3   1  -3 1673.89   12.73
  -3  -1   2 2361.62   17.65
   3   1  -2 2402.19   17.24
  -3  -1   2 2271.56   16.93
  -3  -1   1  904.84    7.77
  -3  -1   1  960.07    7.87
   3   1  -1  898.82    7.27
   3   1  -1  901.92    7.90
   3   1   0   38.14    2.53
  -3  -1   0   31.70    1.93
   3   1   0   32.33    1.53
   3   1   0   33.86    2.27
   3   1   1    7.04    0.92
  -3  -1  -1    5.88    1.01
   3   1   1    3.89    0.82
  -3  -1  -1   11.13    1.29
   3   1   1    6.36    0.87
  -3  -1  -2 1702.47   12.32
  -3  -1  -2 1767.39   13.08
   3   1   2 1705.72   12.69
   3   1   3  826.64    6.73
  -3  -1  -3  779.78    6.32
  -3  -1  -3  814.48    7.28
  -3  -1  -3  795.89    7.11
   3   1   3  762.98    6.74
   3   1   4 1121.77    8.36
  -3  -1  -4 1117.23    8.33
  -3  -1  -4 1154.93    9.68
  -3  -1  -4 1113.87    9.22
   3   1   4 1077.08    8.77
   3   1   5 2494.99   17.14
  -3  -1  -5 2451.98   16.91
  -3  -1  -5 2405.20   18.35
  -3  -1  -5 2487.99   18.58
   3   1   5 2391.36   17.67
   3   1   6 1059.07   14.90
  -3  -1  -6 1095.54   15.41
  -3  -1  -6 1070.79   16.71
  -3  -1  -6 1122.70   16.91
   3   1   6 1035.93   15.48
  -3  -1  -7   38.49    5.62
  -3  -1  -7   24.52    2.14
   3   1   7   27.80    2.03
  -3  -1  -8   10.95    2.05
  -3  -1  -8    8.31    1.79
  -3  -1  -9   94.71    7.47
  -3  -1 -10  202.60   11.52
  -3  -1 -10  201.81   11.53
  -3  -1 -11    6.64    3.42
  -3  -1 -11    7.80    2.89
   3   1  12  197.35    8.79
  -3  -1 -12  208.88    7.73
   3   1  13  279.05   10.33
  -3  -1 -13  286.70    9.54
  -3  -1 -14   48.46   10.93
   3   2 -12  266.02   14.49
  -3  -2  12  270.11   15.10
  -3  -2  12  270.93   15.89
   3   2 -11   18.83    3.91
  -3  -2  11   26.57    4.04
  -3  -2  11   30.88    4.61
   3   2 -10    2.70    1.54
  -3  -2  10    6.20    3.33
  -3  -2  10   18.45    4.98
   3   2  -9   69.62    9.98
  -3  -2   9   53.59    3.81
  -3  -2   9   65.30    4.41
   3   2  -8  132.01    7.86
  -3  -2   8  109.36    6.75
  -3  -2   8  148.21   10.16
   3   2  -7 1824.47   42.15
  -3  -2   7 1712.90   39.45
  -3  -2   7 1696.71   39.77
   3   2  -6   93.62   10.75
  -3  -2   6   75.27    6.04
  -3  -2   6   76.54    6.55
  -3  -2   6   80.20    6.74
   3   2  -5  168.82    9.48
  -3  -2   5  159.36    8.48
  -3  -2   5  173.99    9.62
  -3  -2   5  174.24   10.13
   3   2  -4  367.17   15.31
  -3  -2   4  356.56   14.63
   3   2  -4  341.90   13.91
  -3  -2   4  361.21   15.31
   3   2  -3  614.05    6.73
  -3  -2   3  623.18    5.76
   3   2  -3  616.10    5.51
   3   2  -2  508.48    6.80
  -3  -2   2  477.20    5.22
  -3  -2   2  504.00    4.72
   3   2  -2  468.64    4.33
  -3  -2   2  509.75    6.14
   3   2  -1  259.56    7.14
  -3  -2   1  239.63    6.41
  -3  -2   1  246.54    6.32
   3   2  -1  237.29    6.08
  -3  -2   1  256.02    7.30
   3   2   0  795.53    7.86
  -3  -2   0  793.92    6.36
   3   2   0  749.50    6.00
  -3  -2   0  795.78    7.89
  -3  -2  -1 7257.49   47.49
   3   2   1 7014.67   45.59
   3   2   1 7023.10   46.45
   3   2   2 1877.91   13.56
  -3  -2  -2 1817.57   13.00
  -3  -2  -2 1811.59   13.20
   3   2   2 1828.40   13.12
   3   2   2 1818.56   13.78
   3   2   3  327.63    8.59
  -3  -2  -3  322.63    8.07
   3   2   3  319.15    8.17
   3   2   3  333.43    8.79
   3   2   4    5.43    0.77
  -3  -2  -4    1.80    0.46
  -3  -2  -4    4.90    1.46
   3   2   4    3.57    0.96
  -3  -2  -4    5.05    2.37
   3   2   4    5.48    2.18
   3   2   5   15.77    1.61
  -3  -2  -5   13.99    0.78
  -3  -2  -5   21.23    3.05
  -3  -2  -5   18.60    1.76
   3   2   5   13.11    1.45
  -3  -2  -6  260.40   12.38
  -3  -2  -6  252.42   10.79
  -3  -2  -7 1973.01   27.76
  -3  -2  -7 1970.33   27.90
  -3  -2  -8 2487.89   47.74
  -3  -2  -8 2848.88   54.50
  -3  -2  -9   76.81    6.27
  -3  -2  -9   74.62    6.04
  -3  -2 -10    5.32    2.24
  -3  -2 -10    4.91    1.93
   3   2  11    1.29    3.03
  -3  -2 -11    3.50    1.60
   3   2  12   44.93    4.74
  -3  -2 -12   32.48    5.49
   3   2  13   14.49    3.72
  -3  -2 -13   18.98    3.57
   3   2  14    2.90    3.44
  -3  -2 -14    3.27    1.73
   3   3 -12  164.63    9.32
  -3  -3  12  170.33   10.59
   3   3 -11   -0.63    1.69
  -3  -3  11    7.63    3.16
  -3  -3  11    9.85    4.26
   3   3 -10   53.64    4.12
  -3  -3  10   54.13    4.86
  -3  -3  10   62.14    5.61
   3   3  -9   46.40    7.10
  -3  -3   9   40.63    3.42
  -3  -3   9   41.98    3.56
   3   3  -8   21.36    3.88
  -3  -3   8   19.91    2.66
  -3  -3   8   23.94    3.81
   3   3  -7  156.11   10.33
  -3  -3   7  141.03    9.22
  -3  -3   7  172.02   15.12
   3   3  -6   92.09    8.80
  -3  -3   6   73.53    5.91
  -3  -3   6   78.75    6.12
  -3  -3   6   89.41    5.71
   3   3  -5 2073.98   39.93
  -3  -3   5 1903.83   35.94
  -3  -3   5 2014.56   38.20
  -3  -3   5 2137.09   41.46
   3   3  -4 1994.78   29.28
  -3  -3   4 1860.73   26.20
  -3  -3   4 1978.10   28.03
  -3  -3   4 1998.33   29.62
  -3  -3   3  208.08    8.40
  -3  -3   3  218.78    8.92
  -3  -3   2  214.03    2.19
   3   3  -2  223.80    2.17
  -3  -3   2  220.13    4.53
   3   3  -2  204.24    3.60
   3   3  -1  611.67    6.36
  -3  -3   1  591.27    4.43
   3   3  -1  578.64    4.34
  -3  -3   1  601.33    6.98
   3   3   0 1391.97   11.12
  -3  -3   0 1371.30    9.41
   3   3   0 1369.36    9.54
  -3  -3   0 1350.61   11.36
   3   3   1  349.11    9.06
  -3  -3  -1  348.24    8.89
  -3  -3  -1  369.60    9.23
   3   3   1  357.54    8.86
  -3  -3  -1  369.39   10.06
   3   3   2  536.51    5.97
  -3  -3  -2  531.95    4.96
  -3  -3  -2  537.70    4.93
   3   3   2  528.59   12.99
   3   3   2  516.54   13.08
   3   3   3 2925.06   20.92
  -3  -3  -3 2816.96   19.84
  -3  -3  -3 2887.87   20.55
   3   3   3 2756.89   20.10
  -3  -3  -3 2943.54   21.86
   3   3   3 2764.36   20.49
   3   3   4   43.64    1.42
  -3  -3  -4   42.99    1.13
   3   3   4   33.45    2.96
   3   3   4   42.46    2.02
  -3  -3  -5  739.96   10.68
  -3  -3  -5  728.05   10.54
  -3  -3  -5  759.75   12.03
  -3  -3  -5  738.56   12.04
  -3  -3  -6  156.33    6.29
  -3  -3  -6  160.16    6.46
  -3  -3  -6  157.11    7.22
  -3  -3  -6  157.48    7.23
  -3  -3  -7    2.07    1.83
  -3  -3  -7   12.23    2.99
  -3  -3  -8  196.44   10.66
   3   3   9  237.81    7.27
  -3  -3  -9  252.62    7.33
   3   3  10  548.69   19.63
  -3  -3 -10  590.31   20.41
   3   3  11   98.13    5.47
  -3  -3 -11  127.57    8.22
   3   3  12   18.54    5.48
  -3  -3 -12   17.19    4.26
   3   3  13   23.62    5.31
  -3  -3 -13   22.01    5.80
   3   3  14    5.27    3.74
  -3  -3 -14    7.50    3.40
  -3  -4  11   12.10    3.18
  -3  -4  11    5.65    4.50
   3   4 -10  160.55    7.11
  -3  -4  10  142.01    5.82
  -3  -4  10  149.44    6.78
   3   4  -9  193.20    7.47
  -3  -4   9  162.72   21.21
  -3  -4   9  195.30    7.99
   3   4  -8    2.75    3.11
  -3  -4   8    6.88    1.94
  -3  -4   8    3.55    3.03
   3   4  -7   37.83    5.32
  -3  -4   7   19.99    3.19
  -3  -4   7   39.73    3.47
  -3  -4   7   38.53    3.78
   3   4  -6  391.72   10.49
  -3  -4   6  372.40    8.86
  -3  -4   6  380.07    9.23
  -3  -4   6  415.10   11.33
   3   4  -5  285.45    7.92
  -3  -4   5  255.75   12.95
  -3  -4   5  269.54   13.73
  -3  -4   5  288.06    7.70
   3   4  -4   53.91    6.31
  -3  -4   4   47.92    2.63
  -3  -4   4   46.84    2.67
  -3  -4   4   54.20    4.67
  -3  -4   3   18.85    2.81
   3   4  -2 2097.05   30.62
  -3  -4   2 1907.82   28.16
   3   4   0 1481.39   13.86
   3   4   0 1507.37   10.44
   3   4   0 1584.35   10.97
  -3  -4   0 1582.04   13.48
  -3  -4  -1   18.61    1.85
   3   4   1   14.67    1.82
   3   4   1   11.92    1.16
  -3  -4  -1   12.07    1.70
   3   4   1   11.00    1.60
   3   4   2 2954.92   21.17
  -3  -4  -2 2757.08   19.80
   3   4   2 2844.39   19.86
   3   4   2 2884.61   20.40
  -3  -4  -2 2958.20   22.23
  -3  -4  -3 1240.75    9.72
  -3  -4  -3 1263.61   10.15
   3   4   3 1232.35    9.78
   3   4   3 1253.18   10.34
  -3  -4  -3 1276.09   11.43
  -3  -4  -4 1065.29   15.70
  -3  -4  -4 1103.10   16.09
   3   4   4 1015.57   15.14
   3   4   4 1076.17   16.32
  -3  -4  -4 1122.10   17.33
  -3  -4  -5 1307.78   18.64
  -3  -4  -5 1349.86   19.39
   3   4   5 1322.42   19.95
  -3  -4  -5 1423.60   21.80
  -3  -4  -6 1732.36   23.29
  -3  -4  -6 1745.79   23.63
   3   4   6 1667.81   23.92
  -3  -4  -7  457.75    8.76
  -3  -4  -7  456.57    8.77
   3   4   7  436.99   10.41
  -3  -4  -7  467.71   10.84
   3   4   8  106.40    9.08
  -3  -4  -8  114.99    9.26
  -3  -4  -9    6.96    2.78
   3   4  10   39.59    5.58
  -3  -4 -10   40.04    4.27
   3   4  11   67.88    6.77
  -3  -4 -11   65.49    4.46
   3   4  12   18.59    4.62
  -3  -4 -12   22.43    5.41
  -3  -4 -13  101.61   11.05
  -3  -5  11  114.64    7.69
  -3  -5  11  121.58    8.20
  -3  -5  10    3.73    2.71
  -3  -5  10    1.46    2.51
  -3  -5   9   11.46    2.72
  -3  -5   9   12.44    2.07
  -3  -5   9    9.80    2.46
   3   5  -8   91.51    6.16
  -3  -5   8   73.68    3.92
  -3  -5   8   93.68    6.15
   3   5  -7  678.98   19.15
  -3  -5   7  606.35   16.29
  -3  -5   7  642.28   18.42
   3   5  -6  907.44   20.66
  -3  -5   6  829.75   17.51
  -3  -5   6  824.53   17.42
  -3  -5   6  885.59   20.09
   3   5  -5  123.57    7.41
  -3  -5   5  123.10    6.13
  -3  -5   5  119.22    5.96
  -3  -5   5  129.27    7.76
   3   5  -4  278.30    7.50
  -3  -5   4  253.04   13.61
   3   5  -3 2201.14   31.15
  -3  -5   3 2209.11   31.26
   3   5  -2   14.56    2.15
  -3  -5   2   19.54    3.02
   3   5  -1  381.33   15.83
  -3  -5   1  383.29   16.07
   3   5   0  176.58    7.17
   3   5   0  181.97    7.41
  -3  -5   0  200.87    8.83
  -3  -5  -1 1974.69   28.68
   3   5   1 1960.62   27.59
   3   5   1 1971.26   27.87
  -3  -5  -1 1969.51   28.82
  -3  -5  -2 1337.28   19.57
  -3  -5  -2 1408.41   20.84
   3   5   2 1334.29   19.24
   3   5   2 1393.46   20.23
  -3  -5  -3   54.17    4.39
  -3  -5  -3   70.12    3.80
   3   5   3   53.56    3.63
   3   5   3   57.67    3.50
  -3  -5  -3   75.27    5.37
  -3  -5  -4   61.38    7.57
  -3  -5  -4   92.98    5.59
   3   5   4   91.54    5.76
  -3  -5  -4   80.86    5.44
  -3  -5  -5  191.51   10.11
  -3  -5  -5  184.47    9.88
   3   5   5  196.39   11.15
  -3  -5  -5  155.72    8.90
  -3  -5  -6    4.61    0.90
  -3  -5  -6    3.36    1.12
   3   5   6    0.53    2.55
  -3  -5  -6    5.63    2.32
  -3  -5  -7  263.19   13.01
  -3  -5  -7  273.87   13.61
   3   5   7  286.14   15.46
  -3  -5  -8  365.77    7.88
  -3  -5  -8  393.94    8.51
   3   5   8  397.03   10.62
  -3  -5  -8  391.95   10.72
   3   5   9   41.30    4.69
  -3  -5  -9   44.39    5.06
   3   5  10   48.80    3.94
  -3  -5 -10   45.28    4.13
  -3  -5 -11    7.24    3.95
   3   5  12  149.20    6.94
  -3  -5 -12  143.51   16.43
   3   5  13   15.64    6.07
  -3  -5 -13   25.44    4.53
  -3  -6  11   28.09    4.02
  -3  -6  11   45.76    5.54
  -3  -6  10    2.81    2.77
  -3  -6  10    3.73    2.33
  -3  -6   9   55.12    5.00
  -3  -6   9   59.76    5.86
  -3  -6   8   74.67    6.01
  -3  -6   8   87.12    6.03
  -3  -6   7  133.36    8.01
  -3  -6   7  117.59    5.21
  -3  -6   7  132.81    7.35
  -3  -6   6    7.61    3.11
  -3  -6   6    3.04    0.44
  -3  -6   6    3.80    0.56
  -3  -6   6    7.95    3.32
  -3  -6   5  145.27   10.86
  -3  -6   5  132.28    9.19
  -3  -6   4 1343.05   26.54
  -3  -6   4 1282.14   25.22
  -3  -6   3 1210.92   24.37
  -3  -6   3 1264.00   25.26
  -3  -6   2   13.00    1.94
  -3  -6   2   11.55    2.02
   3   6  -1   55.80    2.93
   3   6  -1   59.11    3.10
  -3  -6   1   48.34    3.65
  -3  -6   0  357.20    7.15
   3   6   0  361.86    5.59
   3   6   0  370.71    5.64
  -3  -6   0  369.85    7.41
  -3  -6  -1   34.04    3.44
   3   6   1   25.64    3.64
   3   6   1   33.90    2.47
  -3  -6  -1   27.38    2.92
  -3  -6  -2  177.90    9.85
   3   6   2  163.68    8.67
   3   6   2  182.36    9.90
  -3  -6  -2  178.05   10.28
  -3  -6  -3  821.57   12.89
   3   6   3  771.03   11.92
  -3  -6  -3  764.11   12.42
  -3  -6  -4 1596.95   30.90
   3   6   4 1701.79   32.99
  -3  -6  -4 1657.57   32.57
  -3  -6  -5  967.03   18.47
  -3  -6  -5 1136.23   21.94
   3   6   5 1086.00   21.67
  -3  -6  -5 1129.23   22.51
  -3  -6  -6   35.25    5.33
  -3  -6  -6   57.25    4.74
   3   6   6   54.56    5.74
  -3  -6  -6   55.72    4.87
  -3  -6  -7    0.25    0.64
  -3  -6  -7    3.52    1.64
   3   6   7    4.88    4.31
  -3  -6  -7    5.76    3.46
  -3  -6  -8  358.01   11.97
   3   6   8  327.46   12.68
  -3  -6  -8  344.58   12.76
  -3  -6  -9   15.73    2.31
   3   6   9   22.57    5.50
   3   6  10   57.52    5.21
  -3  -6 -10   56.67    5.31
   3   6  11  139.87   18.49
  -3  -6 -11  172.45    8.81
  -3  -6 -12   94.56   15.36
  -3  -7  10   10.03    3.70
  -3  -7  10    7.35    2.54
  -3  -7   9  340.00   15.64
  -3  -7   9  337.63   14.71
  -3  -7   8  152.79    6.34
  -3  -7   8  163.05    5.96
  -3  -7   7   44.76    4.40
  -3  -7   7   30.73    4.46
  -3  -7   6  237.71    8.86
  -3  -7   6  242.58    8.05
  -3  -7   5  670.55   19.39
  -3  -7   5  711.12   19.92
  -3  -7   4   63.48    5.47
  -3  -7   4   68.04    5.36
  -3  -7   3   18.89    4.18
  -3  -7   3   16.64    2.90
  -3  -7   2  143.20    8.15
  -3  -7   2  157.74    8.77
   3   7  -1 2580.64   47.37
   3   7  -1 2607.89   47.96
  -3  -7   1 2639.86  186.87
  -3  -7   0  546.12   12.07
   3   7   0  525.22   10.20
   3   7   0  529.13   10.35
  -3  -7   0  562.38   12.08
  -3  -7  -1   11.34    2.47
   3   7   1    6.66    1.21
   3   7   1    4.97    1.15
  -3  -7  -1   11.33    3.18
  -3  -7  -2  194.49   10.63
   3   7   2  137.82    9.99
  -3  -7  -2  188.19   10.36
  -3  -7  -3  247.66   13.02
   3   7   3  246.88   12.77
  -3  -7  -3  258.34   13.65
  -3  -7  -4   24.24    3.37
   3   7   4   36.13    3.89
  -3  -7  -4   27.75    3.37
  -3  -7  -5   18.38    2.49
   3   7   5   24.38    3.82
  -3  -7  -5   26.00    3.36
  -3  -7  -6  196.64   11.03
   3   7   6  188.98   11.26
  -3  -7  -6  192.12   11.17
  -3  -7  -7  435.17   14.77
   3   7   7  446.76   15.79
  -3  -7  -7  483.84   17.62
  -3  -7  -8  106.14    5.34
   3   7   8  104.41    6.85
  -3  -7  -8  105.68    6.69
   3   7   9   37.07    4.91
  -3  -7  -9   42.25    4.00
   3   7  10    5.76    4.58
  -3  -7 -10    6.61    3.78
   3   7  11   12.85    4.63
  -3  -7 -11   12.17    3.90
   3   7  12   53.59    6.27
  -3  -7 -12   56.67    8.00
  -3  -8   9   24.02    4.14
  -3  -8   8    9.66    3.48
  -3  -8   8   12.77    2.55
  -3  -8   7  108.38    9.36
  -3  -8   7  103.32    8.07
  -3  -8   6  592.65   19.77
  -3  -8   6  626.02   19.34
  -3  -8   5   30.52    5.48
  -3  -8   5   40.88    3.32
  -3  -8   4  184.92   10.26
  -3  -8   4  159.33    7.78
  -3  -8   3   19.05    4.06
  -3  -8   3    9.66    2.37
  -3  -8   2   18.76    3.08
   3   8  -2    2.13    0.47
   3   8  -2    3.71    0.50
  -3  -8   2   -0.58    1.86
  -3  -8   1   15.93    4.28
   3   8  -1    3.74    0.64
   3   8  -1   10.51    1.17
  -3  -8   1    9.55    2.92
  -3  -8   0  372.84   10.34
   3   8   0  319.97    7.21
   3   8   0  401.48    9.25
  -3  -8   0  377.53    9.73
  -3  -8  -1  642.01   15.60
   3   8   1  530.57   11.61
   3   8   1  634.28   14.18
  -3  -8  -1  636.39   14.92
  -3  -8  -2 1395.94   30.49
   3   8   2 1431.68   30.64
  -3  -8  -2 1473.28   32.13
  -3  -8  -3  544.36   13.11
   3   8   3  547.23   12.81
  -3  -8  -3  549.94   13.60
  -3  -8  -4   20.97    2.97
   3   8   4   24.36    3.59
  -3  -8  -4   26.67    4.26
  -3  -8  -5  144.22    7.28
   3   8   5  156.55    7.84
  -3  -8  -5  135.09    7.45
  -3  -8  -6   72.10    4.31
   3   8   6   76.23    5.77
  -3  -8  -6   79.33    5.24
  -3  -8  -7   29.95    3.89
   3   8   7   20.94    4.40
  -3  -8  -7   17.40    3.97
  -3  -8  -8   48.39    3.46
   3   8   8   42.55    4.82
  -3  -8  -8   55.74    5.89
   3   8   9   42.20    5.37
  -3  -8  -9   39.84    5.72
   3   8  10  157.79    9.28
  -3  -8 -10  174.20    9.47
   3   8  11    2.42    2.93
  -3  -8 -11    7.64    3.76
  -3  -9   8   84.79    7.76
  -3  -9   6   68.29    6.12
  -3  -9   6   65.50    5.38
  -3  -9   5   92.39    7.48
  -3  -9   5   92.26    6.11
  -3  -9   4   40.23    5.78
  -3  -9   4   27.24    3.91
  -3  -9   3  455.79   16.68
  -3  -9   3  431.98   15.04
  -3  -9   2  261.49    7.97
  -3  -9   1   69.86    4.84
   3   9  -1   80.80    3.91
  -3  -9   1   81.14    4.74
  -3  -9   0   44.42    4.54
   3   9   0   47.07    3.80
  -3  -9   0   35.41    4.32
  -3  -9  -1   72.37    6.13
   3   9   1   73.81    4.24
  -3  -9  -1   75.10    5.20
  -3  -9  -2   93.79    5.72
   3   9   2   85.14    4.65
  -3  -9  -2   91.57    5.86
  -3  -9  -3   17.14    3.84
   3   9   3   13.42    2.88
  -3  -9  -3   13.10    3.46
  -3  -9  -4   90.85    5.20
   3   9   4   86.37    5.36
  -3  -9  -4   87.93    6.03
  -3  -9  -5  581.28   20.06
   3   9   5  574.58   19.90
  -3  -9  -5  622.44   21.88
  -3  -9  -6  175.35    6.76
   3   9   6  192.46    8.36
  -3  -9  -6  204.24    8.97
  -3  -9  -7   12.78    3.15
   3   9   7    8.84    2.81
  -3  -9  -8   22.37    3.22
   3   9   8   19.44    3.59
  -3  -9  -8   27.87    4.70
   3   9   9    5.76    3.43
  -3  -9  -9    3.88    3.92
   3   9  10   99.84    8.07
  -3  -9 -10   92.03    7.56
  -3 -10   7   65.80    6.54
  -3 -10   6   76.31    7.26
  -3 -10   5    8.14    2.50
  -3 -10   5   17.75    5.19
  -3 -10   4   10.57    3.64
  -3 -10   4    3.91    1.77
  -3 -10   3  131.44    5.90
  -3 -10   3  126.20    7.51
  -3 -10   2    5.65    2.67
  -3 -10   1  405.32   13.92
  -3 -10   1  411.97   13.28
  -3 -10   0  619.23   20.10
   3  10   0  633.80   19.03
  -3 -10   0  604.51   18.82
  -3 -10  -1  125.42    7.63
   3  10   1  124.75    6.17
  -3 -10  -1  117.49    6.19
  -3 -10  -2   16.14    3.48
   3  10   2   14.19    2.30
  -3 -10  -2   19.55    3.70
  -3 -10  -3  172.14    6.15
   3  10   3  165.13    5.49
  -3 -10  -3  190.59    6.87
  -3 -10  -4   16.85    3.90
   3  10   4    9.69    2.61
  -3 -10  -4   12.07    3.43
  -3 -10  -5   14.86    4.21
   3  10   5   21.13    5.16
  -3 -10  -5   11.57    2.78
  -3 -10  -6   56.94    6.03
   3  10   6   52.59    6.23
  -3 -10  -6   40.56    6.31
  -3 -10  -7  123.06    6.59
   3  10   7  123.92    7.53
  -3 -10  -7  128.65    8.71
   3  10   8   39.82    6.37
  -3 -10  -8   26.68    4.57
  -3 -11   5   86.96    6.64
  -3 -11   4    7.55    5.06
  -3 -11   3    7.14    4.88
  -3 -11   3    0.89    1.48
  -3 -11   2  128.19    8.24
  -3 -11   2  115.86    6.30
  -3 -11   1   37.11    5.18
  -3 -11   1   43.26    4.54
  -3 -11   0    9.42    3.38
  -3 -11   0    6.60    2.95
  -3 -11  -1    0.41    2.96
  -3 -11  -1    4.35    2.36
  -3 -11  -2  135.77   13.07
   3  11   2  117.54   10.69
  -3 -11  -2  115.90   10.93
  -3 -11  -3  314.51   14.25
   3  11   3  300.84   13.10
  -3 -11  -3  321.32   14.26
  -3 -11  -4   18.63    2.98
   3  11   4    7.69    3.71
  -3 -11  -4   15.70    3.61
  -3 -11  -5    7.35    3.14
   3  11   5    4.71    2.78
  -3 -11  -5    5.52    2.66
   3  11   6   72.35    9.08
  -3 -11  -6   72.75   20.87
  -3 -12   2  167.28   11.00
  -3 -12   1   44.16    6.87
  -3 -12   1   38.91    4.33
  -3 -12   0    6.32    3.24
  -3 -12   0    9.89    3.81
  -3 -12  -1   98.51    8.14
  -3 -12  -1   75.79    5.50
  -3 -12  -2   19.73    3.54
  -3 -12  -2   17.16    2.95
  -3 -12  -3   24.04    4.61
  -3 -12  -3   19.72    3.05
   4  -9   0   -3.41    3.13
  -4   9   0   -2.40    3.49
   4  -9   1   11.68    4.75
  -4   9  -1    2.44    3.61
   4  -9   2  372.21   20.53
  -4   9  -2  342.52   18.49
   4  -9   3   50.28    6.44
  -4   9  -3   44.71    5.28
   4  -9   4   11.08    4.56
  -4   9  -4   14.31    4.39
   4  -8  -3  159.22   10.41
  -4   8   3  161.66   12.09
   4  -8  -3  138.95    8.36
  -4   8   2  383.79   18.38
   4  -8  -2  382.10   16.61
   4  -8  -1   10.04    4.10
  -4   8   1    0.65    3.50
   4  -8   0   25.12    4.65
  -4   8   0   18.04    5.71
   4  -8   0   17.76    5.35
   4  -8   1  201.92    9.37
  -4   8  -1  214.35    9.91
   4  -8   2   32.14    4.84
  -4   8  -2   43.05    6.48
   4  -8   3   27.20    4.55
  -4   8  -3   28.42    5.16
   4  -8   4   11.38    3.74
  -4   8  -4   15.21    4.67
   4  -8   5  568.07   24.87
  -4   8  -5  590.96  159.98
   4  -8   6  340.35   16.32
  -4   8  -6  328.63   15.21
   4  -8   7   15.87    6.03
  -4   8  -7   15.79    5.33
   4  -8   8    4.08    3.32
  -4   8  -8    2.28    2.46
   4  -7  -5  166.98   10.59
  -4   7   5  184.11   12.01
   4  -7  -5  154.97   16.62
   4  -7  -4   64.62    6.54
  -4   7   4   79.88    8.86
   4  -7  -4   65.74   12.10
   4  -7  -3   20.76    4.64
  -4   7   3    8.90    4.41
   4  -7  -3    5.60    2.19
   4  -7  -2    3.85    4.51
  -4   7   2    8.91    4.12
   4  -7  -2    5.85    2.73
   4  -7  -1   14.24    3.61
  -4   7   1   19.82    5.87
   4  -7  -1    8.44    1.69
  -4   7   0  539.17   14.45
   4  -7   0  479.02   10.36
   4  -7   1  124.73    8.06
  -4   7  -1  103.33    7.70
   4  -7   2    7.45    3.25
  -4   7  -2   15.47    3.42
  -4   7  -2   11.32    2.05
   4  -7   3    8.25    3.39
  -4   7  -3   10.52    2.97
   4  -7   4    2.18    3.16
  -4   7  -4    1.17    2.76
   4  -7   5   24.44    5.91
  -4   7  -5   21.57    4.90
   4  -7   6   57.25    6.16
  -4   7  -6   47.26    5.25
   4  -7   7  347.96   12.63
  -4   7  -7  347.48   12.23
   4  -7   8  456.61   19.91
  -4   7  -8  499.88   21.67
   4  -7   9  386.24   21.16
  -4   6   7    8.49    4.33
   4  -6  -7    6.08    2.74
   4  -6  -6    9.48    3.81
   4  -6  -6   17.03    3.89
   4  -6  -5  204.26    8.70
  -4   6   5  198.48    9.94
   4  -6  -5  183.94   10.67
   4  -6  -4  303.74   11.79
  -4   6   4  320.80   13.27
   4  -6  -4  309.54   11.57
   4  -6  -3    2.52    2.64
  -4   6   3    1.54    3.76
   4  -6  -3   -0.50    1.45
   4  -6  -2  102.56    6.46
   4  -6  -2  110.47    5.16
   4  -6  -1   97.03    6.18
  -4   6   1  100.55    6.68
   4  -6  -1  111.72    5.98
   4  -6   0  104.08    6.81
  -4   6   0   88.91    7.00
   4  -6   0   97.37    5.22
   4  -6   1  165.33    9.50
  -4   6  -1  192.02   10.01
  -4   6  -1  186.35    8.72
   4  -6   2   84.20    6.18
  -4   6  -2   75.24    5.91
  -4   6  -2   95.38    4.86
   4  -6   3  734.06   20.30
  -4   6  -3  725.96   20.05
  -4   6  -3  678.47   17.01
   4  -6   4  364.21   11.52
  -4   6  -4  340.78   10.79
   4  -6   5   55.74    4.81
  -4   6  -5   63.46    5.19
   4  -6   6   19.60    3.68
  -4   6  -6   15.16    3.14
   4  -6   7  137.77    7.95
  -4   6  -7  161.53    8.51
   4  -6   8   60.64    5.86
  -4   6  -8   79.10    6.45
   4  -6   9  100.26    9.72
  -4   6  -9   88.57   12.37
   4  -6  10  164.53    8.43
  -4   6 -10  162.49    8.30
   4  -6  11  364.86   19.29
  -4   6 -11  329.01   17.48
   4  -5  -8   11.20    4.32
  -4   5   8   18.42    6.90
   4  -5  -8   11.02    4.43
   4  -5  -7  139.58    7.44
  -4   5   7  142.53    8.61
   4  -5  -7  136.45    7.93
   4  -5  -6  174.65    8.05
  -4   5   6  180.52    8.61
   4  -5  -6  169.27    7.56
   4  -5  -5    8.69    2.91
  -4   5   5   17.96    5.72
   4  -5  -5    1.32    1.56
   4  -5  -4   18.79    4.02
  -4   5   4   14.14    3.08
   4  -5  -4   16.86    3.16
   4  -5  -3    6.02    5.20
  -4   5   3    4.24    3.91
   4  -5  -3    4.53    2.47
   4  -5  -2  545.36   19.31
  -4   5   2  554.88   20.33
   4  -5  -2  547.44   18.76
   4  -5  -1  134.13    8.34
  -4   5   1  126.57    8.23
   4  -5  -1  140.00    8.33
   4  -5   0   25.56    3.72
   4  -5   0   32.80    3.51
   4  -5   1  105.98    7.78
  -4   5  -1   94.12    7.49
  -4   5  -1  103.51    7.16
   4  -5   2  740.78   17.76
  -4   5  -2  721.32   17.72
  -4   5  -2  589.48   12.89
  -4   5  -2  731.11   16.08
   4  -5   3   31.11    4.47
  -4   5  -3   42.22    5.36
  -4   5  -3   24.47    1.96
  -4   5  -3   26.50    2.22
   4  -5   4    0.83    3.19
  -4   5  -4    6.02    3.28
  -4   5  -4    5.87    0.61
  -4   5  -4    4.51    0.62
   4  -5   5  497.21   14.98
  -4   5  -5  542.57   16.51
   4  -5   6 1225.53  162.74
  -4   5  -6 1216.67   40.50
   4  -5   7  720.76   19.66
  -4   5  -7  749.10   20.52
   4  -5   8   21.57    4.22
  -4   5  -8   25.15    3.89
   4  -5   9   30.60    3.50
  -4   5  -9   36.14    5.33
   4  -5  10   31.41    3.94
  -4   5 -10   31.60    5.31
   4  -5  11   12.32    3.47
  -4   5 -11    7.84    2.99
  -4   5 -12  176.73   23.03
   4  -4  -9   64.69    5.45
  -4   4   9   49.63    5.70
   4  -4  -9   52.43    5.42
   4  -4  -8    8.33    2.68
  -4   4   8    9.82    3.75
   4  -4  -8    6.67    2.95
   4  -4  -7  232.98    9.81
  -4   4   7  217.33    9.78
   4  -4  -7  215.93    9.45
   4  -4  -6  176.24    7.79
  -4   4   6  156.68    8.96
   4  -4  -6  175.79    8.24
   4  -4  -5   21.24    4.32
  -4   4   5   23.34    4.78
   4  -4  -5   27.72    5.27
   4  -4  -4  115.11    6.71
  -4   4   4   97.56    7.68
   4  -4  -4  121.26    6.55
   4  -4  -3  397.39   12.91
  -4   4   3  382.47   12.63
   4  -4  -3  394.42   12.19
   4  -4  -2    6.45    3.94
  -4   4   2   18.92    4.31
   4  -4  -2   12.80    2.10
  -4   4   1   82.88    7.87
   4  -4  -1  103.91    8.21
   4  -4   0 1246.62   25.03
  -4   4   0 1314.32   26.43
   4  -4   1  762.37   16.25
  -4   4  -1  765.70   16.47
  -4   4  -1  632.37   12.48
  -4   4  -1  772.54   15.46
   4  -4   2  952.26   19.76
  -4   4  -2  839.97   16.11
  -4   4  -2  940.43   18.31
   4  -4   3   26.12    3.48
  -4   4  -3   20.95    3.23
  -4   4  -3   21.20    1.91
  -4   4  -3   19.60    2.07
   4  -4   4  538.52   14.37
  -4   4  -4  559.50   14.77
  -4   4  -4  491.34   11.31
  -4   4  -4  538.20   12.45
   4  -4   5  421.62   11.44
  -4   4  -5  449.27   12.54
   4  -4   6   31.62    4.42
  -4   4  -6   36.89    4.25
   4  -4   7  272.68   15.18
  -4   4  -7  311.94   17.68
   4  -4   8  569.40   19.77
  -4   4  -8  581.96   20.29
   4  -4   9  908.28   30.31
  -4   4  -9  940.22   31.83
   4  -4  10   45.71    3.98
  -4   4 -10   52.51    7.77
   4  -4  11    7.79    2.84
  -4   4 -11    8.23    2.47
  -4   4 -12    6.93    3.13
   4  -3 -10    5.06    3.24
  -4   3  10    4.07    3.81
   4  -3 -10    6.08    3.41
   4  -3  -9   38.16    4.43
  -4   3   9   19.45    4.01
   4  -3  -9   22.91    4.95
   4  -3  -8   65.94    6.98
  -4   3   8   66.19    7.13
   4  -3  -8   51.31    6.00
   4  -3  -7    3.99    2.67
  -4   3   7    6.36    3.92
   4  -3  -7    3.87    2.84
   4  -3  -6  110.90    6.95
  -4   3   6  103.52    7.55
   4  -3  -6  114.44    6.76
   4  -3  -5  186.29    9.22
  -4   3   5  177.96    9.17
   4  -3  -5  182.12    9.09
   4  -3  -4   16.16    3.00
  -4   3   4   21.55    3.77
   4  -3  -4   15.87    3.15
   4  -3  -3  149.75   11.92
  -4   3   3  145.03   12.06
   4  -3  -3  166.48   12.75
   4  -3  -2    5.44    2.63
  -4   3   2    9.60    3.36
   4  -3  -2    7.15    2.00
   4  -3  -1  580.42   12.87
  -4   3   1  614.76   13.82
   4  -3  -1  631.85   13.29
   4  -3   0  200.78   11.12
  -4   3   0  218.92   12.40
  -4   3   0  220.42   11.92
   4  -3   1   67.84    5.06
  -4   3  -1   67.44    4.74
  -4   3  -1   59.83    5.14
  -4   3  -1   84.92    5.56
   4  -3   2   21.37    2.76
  -4   3  -2   26.96    3.43
  -4   3  -2   14.67    2.34
  -4   3  -2   23.03    2.28
   4  -3   3 1346.33   26.95
  -4   3  -3 1250.44   23.83
  -4   3  -3 1304.82   25.02
   4  -3   4 3260.14   62.36
  -4   3  -4 2982.55   55.83
  -4   3  -4 3257.28   61.07
   4  -3   5  732.98   15.44
  -4   3  -5  750.17   15.95
  -4   3  -5  693.68   12.89
  -4   3  -5  689.98   12.87
   4  -3   6   15.50    4.16
  -4   3  -6    1.80    2.43
   4  -3   7  150.31    9.97
  -4   3  -7  161.69   11.32
   4  -3   8  167.40    9.76
  -4   3  -8  174.64   10.44
   4  -3   9  302.17   10.86
  -4   3  -9  286.25   14.51
   4  -3  10   72.90    3.56
  -4   3 -10   71.62    8.37
   4  -3  11  408.46    9.32
  -4   3 -11  397.20   10.16
  -4   3 -12  594.13  160.79
  -4   3 -13   22.64    4.53
  -4   2  10   20.16    5.40
   4  -2 -10   20.04    6.52
   4  -2  -9    9.33    2.86
  -4   2   9   10.33    3.99
   4  -2  -9    7.26    3.76
   4  -2  -8  112.90    7.37
  -4   2   8  102.69    7.60
   4  -2  -8  122.53    8.36
   4  -2  -7   15.82    3.50
  -4   2   7   14.50    3.51
   4  -2  -7   18.23    3.71
   4  -2  -6   16.27    2.70
  -4   2   6   11.33    2.41
   4  -2  -6   13.70    3.10
   4  -2  -5  167.32   11.25
  -4   2   5  167.65   12.03
   4  -2  -5  180.88   15.47
   4  -2  -4  448.24   12.06
  -4   2   4  471.44   13.31
   4  -2  -4  481.42   13.08
   4  -2  -3  151.88    8.61
  -4   2   3  155.14    8.98
   4  -2  -3  151.87    8.39
   4  -2  -2  673.61   14.52
  -4   2   2  778.67   16.79
   4  -2  -2  786.02   16.37
   4  -2  -1 1050.02   16.35
  -4   2   1 1039.74   16.46
  -4   2   1 1094.19   16.54
   4  -2   0  347.31    7.41
  -4   2   0  346.05    7.27
  -4   2   0  332.77   17.26
   4  -2   1  399.68   16.79
  -4   2  -1  418.08   17.74
  -4   2  -1  366.73   14.95
  -4   2  -1  407.10   16.85
   4  -2   2  481.76    8.90
  -4   2  -2  467.59    8.85
  -4   2  -2  454.21   23.43
  -4   2  -2  481.20    8.06
   4  -2   3  301.85   12.89
  -4   2  -3  331.71   14.46
  -4   2  -3  299.83   12.27
  -4   2  -3  335.07   13.84
   4  -2   4  383.88    7.55
  -4   2  -4  400.57    8.66
  -4   2  -4  348.56    5.31
  -4   2  -4  392.35    6.19
   4  -2   5  544.31    9.28
  -4   2  -5  507.85    7.46
   4  -2   5  501.29    7.33
   4  -2   6 1767.29   34.24
  -4   2  -6 1840.53   36.10
  -4   2  -6 1694.29   31.95
   4  -2   6 1686.09   31.79
   4  -2   7 2149.06   40.57
  -4   2  -7 2110.60   40.41
  -4   2  -7 1981.45   36.57
   4  -2   7 2036.10   37.61
   4  -2   8  219.11    6.21
  -4   2  -8  213.00   17.94
  -4   2  -8  200.80    4.65
   4  -2   8  200.37    4.72
   4  -2   9   35.06    3.73
  -4   2  -9   32.52    4.23
  -4   2  -9   20.88    3.53
   4  -2   9   22.69    2.21
   4  -2  10    4.33    1.65
  -4   2 -10    2.37    1.40
  -4   2 -10    0.10    0.53
   4  -2  11   22.61    2.96
  -4   2 -11   22.43    3.56
  -4   2 -12   -4.73    2.47
  -4   2 -13   78.86   13.22
   4  -1 -10  198.36    9.41
  -4   1  10  183.65    9.92
   4  -1  -9   46.73    7.25
  -4   1   9   59.74    6.20
   4  -1  -9   48.67    4.93
   4  -1  -8   12.90    3.50
  -4   1   8   10.48    2.44
   4  -1  -8   18.16    4.07
   4  -1  -7    2.83    3.02
  -4   1   7    8.37    3.55
   4  -1  -7    7.67    4.21
   4  -1  -6   27.20    4.33
  -4   1   6   15.15    2.53
   4  -1  -6   31.56    4.65
   4  -1  -5  213.23   13.88
  -4   1   5  214.33   14.02
   4  -1  -5  227.85    7.72
   4  -1  -4  157.70    8.81
  -4   1   4  148.35    8.94
   4  -1  -4  148.19    8.67
   4  -1  -3  290.34    7.95
  -4   1   3  275.56   21.59
  -4   1   3  284.12    7.71
  -4   1   2  501.72    9.56
  -4   1   2  505.30    9.64
   4  -1  -1  120.16    6.28
  -4   1   1  128.38    6.44
  -4   1   1  146.25    6.89
   4  -1   0   11.42    1.82
  -4   1   0   10.13    1.86
  -4   1   0   12.46    1.48
  -4   1   0   14.17    1.94
   4  -1   1 1557.16   23.34
  -4   1  -1 1413.26   21.12
  -4   1  -1 1566.57   23.05
   4  -1   2 3835.29   54.51
  -4   1  -2 3983.13  203.69
  -4   1  -2 3604.26   50.59
  -4   1  -2 3782.25   53.32
   4  -1   3  225.34    9.92
  -4   1  -3  246.05   10.77
  -4   1  -3  244.06   10.29
   4  -1   3  220.97    9.25
   4  -1   4   91.99    4.77
  -4   1  -4   90.36    4.46
  -4   1  -4   91.79    5.39
  -4   1  -4   99.72    4.81
   4  -1   4   93.40    4.32
   4  -1   5  170.21    9.28
  -4   1  -5  175.12    9.50
  -4   1  -5  185.06   10.58
  -4   1  -5  170.74    9.15
   4  -1   5  168.33    8.95
   4  -1   6 1724.55   24.13
  -4   1  -6 1592.31   22.32
  -4   1  -6 1780.85   25.76
  -4   1  -6 1670.66   22.98
   4  -1   6 1638.16   22.45
   4  -1   7  406.75    8.81
  -4   1  -7  363.49    7.83
  -4   1  -7  408.04    8.51
   4  -1   7  381.91    7.95
   4  -1   8  289.04    7.66
  -4   1  -8  256.10    6.65
  -4   1  -8  283.00    8.69
  -4   1  -8  284.94    7.29
   4  -1   8  273.28    6.98
   4  -1   9  561.24   12.43
  -4   1  -9  521.12   11.46
  -4   1  -9  544.57   19.29
  -4   1  -9  567.12   12.58
   4  -1   9  509.44   11.33
  -4   1 -10  539.78   20.10
  -4   1 -10  490.09   16.35
  -4   1 -11  242.34    9.74
  -4   1 -11  228.18    9.55
  -4   1 -12    4.22    1.53
  -4   1 -12    4.38    1.06
  -4   1 -13   23.05    4.06
  -4   1 -14   13.06    2.41
   4   0 -11    2.89    1.44
  -4   0  11    7.80    4.08
  -4   0  11   -2.41    3.39
   4   0 -10  235.53   15.13
  -4   0  10  253.46   11.97
  -4   0  10  259.55   12.68
   4   0  -9   11.82    2.91
  -4   0   9    5.12    3.75
  -4   0   9   11.58    3.69
   4   0  -8    6.56    1.96
  -4   0   8   18.60    4.53
  -4   0   8   23.69    5.55
   4   0  -7  394.66   14.08
  -4   0   7  427.91   15.80
  -4   0   7  410.99   15.54
   4   0  -6  691.23   16.15
  -4   0   6  686.80   16.15
  -4   0   6  659.56   15.99
   4   0  -5    6.58    1.89
  -4   0   5    1.11    2.51
  -4   0   5    4.47    3.11
   4   0  -4  305.97    8.07
  -4   0   4  295.20    8.13
  -4   0   4  298.01    8.26
   4   0  -3  360.29    7.18
  -4   0   3  343.09    6.98
  -4   0   3  363.46    8.31
  -4   0   2 1390.42   21.12
  -4   0   2 1387.86   21.23
   4   0  -1 1217.90   18.79
  -4   0   1 1156.38   17.64
   4   0  -1 1073.54   16.30
  -4   0   1 1197.34   18.44
  -4   0   0  815.45    7.47
   4   0   1  869.33    8.75
  -4   0  -1  852.66    8.31
   4   0   1  795.84    7.45
  -4   0  -2  297.42    4.04
  -4   0  -2  330.34    5.12
   4   0   2  303.61    4.36
   4   0   2  316.32    4.30
   4   0   3 1122.69    9.88
  -4   0  -3 1131.64    9.82
  -4   0  -3 1134.46   10.90
  -4   0  -3 1139.71    9.89
   4   0   3 1094.50    9.35
   4   0   4 1956.17   28.17
  -4   0  -4 1921.22   27.65
  -4   0  -4 2038.30   29.86
  -4   0  -4 2036.88   29.30
   4   0   4 1855.06   26.59
   4   0   5 1219.79   18.02
  -4   0  -5 1175.37   17.32
  -4   0  -5 1203.41   18.49
  -4   0  -5 1200.95   17.82
   4   0   5 1129.15   16.64
   4   0   6  284.79   14.94
  -4   0  -6  256.26   13.45
  -4   0  -6  230.15   12.79
  -4   0  -6  259.30   13.66
   4   0   6  252.69   13.28
   4   0   7  296.64    6.44
  -4   0  -7  264.95   13.54
  -4   0  -7  307.35    8.12
  -4   0  -7  311.93    7.06
   4   0   7  298.63    6.66
   4   0   8  212.57   10.67
  -4   0  -8  191.96    9.62
  -4   0  -8  227.04   13.92
  -4   0  -8  206.29   10.66
   4   0   8  184.39    9.52
   4   0   9  103.28    6.39
   4   0   9  118.76    7.41
  -4   0  -9  124.47    8.18
   4   0  10    3.27    0.45
   4   0  10    3.03    0.65
  -4   0 -10   13.53    2.71
  -4   0 -10    5.51    1.80
  -4   0 -11   24.81    3.69
  -4   0 -11   25.77    3.44
  -4   0 -12  464.15   20.35
  -4   0 -12  487.43   10.54
  -4   0 -13  409.74   13.60
  -4   0 -13  375.78   12.11
  -4   0 -14   20.39    4.47
   4   1 -11   37.75    9.38
  -4  -1  11   57.31    7.44
  -4  -1  11   45.99    6.45
   4   1 -10   11.35    2.45
  -4  -1  10   18.30    4.54
  -4  -1  10   18.50    3.62
   4   1  -9    5.39    2.21
  -4  -1   9    1.54    2.41
  -4  -1   9    7.29    4.81
   4   1  -8    9.34    1.81
  -4  -1   8    9.29    3.58
  -4  -1   8    2.02    3.38
   4   1  -7  361.86   11.12
  -4  -1   7  341.27   10.59
  -4  -1   7  332.68   22.88
   4   1  -6  494.03   12.51
  -4  -1   6  506.67   12.22
  -4  -1   6  499.89   12.78
   4   1  -5  540.54   11.92
  -4  -1   5  568.19   12.20
  -4  -1   5  582.30   13.46
   4   1  -4   15.69    2.13
  -4  -1   4    9.89    1.91
  -4  -1   4   23.66    3.23
   4   1  -3  270.33   14.70
  -4  -1   3  259.46   13.86
   4   1  -3  222.55   11.77
  -4  -1   3  256.19   14.50
   4   1  -2  121.72    6.39
  -4  -1   2  130.11    6.24
   4   1  -2  104.97    4.83
  -4  -1   2  125.13    6.28
   4   1  -1 1739.46   13.67
   4   1   1  181.39    3.55
  -4  -1  -1  155.07    3.02
  -4  -1  -1  184.63    3.71
   4   1   1  163.94    3.14
  -4  -1  -1  173.68    3.81
   4   1   1  154.76    3.40
  -4  -1  -2  587.12    5.97
   4   1   2  593.01    6.23
  -4  -1  -2  633.02    7.00
   4   1   2  609.99    6.31
  -4  -1  -3  456.89    5.46
   4   1   3  439.09    5.39
  -4  -1  -3  467.58    5.77
   4   1   3  444.93    5.23
   4   1   4  225.54    3.60
  -4  -1  -4  229.57    3.30
  -4  -1  -4  222.51    3.90
   4   1   4  223.52    3.60
   4   1   5  830.64   12.42
  -4  -1  -5  842.90   12.57
  -4  -1  -5  837.63   15.88
  -4  -1  -5  845.55   13.13
   4   1   6  586.41    8.58
  -4  -1  -6  568.53    8.36
  -4  -1  -6  576.66    9.74
  -4  -1  -6  565.99    9.12
   4   1   6  534.19    8.38
   4   1   7 2699.47   50.60
  -4  -1  -7 2565.59   48.12
  -4  -1  -7 2840.90   54.79
  -4  -1  -7 2682.52   51.15
   4   1   8  647.21   12.04
  -4  -1  -8  668.91   14.12
  -4  -1  -8  692.44   14.14
  -4  -1  -9  171.24   13.73
  -4  -1  -9  161.25   12.14
  -4  -1 -10  243.56   13.70
  -4  -1 -10  240.58   13.27
  -4  -1 -11  122.06   11.88
  -4  -1 -11  102.79    5.50
  -4  -1 -12    4.36    2.52
  -4  -1 -12    1.60    0.85
  -4  -1 -13    8.05    2.53
  -4  -1 -13   18.73    3.96
   4   1  14   39.97    6.85
  -4  -1 -14   26.79    6.01
   4   2 -11   15.43    5.50
  -4  -2  11   11.15    3.77
  -4  -2  11    6.06    3.56
   4   2 -10   54.52    9.54
  -4  -2  10   57.25    7.39
   4   2  -9  190.01    6.44
  -4  -2   9  163.36    5.47
  -4  -2   9  174.49    6.77
   4   2  -8  716.30   20.84
  -4  -2   8  725.00   19.12
  -4  -2   8  733.50   20.21
   4   2  -7   16.15    3.02
  -4  -2   7   13.45    2.17
  -4  -2   7   11.25    2.41
   4   2  -6    6.75    1.44
  -4  -2   6   10.44    3.01
  -4  -2   6    6.97    3.42
   4   2  -5  252.87   13.18
  -4  -2   5  242.83   12.68
   4   2  -5  207.46   10.63
  -4  -2   5  249.07   13.75
   4   2  -4  160.01    9.53
  -4  -2   4  159.48    8.60
   4   2  -4  154.59    8.21
  -4  -2   4  172.69   10.19
   4   2  -3  120.56   12.76
  -4  -2   3  128.67    7.29
   4   2  -3  113.13    6.26
  -4  -2   3  124.19    7.52
   4   2  -2  200.90    8.93
  -4  -2   2  220.30    9.33
   4   2  -2  172.08    7.26
  -4  -2   2  217.80    9.87
   4   2  -1 1646.07   13.82
  -4  -2   1 1635.58   12.65
   4   2  -1 1602.33   12.34
  -4  -2   1 1637.79   14.30
   4   2   0 2741.87   20.75
  -4  -2   0 2660.48   19.28
   4   2   0 2641.78   19.03
  -4  -2   0 2620.39   20.39
   4   2   2  756.24    7.30
  -4  -2  -2  708.35    6.68
  -4  -2  -2  726.77    6.89
   4   2   2  700.79    6.63
   4   2   3    7.53    1.21
  -4  -2  -3   15.34    1.18
  -4  -2  -3   10.08    1.38
   4   2   3   15.01    1.47
  -4  -2  -3    7.60    1.59
   4   2   3    4.70    0.98
   4   2   4  447.96    4.83
  -4  -2  -4  429.70    4.45
   4   2   4  393.84    4.80
  -4  -2  -4  427.88    5.67
   4   2   4  403.63    5.11
   4   2   5  236.03    9.77
  -4  -2  -5  219.34    9.03
  -4  -2  -5  240.51   10.35
  -4  -2  -5  217.82    9.55
   4   2   6  639.81    9.20
  -4  -2  -6  680.68    9.65
  -4  -2  -6  684.12   12.03
  -4  -2  -6  659.59   10.75
   4   2   7  275.87   21.05
  -4  -2  -7  279.69    5.47
  -4  -2  -7  270.52   15.33
  -4  -2  -7  286.32    7.27
  -4  -2  -8    7.77    1.73
  -4  -2  -9  206.45   17.06
  -4  -2  -9  189.39    6.17
  -4  -2 -10  940.70   26.01
  -4  -2 -10  951.57   26.18
  -4  -2 -11  332.56   12.34
  -4  -2 -11  357.68   13.10
  -4  -2 -12    1.08    1.05
   4   2  13    3.25    3.26
  -4  -2 -13    4.72    1.69
   4   2  14   20.15    5.12
  -4  -2 -14   18.04    4.75
   4   3 -11    3.67    1.74
  -4  -3  11   11.90    4.42
   4   3 -10   63.79   10.27
  -4  -3  10   62.66    6.17
  -4  -3  10   69.16    8.25
   4   3  -9  168.78    5.72
  -4  -3   9  160.58    5.45
  -4  -3   9  167.16    6.60
   4   3  -8   60.27    8.70
  -4  -3   8   53.25    3.24
  -4  -3   8   57.79    5.94
   4   3  -7  547.99   20.23
  -4  -3   7  571.70   19.14
  -4  -3   7  579.01   20.57
   4   3  -6  771.44   17.61
  -4  -3   6  627.81   13.61
  -4  -3   6  754.47   16.63
  -4  -3   6  793.60   19.35
   4   3  -5    3.66    1.98
  -4  -3   5    5.66    0.94
  -4  -3   5    7.20    1.36
  -4  -3   5    2.10    3.18
   4   3  -4   36.78    4.84
  -4  -3   4   37.54    2.88
   4   3  -4   27.03    1.98
  -4  -3   4   34.82    3.88
  -4  -3   3  115.09    6.23
   4   3  -3  105.31    5.70
  -4  -3   3  131.27    8.16
   4   3  -2  521.89    9.23
  -4  -3   2  514.72    7.92
   4   3  -2  495.13    7.52
  -4  -3   2  564.72   10.73
   4   3  -1 1747.01   25.78
  -4  -3   1 1680.50   23.86
   4   3  -1 1567.93   22.24
  -4  -3   1 1785.04   26.68
   4   3   0  124.59   11.40
  -4  -3   0  103.87    2.20
   4   3   0   94.49    1.92
  -4  -3   0  101.55    3.52
  -4  -3  -1  909.00    8.12
  -4  -3  -1  970.16    7.91
   4   3   1  883.52    7.37
   4   3   2 1747.06   13.70
  -4  -3  -2 1670.36   12.99
   4   3   2 1754.29   13.33
  -4  -3  -3  900.40    7.72
  -4  -3  -3  940.42   10.05
   4   3   3  885.87    7.77
   4   3   4 1034.87   15.57
  -4  -3  -4 1017.32   14.87
  -4  -3  -4 1093.42   16.40
   4   3   4  976.26   14.64
  -4  -3  -4 1053.08   16.42
   4   3   5 2901.56   40.70
  -4  -3  -5 2770.96   38.88
  -4  -3  -5 2922.23   41.79
  -4  -3  -5 2929.85   42.21
   4   3   6  198.31   10.30
  -4  -3  -6  194.66   10.12
  -4  -3  -6  220.63   11.96
  -4  -3  -6  227.84   12.37
  -4  -3  -7  158.72    7.97
  -4  -3  -7  178.01    8.94
  -4  -3  -7  199.08   15.33
  -4  -3  -7  187.83   10.30
  -4  -3  -8  570.90   13.03
  -4  -3  -8  553.46   12.29
  -4  -3  -9  133.26    9.35
  -4  -3  -9  130.52    8.97
  -4  -3 -10   47.64    4.75
  -4  -3 -10   38.98    4.31
   4   3  11   27.38    4.77
  -4  -3 -11   20.66    3.42
   4   3  12  188.30    6.88
  -4  -3 -12  216.29    7.11
   4   3  13  152.06   10.25
  -4  -3 -13  134.49    7.43
   4   3  14    5.17    3.62
  -4  -3 -14    5.13    2.35
   4   4 -11  101.48    6.77
  -4  -4  11   97.85    7.27
   4   4 -10    6.05    2.34
  -4  -4  10   11.77    2.78
   4   4  -9   21.52    3.98
  -4  -4   9   20.98    3.34
  -4  -4   9   20.60    3.68
   4   4  -8  129.77   12.00
  -4  -4   8  126.35    4.71
  -4  -4   8  143.87   17.25
   4   4  -7  178.81    8.52
  -4  -4   7  160.83    7.19
  -4  -4   7  157.94    8.16
   4   4  -6  227.50    6.75
  -4  -4   6  194.08    4.66
  -4  -4   6  222.45    5.78
  -4  -4   6  236.92    7.68
   4   4  -5  400.45   14.27
  -4  -4   5  365.09    8.60
  -4  -4   5  396.07    9.56
  -4  -4   5  387.64   11.07
   4   4  -4  933.52   19.39
  -4  -4   4  876.96   16.65
  -4  -4   4  938.38   17.93
  -4  -4   4  977.14   20.26
  -4  -4   3  995.23   13.39
  -4  -4   3 1027.48   13.92
  -4  -4   3 1071.29   16.71
   4   4  -2  869.91   16.15
  -4  -4   2  847.30   11.38
   4   4  -2  846.86   11.38
  -4  -4   2  902.84   14.65
   4   4  -1  105.11    9.89
  -4  -4   1   91.64    3.79
   4   4  -1   89.82    3.76
  -4  -4   1   93.74    6.08
  -4  -4   0  501.78    7.42
   4   4   0  487.48    7.31
  -4  -4   0  474.75    8.87
  -4  -4  -1   69.09    4.53
   4   4   1   73.30    3.31
  -4  -4  -1   73.94    4.20
   4   4   2 1993.79   28.84
  -4  -4  -2 1826.37   26.29
  -4  -4  -2 1957.65   27.89
   4   4   2 1856.60   26.41
   4   4   3 2637.52   37.72
  -4  -4  -3 2471.46   35.08
  -4  -4  -3 2590.13   36.85
   4   4   3 2458.37   34.87
  -4  -4  -3 2535.08   36.83
   4   4   4  639.62    9.79
  -4  -4  -4  682.39   10.37
  -4  -4  -4  713.83   11.24
   4   4   4  635.36   10.01
  -4  -4  -4  709.09   12.17
  -4  -4  -5  511.96    7.67
  -4  -4  -5  512.17   10.30
  -4  -4  -5  495.76    8.82
  -4  -4  -6   38.30    2.26
  -4  -4  -6   40.63    2.51
  -4  -4  -6   43.46    3.36
  -4  -4  -6   44.83    3.88
  -4  -4  -7    7.55    0.80
  -4  -4  -7    8.33    0.88
  -4  -4  -7   11.55    2.65
  -4  -4  -8 1280.16   30.16
  -4  -4  -8 1353.83   32.11
   4   4   9  305.64   17.25
  -4  -4  -9  316.99   17.72
   4   4  10   70.08    5.20
  -4  -4 -10   72.45    5.39
   4   4  11    6.88    4.71
  -4  -4 -11    1.38    2.53
   4   4  12   40.42    4.78
  -4  -4 -12   55.67    5.11
   4   4  13  117.76    7.44
  -4  -4 -13  153.47   18.58
   4   5 -10   51.73    5.17
  -4  -5  10   57.94    6.02
   4   5  -9  288.56   11.22
  -4  -5   9  246.70   10.30
   4   5  -8   71.60    4.49
  -4  -5   8   83.27    6.64
   4   5  -7   19.29    3.55
  -4  -5   7   14.15    2.15
  -4  -5   7   15.20    3.66
   4   5  -6    5.87    3.03
  -4  -5   6    1.89    0.54
  -4  -5   6    4.34    1.03
  -4  -5   6    6.64    4.89
   4   5  -5   85.21   10.88
  -4  -5   5   77.93    4.76
  -4  -5   5   81.31    7.05
   4   5  -4  290.63   15.09
  -4  -5   4  286.78   15.02
   4   5  -3  426.08    9.93
  -4  -5   3  401.71    9.89
   4   5  -2  408.42    7.69
  -4  -5   2  406.06    8.14
   4   5  -1  689.27   12.78
  -4  -5   1  668.95   11.66
   4   5   0  838.50   12.90
   4   5   0  856.03   11.67
   4   5   0  874.46   12.43
  -4  -5   0  866.67   14.26
   4   5   1 1467.36   21.75
   4   5   1 1463.91   20.79
   4   5   1 1535.60   21.85
  -4  -5  -1 1515.89   23.22
   4   5   2   13.51    1.08
   4   5   2   14.58    1.77
  -4  -5  -2   15.83    2.83
   4   5   3 3919.67  195.71
  -4  -5  -3 3533.77   47.63
   4   5   3 3659.61   49.12
   4   5   3 3842.55  191.84
  -4  -5  -3 3909.17  195.41
  -4  -5  -4  457.63    7.80
  -4  -5  -4  495.60    8.05
   4   5   4  463.59    7.96
  -4  -5  -4  515.50    9.70
  -4  -5  -5  140.69    7.38
  -4  -5  -5  141.47    7.62
   4   5   5  136.76    8.00
  -4  -5  -5  142.30    8.15
  -4  -5  -6  374.78    7.62
  -4  -5  -6  380.65    7.86
   4   5   6  381.00    9.47
  -4  -5  -7  387.94    9.15
  -4  -5  -7  396.68    9.48
   4   5   7  398.53   10.90
  -4  -5  -7  410.36   11.76
  -4  -5  -8   27.57    1.81
  -4  -5  -8   32.24    2.17
   4   5   8   32.13    4.32
  -4  -5  -8   40.12    3.96
   4   5   9   10.76    3.16
  -4  -5  -9    8.19    3.66
   4   5  10  127.50    6.52
  -4  -5 -10   96.16    5.07
   4   5  11  816.14  135.61
  -4  -5 -11  720.99   15.86
  -4  -5 -12   13.13    4.00
   4   5  13    3.99    3.28
  -4  -5 -13   14.48    5.18
  -4  -6  10   17.60    6.04
  -4  -6  10   18.11    6.22
  -4  -6   9  115.52    7.29
  -4  -6   9  127.39    7.41
   4   6  -8   22.45    4.68
  -4  -6   8   21.37    4.17
   4   6  -7  104.49    5.31
  -4  -6   7  104.92    5.54
   4   6  -6  426.26   15.42
  -4  -6   6  410.66   15.32
   4   6  -5  416.89   12.61
  -4  -6   5  447.33   13.97
  -4  -6   4  381.31   10.32
   4   6  -3   72.69    6.54
  -4  -6   3   54.50    5.36
   4   6  -2  781.23   16.06
  -4  -6   2  790.51   16.52
   4   6  -1  470.01   10.87
  -4  -6   1  466.22   10.73
   4   6   0   77.71    4.83
   4   6   0   74.42    3.87
   4   6   0   73.82    3.85
  -4  -6   0   79.25    5.89
  -4  -6  -1  749.17   15.55
   4   6   1  714.44   13.76
   4   6   1  727.05   14.13
  -4  -6  -1  735.78   15.64
  -4  -6  -2  698.94   14.75
   4   6   2  664.69   13.06
   4   6   2  676.62   13.43
  -4  -6  -2  702.56   15.05
  -4  -6  -3  121.42    6.91
   4   6   3  110.58    6.85
   4   6   3  129.25    7.26
  -4  -6  -3  128.02    7.73
  -4  -6  -4   53.90    3.65
   4   6   4   46.11    3.72
  -4  -6  -4   48.88    3.93
  -4  -6  -5  276.88   13.84
  -4  -6  -5  307.07   15.59
   4   6   5  306.17   15.85
  -4  -6  -5  301.25   15.76
  -4  -6  -6  696.04   16.23
  -4  -6  -6  800.87   18.87
   4   6   6  820.36   20.02
  -4  -6  -6  817.03   20.20
  -4  -6  -7   97.77    6.67
  -4  -6  -7  120.38    7.65
   4   6   7  129.16    9.27
  -4  -6  -7  116.19    8.20
  -4  -6  -8    5.69    1.43
   4   6   8    2.12    2.69
   4   6   9    8.01    3.37
  -4  -6  -9    8.15    3.74
   4   6  10   51.08    4.63
  -4  -6 -10   50.18    4.32
   4   6  11   18.45    4.55
  -4  -6 -11   22.52    4.54
   4   6  12    6.11    3.68
  -4  -6 -12    2.60    2.74
   4   6  13   57.30    5.27
  -4  -6 -13   54.69    8.19
  -4  -7   9   17.03    3.99
  -4  -7   9    0.50    2.30
  -4  -7   8    3.28    3.11
  -4  -7   8   11.49    3.62
  -4  -7   7   10.94    4.94
  -4  -7   7    5.10    2.69
  -4  -7   6  109.26    6.85
  -4  -7   6  138.86    6.75
  -4  -7   5   71.39    5.89
  -4  -7   5   71.39    5.32
  -4  -7   4   36.21    4.65
  -4  -7   4   42.27    5.41
  -4  -7   3  608.82   15.11
  -4  -7   3  593.37   14.59
  -4  -7   2 1047.08   25.22
  -4  -7   2 1019.01   24.59
  -4  -7   1  563.57   14.64
  -4  -7   1  608.91   15.53
  -4  -7   0   39.47    4.38
   4   7   0   28.43    2.33
   4   7   0   34.61    2.85
  -4  -7   0   30.65    3.85
  -4  -7  -1  219.62   11.71
   4   7   1  212.08   10.54
   4   7   1  218.96   10.99
  -4  -7  -1  216.60   12.11
  -4  -7  -2  428.28    9.74
   4   7   2  387.62    7.88
   4   7   2  432.80    9.11
  -4  -7  -2  439.63   10.62
  -4  -7  -3    8.65    2.08
   4   7   3    4.33    0.85
   4   7   3    9.68    2.69
  -4  -7  -3    5.20    2.75
  -4  -7  -4  165.31   12.29
   4   7   4  168.10   12.55
  -4  -7  -4  168.46   13.06
  -4  -7  -5  335.85    8.37
   4   7   5  357.08    9.33
  -4  -7  -5  367.77   10.10
  -4  -7  -6  203.62   11.32
   4   7   6  191.51   10.89
  -4  -7  -6  202.49   11.95
  -4  -7  -7  146.06    6.73
   4   7   7  155.28    8.40
  -4  -7  -7  184.09    9.72
  -4  -7  -8   80.98    4.01
   4   7   8   69.16    5.49
  -4  -7  -8   98.17    7.26
   4   7   9  107.30    7.38
  -4  -7  -9  116.39    7.54
   4   7  10   20.02    4.47
  -4  -7 -10   19.66    5.22
   4   7  11    1.10    3.11
  -4  -7 -11    5.77    2.93
   4   7  12  158.28   10.58
  -4  -7 -12  173.16   10.96
  -4  -8   9   84.36    6.20
  -4  -8   9   82.78    5.68
  -4  -8   8  274.40   13.12
  -4  -8   8  278.20   12.74
  -4  -8   7   77.41    7.97
  -4  -8   7   65.18    6.61
  -4  -8   6   26.53    3.93
  -4  -8   6   33.92    4.20
  -4  -8   5   68.81    5.87
  -4  -8   5   72.59    4.09
  -4  -8   4  379.44   12.28
  -4  -8   4  358.94   10.69
  -4  -8   3  649.76   22.66
  -4  -8   3  691.66   23.49
  -4  -8   2   81.19    5.90
  -4  -8   2   92.81    6.15
  -4  -8   1 1318.68   36.02
  -4  -8   1 1221.90   33.26
  -4  -8   0  823.34   19.32
   4   8   0  724.25   15.20
   4   8   0  815.92   17.22
  -4  -8   0  821.71   19.14
  -4  -8  -1   30.20    3.54
   4   8   1   19.48    3.29
   4   8   1   40.38    3.05
  -4  -8  -1   31.81    3.66
  -4  -8  -2   18.74    2.78
   4   8   2   10.42    2.19
   4   8   2   21.87    2.45
  -4  -8  -2   23.16    3.22
   4   8   3   16.21    2.51
  -4  -8  -3   11.82    2.65
  -4  -8  -4  299.87   16.63
   4   8   4  273.25   14.86
  -4  -8  -4  309.03   17.37
  -4  -8  -5  432.16   14.97
   4   8   5  411.10   14.53
  -4  -8  -5  426.99   15.51
  -4  -8  -6   32.48    4.98
   4   8   6   26.53    4.62
  -4  -8  -6   44.67    5.78
  -4  -8  -7  276.41   10.28
   4   8   7  259.87   10.72
  -4  -8  -7  287.15   11.79
  -4  -8  -8   54.68    3.60
   4   8   8   43.49    4.05
  -4  -8  -8   45.71    5.19
   4   8   9    4.36    3.34
  -4  -8  -9    8.69    2.90
   4   8  10    3.31    3.19
  -4  -8 -10    6.95    3.85
   4   8  11    7.32    3.24
  -4  -9   8   55.49    5.29
  -4  -9   7   23.45    3.50
  -4  -9   6   56.41    6.67
  -4  -9   5  306.07   12.61
  -4  -9   5  309.14   11.29
  -4  -9   4   36.74    5.13
  -4  -9   4   29.12    4.30
  -4  -9   3  121.65    6.30
  -4  -9   3  116.87    6.11
  -4  -9   2   83.25    4.33
  -4  -9   1  250.81    8.65
  -4  -9   1  240.57    8.30
  -4  -9   0  302.04   10.30
   4   9   0  291.24    7.67
  -4  -9   0  293.02    9.24
  -4  -9  -1  257.94   12.02
   4   9   1  258.85   10.93
  -4  -9  -1  271.94   10.54
  -4  -9  -2  142.95    8.06
   4   9   2  122.62    6.01
  -4  -9  -2  144.35    8.24
  -4  -9  -3  352.44   10.88
   4   9   3  383.87   10.90
  -4  -9  -3  362.76   11.19
  -4  -9  -4   42.93    3.25
   4   9   4   41.17    3.38
  -4  -9  -4   61.65    4.56
  -4  -9  -5   97.82    5.11
   4   9   5   92.48    4.85
  -4  -9  -5   94.06    5.32
  -4  -9  -6   17.46    3.10
   4   9   6    7.45    2.71
  -4  -9  -6   22.72    5.09
  -4  -9  -7  182.57    7.33
   4   9   7  193.64    8.61
  -4  -9  -7  201.28    8.72
   4   9   8   26.66    4.53
  -4  -9  -8   29.43    4.78
   4   9   9   10.97    4.73
  -4  -9  -9    7.66    5.02
   4   9  10  105.36    8.07
  -4  -9 -10  112.28    8.40
  -4 -10   6    9.69    5.31
  -4 -10   6    7.16    2.75
  -4 -10   5   57.88    8.25
  -4 -10   5   46.00    4.90
  -4 -10   4  223.51    9.94
  -4 -10   4  218.95    8.37
  -4 -10   3   55.48    6.65
  -4 -10   3   46.14    4.38
  -4 -10   2  358.33   10.77
  -4 -10   2  332.50    8.40
  -4 -10   1   28.54    4.14
  -4 -10   1   25.72    3.23
  -4 -10   0   13.38    4.17
  -4 -10   0   15.33    3.10
  -4 -10  -1  104.39    6.65
  -4 -10  -1   85.70    5.24
  -4 -10  -2   18.72    4.35
   4  10   2   23.15    3.17
  -4 -10  -2   16.73    3.14
  -4 -10  -3  194.05    6.13
   4  10   3  202.79    5.84
  -4 -10  -3  202.89    7.19
  -4 -10  -4   13.46    3.73
   4  10   4    4.94    1.93
  -4 -10  -4    3.85    2.31
  -4 -10  -5  134.37    6.79
   4  10   5  109.80    8.28
  -4 -10  -5  123.26   10.13
  -4 -10  -6   70.37    7.04
   4  10   6   64.12    6.73
  -4 -10  -6   68.34    6.89
  -4 -10  -7   30.82    3.72
   4  10   7   17.21    3.69
  -4 -10  -7   22.61    3.76
   4  10   8    6.37    3.09
  -4 -10  -8   10.94    4.73
  -4 -11   5   10.72    5.69
  -4 -11   4  134.67    9.28
  -4 -11   4  120.61    7.67
  -4 -11   3    5.84    3.48
  -4 -11   3    1.45    1.90
  -4 -11   2   80.87    8.10
  -4 -11   2   82.01    7.56
  -4 -11   1   48.51    6.15
  -4 -11   1   49.96    5.45
  -4 -11   0   72.41    7.88
  -4 -11   0   87.69    8.74
  -4 -11  -1  136.36   12.71
  -4 -11  -1  116.57   11.19
  -4 -11  -2  116.69   11.26
  -4 -11  -2   99.26    9.62
  -4 -11  -3    6.88    3.01
  -4 -11  -3   11.44    2.94
  -4 -11  -4    8.93    3.75
   4  11   4    9.48    2.77
  -4 -11  -4    8.10    3.89
  -4 -11  -5   69.77   17.23
   4  11   5   75.96    5.51
  -4 -11  -5   81.95    6.16
  -4 -11  -6   32.87    4.46
   4  11   6   27.48    4.45
  -4 -11  -6   36.38    5.27
  -4 -12   1   11.30    4.92
  -4 -12   0   51.54    6.13
  -4 -12   0   26.82    3.52
  -4 -12  -1   53.86    5.01
  -4 -12  -1   55.99    5.28
  -4 -12  -2    4.89    3.03
  -4 -12  -2   11.81    3.02
  -4 -12  -3   16.94    4.19
  -4 -12  -3   12.06    2.72
   5  -8   0   35.33    6.36
  -5   8   0   23.48    5.76
   5  -8   1   86.00    7.99
  -5   8  -1   75.93    7.22
   5  -8   2   58.60    7.82
  -5   8  -2   43.18    6.24
   5  -8   3  114.84    8.91
  -5   8  -3  116.41    8.22
   5  -8   4   75.76    7.19
  -5   8  -4   45.63    6.46
   5  -8   5  202.18   12.98
  -5   8  -5  184.88   11.70
   5  -7  -3   18.19    5.76
  -5   7   3    7.49    3.97
   5  -7  -3   21.18    3.85
   5  -7  -2  297.14   14.55
   5  -7  -1   37.95    5.54
  -5   7   1   59.04    6.85
  -5   7   1   53.83    5.97
   5  -7   0    8.67    3.43
  -5   7   0   12.70    5.49
  -5   7   0    6.35    1.78
   5  -7   1   -1.52    3.00
  -5   7  -1    5.13    3.59
   5  -7   2  143.15    8.31
  -5   7  -2  146.26    8.10
   5  -7   3  369.24   12.97
  -5   7  -3  372.70   13.40
   5  -7   4    2.17    3.11
  -5   7  -4   15.01    4.06
   5  -7   5  228.03   11.35
  -5   7  -5  233.30   11.73
   5  -7   6  429.49   19.43
  -5   7  -6  474.33  114.62
   5  -7   7  139.77    9.42
  -5   7  -7  155.23   10.07
   5  -7   8   95.64    7.40
  -5   7  -8  118.12    8.88
   5  -6  -5    3.55    3.00
  -5   6   5   16.97    6.61
   5  -6  -5    6.99    3.73
   5  -6  -4   28.36    5.02
   5  -6  -4   19.60    3.58
   5  -6  -3   17.47    3.25
  -5   6   3   15.83    3.92
   5  -6  -3   21.89    4.12
   5  -6  -2   88.11    7.29
  -5   6   2  101.25    8.51
   5  -6  -1    6.17    3.35
  -5   6   1    5.02    3.15
  -5   6   0  276.49    7.11
   5  -6   1  360.79   13.16
  -5   6  -1  350.19   12.75
  -5   6  -1  338.26   10.97
   5  -6   2    5.80    3.21
  -5   6  -2   16.16    4.18
  -5   6  -2   10.69    1.99
   5  -6   3    6.07    4.32
  -5   6  -3   13.19    5.29
   5  -6   4  146.25    8.80
  -5   6  -4  134.59    7.57
   5  -6   5  326.31    9.99
  -5   6  -5  330.80    9.83
   5  -6   6  404.31   14.78
  -5   6  -6  419.49   15.44
   5  -6   7    2.97    3.05
  -5   6  -7    7.83    4.45
   5  -6   8  175.04    9.31
  -5   6  -8  217.08   11.12
   5  -6   9  287.08   13.38
  -5   6  -9  281.79   13.88
   5  -6  10  161.15    9.65
  -5   6 -10  151.38   23.72
   5  -5  -6   49.64    7.15
  -5   5   6   46.13    7.26
   5  -5  -6   26.41    4.28
   5  -5  -5    0.11    2.66
  -5   5   5    9.60    5.29
   5  -5  -5    0.23    2.51
   5  -5  -4  202.79    8.77
  -5   5   4  197.62   10.57
   5  -5  -4  195.31    8.37
   5  -5  -3   16.86    5.05
  -5   5   3    1.71    3.69
   5  -5  -3    5.52    2.36
   5  -5  -2   95.59    6.84
  -5   5   2   98.82    6.69
  -5   5   1  237.75   11.18
  -5   5   1  280.52   11.02
   5  -5   0  138.28    9.05
  -5   5   0  130.69    8.55
  -5   5   0  122.27    6.54
   5  -5   1   25.52    6.06
  -5   5  -1   30.08    5.81
  -5   5  -1   21.15    3.67
   5  -5   2  139.83    7.97
  -5   5  -2  148.24    8.61
  -5   5  -2  149.92    7.28
   5  -5   3  162.95    9.10
  -5   5  -3  138.72    7.68
  -5   5  -3  139.13    6.55
   5  -5   4  715.46   19.79
  -5   5  -4  710.53   19.70
  -5   5  -4  667.29   16.72
   5  -5   5  181.50    7.95
  -5   5  -5  200.53    9.63
   5  -5   6  155.34    7.78
  -5   5  -6  172.74    7.90
   5  -5   7   39.98    4.57
  -5   5  -7   32.37    5.12
   5  -5   8  411.70   14.65
  -5   5  -8  440.59   15.97
   5  -5   9  140.85    6.43
  -5   5  -9  140.71   20.62
   5  -5  10   11.78    2.79
  -5   5 -10    8.10    3.06
   5  -5  11  202.14   11.76
  -5   5 -11  177.86   24.64
   5  -4  -7    5.23    2.77
  -5   4   7   13.73    5.23
   5  -4  -7   10.96    4.60
   5  -4  -6   73.04    7.38
  -5   4   6   70.24    8.00
   5  -4  -6   66.76    7.37
   5  -4  -5   82.87    6.80
  -5   4   5   99.31    9.16
   5  -4  -5   88.00    7.01
   5  -4  -4   25.43    4.17
  -5   4   4   37.84    4.70
   5  -4  -4   32.71    5.80
   5  -4  -3   17.72    4.85
  -5   4   3   18.68    5.95
   5  -4  -2   13.44    2.80
  -5   4   2   12.60    3.71
  -5   4   2   13.42    3.22
  -5   4   1  578.64   21.00
  -5   4   1  557.51   19.48
   5  -4   0   29.53    4.18
  -5   4   0   37.50    5.05
  -5   4   0   43.55    4.54
   5  -4   1  323.40   22.47
  -5   4  -1  355.79   12.21
  -5   4  -1  332.05   22.57
   5  -4   2  135.48    9.03
  -5   4  -2  127.28    8.23
  -5   4  -2  129.90    7.49
   5  -4   3  234.86   13.56
  -5   4  -3  199.56   10.74
  -5   4  -3  236.16   12.83
   5  -4   4  465.90   14.66
  -5   4  -4  450.96   13.89
  -5   4  -4  469.47   12.88
   5  -4   5  198.86   11.65
  -5   4  -5  201.58   12.00
  -5   4  -5  199.63   10.54
   5  -4   6  264.63   35.66
  -5   4  -6  273.23   10.74
   5  -4   7  631.64   17.27
  -5   4  -7  660.61   18.50
   5  -4   8  297.60   11.37
  -5   4  -8  317.24   12.27
   5  -4   9   51.19    4.16
  -5   4  -9   65.08    6.02
   5  -4  10  225.28    8.51
  -5   4 -10  202.01   23.18
   5  -4  11  489.57  118.13
  -5   4 -11  452.73   22.86
  -5   4 -12   45.59    9.26
   5  -3  -8   62.31    8.14
  -5   3   8   51.02    7.93
   5  -3  -7   21.12    3.80
  -5   3   7   27.49    4.71
   5  -3  -7   37.14    5.90
   5  -3  -6  423.66   10.85
  -5   3   6  374.89   10.68
   5  -3  -6  385.93   10.97
   5  -3  -5   74.18    4.95
  -5   3   5   84.67    6.38
   5  -3  -5   83.85    5.54
   5  -3  -4   60.21    5.39
  -5   3   4   88.91    6.95
   5  -3  -3   30.40    3.90
  -5   3   3   28.49    4.86
  -5   3   3   21.44    3.39
   5  -3  -2   21.61    4.21
  -5   3   2   14.06    3.35
  -5   3   2   15.68    3.40
   5  -3  -1  488.41   12.82
  -5   3   1  487.65   13.03
  -5   3   1  494.25   12.39
   5  -3   0  565.29   15.01
  -5   3   0  608.63   15.99
  -5   3   0  632.21   16.00
   5  -3   1   16.41    3.08
  -5   3  -1   17.11    3.14
  -5   3  -1   23.13    3.24
   5  -3   2 1579.50   37.24
  -5   3  -2 1564.76   36.92
  -5   3  -2 1476.79   34.13
   5  -3   3 1190.26   28.52
  -5   3  -3 1172.40   28.18
  -5   3  -3 1027.46   23.64
  -5   3  -3 1148.99   26.72
   5  -3   4   63.45    6.28
  -5   3  -4   62.33    5.62
  -5   3  -4   41.28    3.91
  -5   3  -4   59.35    4.66
   5  -3   5   65.87    5.16
  -5   3  -5   63.14    4.07
  -5   3  -5   68.12    4.52
   5  -3   6  449.28   13.40
  -5   3  -6  427.72   13.40
  -5   3  -6  370.73    9.93
  -5   3  -6  405.74   10.83
   5  -3   7  191.35   11.05
  -5   3  -7  198.48   11.62
   5  -3   8  172.09    8.88
  -5   3  -8  178.04    9.43
   5  -3   9   81.36    4.19
  -5   3  -9   84.67    9.41
   5  -3  10  412.22    9.72
  -5   3 -10  404.27   10.35
   5  -3  11  147.21    5.55
  -5   3 -11  166.07   13.74
  -5   3 -12   61.59    9.54
  -5   3 -13   43.32    9.62
   5  -2  -9   12.78    4.40
  -5   2   9   12.83    4.68
  -5   2   9    2.31    3.43
   5  -2  -8   62.95    6.51
  -5   2   8   71.80    7.96
  -5   2   8   57.51    6.42
   5  -2  -7   25.34    4.94
  -5   2   7   35.40    4.81
  -5   2   7   20.52    5.08
   5  -2  -6  130.43    7.81
  -5   2   6  119.57    7.31
  -5   2   6  111.10    6.85
   5  -2  -5   79.87    5.78
  -5   2   5   60.47    5.49
  -5   2   5   84.79    6.01
   5  -2  -4    9.29    2.55
  -5   2   4    7.53    3.68
  -5   2   4    3.56    3.16
   5  -2  -3  267.69    7.97
  -5   2   3  275.12    8.85
  -5   2   3  252.10    8.33
   5  -2  -2  539.92   14.51
  -5   2   2  556.70   14.75
  -5   2   2  582.48   14.94
   5  -2  -1   29.22    3.76
  -5   2   1   25.87    3.91
  -5   2   1   27.88    3.68
   5  -2   0  216.48   11.83
  -5   2   0  211.50   11.58
  -5   2   0  217.44   11.79
   5  -2   1  144.84    8.43
  -5   2  -1  157.11    9.18
  -5   2  -1  140.63    8.21
   5  -2   2  361.24    8.86
  -5   2  -2  366.70    9.63
  -5   2  -2  289.55    6.33
  -5   2  -2  331.92    7.86
   5  -2   3  263.08   14.02
  -5   2  -3  263.24   14.23
  -5   2  -3  226.50   12.24
   5  -2   4 1059.84   21.19
  -5   2  -4  973.16   20.03
  -5   2  -4  947.30   18.00
  -5   2  -4 1084.02   20.80
   5  -2   5 1206.94   23.88
  -5   2  -5 1228.69   24.72
  -5   2  -5 1059.59   19.96
  -5   2  -5 1203.04   22.81
   5  -2   6  227.91    6.96
  -5   2  -6  206.59   13.55
  -5   2  -6  212.32   13.07
   5  -2   7   12.97    2.28
  -5   2  -7   13.01    1.26
   5  -2   7   12.81    1.32
   5  -2   8  944.33   25.67
  -5   2  -8  919.18   25.65
  -5   2  -8  825.05   21.78
   5  -2   9  757.60   19.68
  -5   2  -9  765.84   20.72
  -5   2  -9  693.26   17.22
   5  -2  10  350.98   12.35
  -5   2 -10  335.89   13.39
  -5   2 -11  374.98   10.10
  -5   2 -12  352.65   25.73
  -5   2 -13  218.57   23.70
   5  -1  -9   42.99    7.39
  -5   1   9   38.88    4.42
  -5   1   9   30.53    5.05
   5  -1  -8  130.94   12.14
  -5   1   8  125.50   12.26
  -5   1   8  108.59   10.63
   5  -1  -7  183.96    6.46
  -5   1   7  170.37    7.18
  -5   1   7  168.66    7.48
   5  -1  -6    6.93    3.65
  -5   1   6    5.34    3.35
  -5   1   6   14.47    4.95
   5  -1  -5    5.46    2.64
  -5   1   5    2.91    3.17
   5  -1  -4   66.58    6.05
  -5   1   4   62.77    5.69
  -5   1   4   64.34    6.56
   5  -1  -3  213.33   13.81
  -5   1   3  213.54   14.30
  -5   1   3  201.93   13.46
  -5   1   2   22.13    3.83
  -5   1   2   33.16    4.26
   5  -1  -1  525.26   11.91
  -5   1   1  528.39   12.14
  -5   1   1  536.21   12.22
   5  -1   0 1827.96   35.87
  -5   1   0 1853.67   36.28
  -5   1   0 1892.34   36.95
   5  -1   1  786.95   12.84
  -5   1  -1  828.02   13.70
  -5   1  -1  830.20   13.41
   5  -1   2  315.87   16.78
  -5   1  -2  323.74   17.06
  -5   1  -2  274.79   14.45
  -5   1  -2  287.52   15.35
   5  -1   3  487.59    8.77
  -5   1  -3  506.59    9.46
  -5   1  -3  447.37    7.17
  -5   1  -3  502.03    8.46
   5  -1   4   46.48    3.96
  -5   1  -4   51.79    4.59
  -5   1  -4   47.73    3.28
   5  -1   4   49.05    3.16
   5  -1   5    4.24    2.70
  -5   1  -5    5.58    1.70
   5  -1   5    4.08    0.76
   5  -1   6  914.29   18.13
  -5   1  -6  887.09   18.32
  -5   1  -6  925.95   17.98
   5  -1   6  849.43   16.39
   5  -1   7  375.30    9.67
  -5   1  -7  404.77   11.10
  -5   1  -7  394.49    9.78
   5  -1   7  347.50    8.58
   5  -1   8  110.52    7.36
  -5   1  -8  109.76   11.66
  -5   1  -8  110.48    7.13
   5  -1   8   99.96    6.52
   5  -1   9   34.95    3.11
  -5   1  -9   44.05    5.23
  -5   1  -9   31.24    2.69
   5  -1  10  554.99   14.31
  -5   1 -10  498.27   20.23
  -5   1 -10  511.53   13.20
  -5   1 -11  202.97    8.02
  -5   1 -11  184.93    7.36
  -5   1 -12  286.70   10.57
   5   0 -10   38.07    9.35
  -5   0  10   32.61    4.09
  -5   0  10   42.36    6.83
   5   0  -9   87.85   12.34
  -5   0   9  101.09    6.80
  -5   0   9  101.72    7.23
   5   0  -8   47.64    7.06
  -5   0   8   36.10    4.73
  -5   0   8   45.95    5.89
   5   0  -7    2.80    2.40
  -5   0   7    3.06    2.72
  -5   0   7    4.40    3.40
   5   0  -6   21.03    4.31
  -5   0   6   14.67    3.47
  -5   0   6    9.71    4.00
   5   0  -5  297.21   16.58
  -5   0   5  267.89   15.27
  -5   0   5  282.34   16.05
   5   0  -4  753.58   18.98
  -5   0   4  747.07   18.77
   5   0  -3  228.16   12.39
  -5   0   3  248.49   13.40
  -5   0   3  250.16   13.47
   5   0  -2   31.94    3.15
  -5   0   2   30.38    3.46
  -5   0   2   31.22    3.79
   5   0  -1  157.44    8.97
  -5   0   1  205.56   11.49
  -5   0   1  193.52   11.28
   5   0   0  317.98   16.85
  -5   0   0  313.05   16.58
  -5   0   0  321.73   17.07
   5   0   1    4.35    2.30
  -5   0  -1    3.01    2.17
  -5   0  -1    5.59    2.23
   5   0   2  670.25   11.17
  -5   0  -2  697.63   11.80
  -5   0  -2  726.96   11.64
   5   0   3  812.86   12.82
  -5   0  -3  824.53   13.29
  -5   0  -3  821.03   12.70
   5   0   3  709.99   10.91
   5   0   4 1125.62   16.68
  -5   0  -4 1125.57   17.06
  -5   0  -4 1169.95   17.16
   5   0   4 1031.50   14.95
   5   0   5 1997.35   28.01
  -5   0  -5 2231.26   31.71
  -5   0  -5 2166.06   30.03
   5   0   5 1953.83   27.00
   5   0   6  702.77   14.43
  -5   0  -6  658.97   13.36
  -5   0  -6  729.44   15.51
   5   0   6  636.97   12.88
   5   0   7   53.35    4.81
  -5   0  -7   44.56    3.90
  -5   0  -7   63.75    7.85
  -5   0  -7   51.21    4.50
   5   0   7   45.12    4.11
   5   0   8   57.24    4.61
  -5   0  -8   44.19    3.62
  -5   0  -8   63.98    7.36
  -5   0  -8   59.75    4.88
  -5   0  -9  781.39   20.76
  -5   0  -9 1041.04   28.73
  -5   0  -9  989.57   26.65
   5   0  10   39.63    2.24
  -5   0 -10   41.17    2.76
  -5   0 -11  475.98   16.21
  -5   0 -11  487.76   14.94
  -5   0 -12   50.55    8.95
  -5   0 -12   44.24    7.32
  -5   0 -13    2.62    1.84
  -5   0 -13    2.59    0.86
  -5   0 -14  137.14    9.16
   5   1 -10   80.25   14.77
  -5  -1  10   90.07    6.53
  -5  -1  10  122.79    9.67
   5   1  -9  120.77   15.29
  -5  -1   9  129.95    7.38
  -5  -1   9  145.63    9.32
   5   1  -8   89.67   14.69
  -5  -1   8   86.45    5.80
  -5  -1   8  118.44    9.01
   5   1  -7   81.54   10.31
  -5  -1   7   75.24    4.99
  -5  -1   7   91.57    6.08
   5   1  -6   33.54    5.09
  -5  -1   6   36.93    4.38
  -5  -1   6   24.36    3.92
   5   1  -5 1043.55   23.53
  -5  -1   5  964.44   21.53
  -5  -1   5  974.02   22.74
   5   1  -4   94.02    8.06
  -5  -1   4  102.56    8.71
  -5  -1   4   98.83    8.91
   5   1  -3 2208.51   42.27
  -5  -1   3 2232.45   42.27
  -5  -1   3 2235.48   42.94
   5   1  -2 3505.69  267.05
  -5  -1   2 3415.11   64.90
   5   1  -1 1798.72   26.02
  -5  -1   1 1714.01   24.49
  -5  -1   1 1762.21   25.74
   5   1   0   66.29    4.82
  -5  -1   0   59.96    4.07
  -5  -1   0   66.45    5.39
   5   1   1  154.33    7.24
  -5  -1  -1  150.36    7.08
  -5  -1  -1  149.20    7.04
   5   1   2  160.41    7.48
  -5  -1  -2  163.85    7.72
  -5  -1  -2  174.02    8.17
   5   1   3  600.49   10.15
  -5  -1  -3  622.01   10.61
  -5  -1  -3  606.67   10.59
   5   1   4  308.73   15.99
  -5  -1  -4  262.53   13.87
  -5  -1  -4  333.25   17.48
  -5  -1  -4  292.17   15.69
   5   1   5  159.54    8.69
  -5  -1  -5  155.18    8.45
  -5  -1  -5  160.49    9.34
  -5  -1  -5  147.28    8.28
   5   1   6 1701.64   32.59
  -5  -1  -6 1624.99   31.09
  -5  -1  -6 1650.09   32.38
  -5  -1  -6 1653.80   32.07
   5   1   7  601.04   11.87
  -5  -1  -7  571.44   11.35
  -5  -1  -7  554.26   13.32
  -5  -1  -7  569.18   11.96
   5   1   8  130.99    9.53
  -5  -1  -8  105.98    7.75
  -5  -1  -8  126.14   12.97
  -5  -1  -8  121.48    9.17
   5   1   9  486.44   12.94
  -5  -1  -9  461.28   12.26
  -5  -1  -9  509.98   15.30
  -5  -1  -9  531.55   15.07
  -5  -1 -10  129.80   11.35
  -5  -1 -10   99.63    5.27
  -5  -1 -11   81.17    6.07
  -5  -1 -11   82.08    4.13
  -5  -1 -12  154.31    6.29
  -5  -1 -13  105.76    7.40
  -5  -1 -13   98.16   11.00
  -5  -1 -14   68.23    6.41
  -5  -1 -14   40.86    9.02
   5   2 -10   -1.15    2.00
  -5  -2  10    3.77    1.99
  -5  -2  10    1.70    3.25
   5   2  -9    2.01    1.33
  -5  -2   9    7.47    2.67
   5   2  -8  303.68    8.12
  -5  -2   8  322.44    8.76
  -5  -2   8  316.11    9.83
   5   2  -7  119.01   14.25
  -5  -2   7  125.67    5.43
  -5  -2   7  130.58    7.44
   5   2  -6   97.13   11.94
  -5  -2   6  105.05    6.17
  -5  -2   6   96.21    6.27
   5   2  -5  238.07    7.36
  -5  -2   5  236.47    6.77
  -5  -2   5  229.68    7.74
   5   2  -4    5.82    1.65
  -5  -2   4    0.20    1.99
  -5  -2   4   12.35    5.25
  -5  -2   3  149.01    8.04
   5   2  -3  118.62    6.25
  -5  -2   3  149.74    9.24
   5   2  -2  252.82   13.77
  -5  -2   2  229.21   12.16
   5   2  -2  211.79   11.04
  -5  -2   2  252.68   14.40
   5   2  -1    9.76    3.20
  -5  -2   1    4.80    2.28
   5   2  -1    4.77    0.87
  -5  -2   1    1.02    2.88
   5   2   0 4049.76  207.10
  -5  -2   0 3863.86   54.58
   5   2   0 3722.75   52.51
   5   2   1 1108.75   17.29
  -5  -2  -1 1097.04   16.65
   5   2   1  989.33   15.01
  -5  -2  -1 1081.43   17.08
   5   2   2 1111.23   17.19
  -5  -2  -2 1064.40   16.20
   5   2   2  925.82   14.13
  -5  -2  -2 1034.30   16.27
   5   2   3  349.21   14.58
  -5  -2  -3  295.28   12.29
  -5  -2  -3  331.86   13.92
  -5  -2  -3  332.45   14.17
   5   2   4  624.88   10.20
  -5  -2  -4  508.98    8.32
  -5  -2  -4  573.53   10.31
  -5  -2  -4  588.61   10.34
   5   2   5    9.00    1.41
  -5  -2  -5    5.48    1.39
  -5  -2  -5   11.24    1.98
  -5  -2  -5   11.69    2.22
   5   2   6   37.17    2.67
  -5  -2  -6   36.10    2.39
  -5  -2  -6   42.89    5.47
  -5  -2  -6   38.88    3.02
   5   2   7  209.13   10.66
  -5  -2  -7  222.84   11.15
  -5  -2  -7  219.04   11.80
  -5  -2  -7  230.16   12.33
   5   2   8  624.63   14.43
  -5  -2  -8  648.39   14.89
  -5  -2  -8  695.27   17.66
  -5  -2  -8  692.07   17.06
  -5  -2  -9  814.65   22.86
  -5  -2  -9  791.13   22.01
  -5  -2 -10  273.82   14.58
  -5  -2 -10  255.20   11.58
  -5  -2 -11   12.91    2.98
  -5  -2 -11   19.88    2.96
  -5  -2 -12  309.53   12.17
  -5  -2 -12  275.09   10.55
  -5  -2 -13   40.80    5.50
  -5  -2 -13   29.10    4.22
  -5  -2 -14    6.78    2.51
   5   3 -10    6.32    2.00
  -5  -3  10   -0.16    3.29
   5   3  -9    4.77    2.84
  -5  -3   9    2.69    1.80
  -5  -3   9   10.95    3.55
   5   3  -8    6.57    2.99
  -5  -3   8    6.64    2.91
  -5  -3   8   11.14    4.99
   5   3  -7    8.76    2.69
  -5  -3   7    0.93    1.77
  -5  -3   7    4.31    3.39
   5   3  -6   48.55    5.88
  -5  -3   6   36.45    3.71
  -5  -3   6   36.85    4.41
   5   3  -5 2382.50  193.75
  -5  -3   5 2527.97  205.26
   5   3  -5 1501.43   31.56
  -5  -3   5 2433.30  197.94
   5   3  -4  606.78   19.27
  -5  -3   4  627.22   15.04
   5   3  -4  569.82   13.51
  -5  -3   4  654.92   17.18
  -5  -3   3  310.81   15.57
   5   3  -3  287.31   14.38
  -5  -3   3  322.07   23.83
   5   3  -2    6.89    2.19
  -5  -3   2    7.22    1.99
   5   3  -2    6.25    1.47
  -5  -3   2    0.78    2.53
   5   3  -1  125.15    9.00
  -5  -3   1  119.27    6.68
   5   3  -1  103.54    5.73
  -5  -3   1  107.75    6.96
   5   3   0   13.47    2.41
  -5  -3   0    7.69    1.39
   5   3   0    7.18    1.01
  -5  -3   0   18.09    3.93
   5   3   1   54.54    5.93
  -5  -3  -1   39.62    2.52
   5   3   1   42.21    2.40
  -5  -3  -1   33.87    3.18
   5   3   2  278.85   11.96
  -5  -3  -2  270.67   11.28
   5   3   2  244.05   10.22
  -5  -3  -2  282.50   12.26
   5   3   3 1254.81   20.39
  -5  -3  -3 1224.30   18.65
   5   3   3 1128.31   16.86
  -5  -3  -3 1243.58   19.41
   5   3   4 1317.46   18.69
  -5  -3  -4 1221.04   17.29
  -5  -3  -4 1334.06   19.37
  -5  -3  -4 1317.19   19.55
   5   3   5  647.53   10.21
  -5  -3  -5  597.29    8.98
  -5  -3  -5  657.24   13.77
  -5  -3  -5  658.42   10.90
   5   3   6   18.59    2.59
  -5  -3  -6   18.45    1.47
  -5  -3  -6   16.98    2.40
  -5  -3  -6    8.76    1.53
   5   3   7  260.55   13.03
  -5  -3  -7  287.23   14.22
  -5  -3  -7  289.79   16.58
  -5  -3  -7  285.79   15.00
  -5  -3  -8  477.23   10.89
  -5  -3  -8  475.58   10.84
  -5  -3  -8  497.38   13.08
  -5  -3  -8  489.57   12.90
  -5  -3  -9   11.91    2.67
  -5  -3  -9   14.62    2.98
  -5  -3 -10  236.13    8.62
  -5  -3 -10  240.24    7.91
  -5  -3 -11  364.05   12.42
  -5  -3 -11  375.64   12.62
  -5  -3 -12   13.54    3.46
  -5  -3 -12   10.39    2.80
   5   3  13    4.29    3.42
  -5  -3 -13    2.30    2.00
   5   3  14    7.68    4.25
  -5  -3 -14   12.03    1.89
  -5  -4  10   84.32    7.44
   5   4  -9   84.89   15.68
  -5  -4   9   95.73    7.50
   5   4  -8   48.63    7.23
  -5  -4   8   48.31    5.13
  -5  -4   7    6.56    1.79
  -5  -4   7    4.00    3.64
   5   4  -6  200.78   19.86
  -5  -4   6  179.69    7.89
  -5  -4   6  197.27   10.87
   5   4  -5  245.09   16.13
  -5  -4   5  226.97   12.02
  -5  -4   5  264.91   14.14
  -5  -4   5  265.32   15.53
   5   4  -4   38.07    4.57
  -5  -4   4   26.13    2.16
  -5  -4   4   30.58    2.58
  -5  -4   4   31.25    4.16
   5   4  -3  154.27   12.43
  -5  -4   3  148.56    7.56
   5   4  -3  140.95    7.12
  -5  -4   3  149.68    9.63
   5   4  -2 1251.54   26.53
  -5  -4   2 1389.79   26.38
   5   4  -2 1304.69   24.71
  -5  -4   2 1448.75   29.49
   5   4  -1 1056.40   16.03
  -5  -4   1 1026.97   14.25
   5   4  -1  978.89   13.61
  -5  -4   1 1065.70   17.00
   5   4   0 1187.66   17.67
  -5  -4   0 1206.83   16.66
   5   4   0 1221.27   16.96
  -5  -4   0 1274.04   19.47
   5   4   1   45.71    6.60
  -5  -4  -1   44.15    3.56
   5   4   1   38.64    2.44
  -5  -4  -1   37.59    3.68
   5   4   2   41.18    4.62
  -5  -4  -2   33.38    4.62
   5   4   2   24.30    2.06
  -5  -4  -2   33.61    3.43
   5   4   3  122.51    8.67
  -5  -4  -3  130.58   10.69
   5   4   3  119.95    6.68
   5   4   4    4.59    1.41
  -5  -4  -4    3.14    0.71
  -5  -4  -4    6.37    1.54
  -5  -4  -4    7.85    2.51
   5   4   5   64.18    5.17
  -5  -4  -5   60.28    3.46
  -5  -4  -5   72.81    9.04
  -5  -4  -5   65.02    4.88
   5   4   6  891.56   16.96
  -5  -4  -6  909.31   17.32
  -5  -4  -6  971.63   20.82
  -5  -4  -6  922.14   18.84
  -5  -4  -7 1056.64   24.09
  -5  -4  -7 1146.30   26.12
  -5  -4  -7 1162.55   29.91
  -5  -4  -7 1127.63   27.09
  -5  -4  -8  681.75   14.24
  -5  -4  -8  610.48   12.76
  -5  -4  -8  670.42   15.78
  -5  -4  -8  648.70   15.58
  -5  -4  -9   18.76    3.17
  -5  -4  -9   12.62    2.19
  -5  -4 -10  179.66    9.49
  -5  -4 -10  187.68    9.71
  -5  -4 -11    1.08    2.30
  -5  -4 -12  173.30    7.69
   5   4  13   24.77    4.34
  -5  -4 -13   26.93    3.62
   5   5 -10   25.87    4.16
  -5  -5  10   27.50    4.33
   5   5  -9   -0.37    2.15
  -5  -5   9    5.25    4.28
   5   5  -8   21.96    5.41
  -5  -5   8   30.83    4.78
   5   5  -7  507.60   17.23
  -5  -5   7  476.58   16.34
   5   5  -6  274.75    9.03
  -5  -5   6  262.87    9.36
   5   5  -5  222.86   10.60
  -5  -5   5  205.93    8.42
  -5  -5   5  223.82   11.01
   5   5  -4  102.01   10.40
  -5  -5   4  105.71    8.98
   5   5  -3   31.91    4.80
  -5  -5   3   25.45    4.11
   5   5  -2   24.50    3.79
  -5  -5   2   29.55    4.97
   5   5  -1    6.63    1.72
  -5  -5   1    1.43    0.29
  -5  -5   1    1.53    2.93
   5   5   0  256.65   13.64
  -5  -5   0  239.22   12.10
   5   5   0  247.92   12.57
  -5  -5   0  241.93   13.29
   5   5   1 1459.64   28.59
  -5  -5  -1 1418.11   26.90
   5   5   1 1356.14   25.86
  -5  -5  -1 1478.96   29.60
   5   5   2 1789.91   25.79
  -5  -5  -2 1694.09   23.58
   5   5   2 1630.38   22.50
  -5  -5  -2 1772.90   26.01
   5   5   3  658.02   14.90
  -5  -5  -3  681.77   13.70
   5   5   3  597.83   12.04
  -5  -5  -3  653.98   14.26
   5   5   4  261.57   13.62
  -5  -5  -4  291.78    7.00
  -5  -5  -4  262.11   14.15
   5   5   5   14.70    1.87
  -5  -5  -5   12.84    1.52
  -5  -5  -5   19.88    2.70
  -5  -5  -6  154.31    7.88
  -5  -5  -6  168.58    8.74
  -5  -5  -6  179.69   13.41
  -5  -5  -6  166.37   12.70
  -5  -5  -7   48.69    3.32
  -5  -5  -7   51.34    3.60
  -5  -5  -7   49.52    4.19
  -5  -5  -7   55.00    5.49
  -5  -5  -8    9.24    1.04
  -5  -5  -8    8.71    1.06
  -5  -5  -8   16.85    3.19
  -5  -5  -8   12.48    4.01
   5   5   9  643.62   17.84
  -5  -5  -9  701.87   19.38
   5   5  10  158.78    8.31
  -5  -5 -10  163.06    7.35
   5   5  11  124.01    9.10
  -5  -5 -11  120.64    7.53
   5   5  12   12.77    4.03
  -5  -5 -12   13.02    2.85
   5   5  13   35.46    5.95
  -5  -5 -13   24.91    4.32
   5   6  -9   59.40    7.45
  -5  -6   9   58.35    7.74
   5   6  -8    9.22    3.86
  -5  -6   8    6.52    3.42
   5   6  -7  146.44    5.43
  -5  -6   7  157.10    6.83
   5   6  -6    8.27    2.99
  -5  -6   6    9.42    4.35
   5   6  -5  162.45   16.02
  -5  -6   5  166.25    9.62
  -5  -6   4 1045.46   29.36
   5   6  -3  483.90   11.96
  -5  -6   3  526.14   13.60
   5   6  -2  135.06   15.95
  -5  -6   2  152.92   12.27
   5   6  -1  233.62   15.81
  -5  -6   1  233.82   12.76
   5   6   0   10.06    1.85
   5   6   0    7.43    0.80
   5   6   0    5.30    0.64
  -5  -6   0   10.95    4.41
   5   6   1  732.76   15.04
   5   6   1  712.01   13.55
   5   6   1  758.11   14.41
  -5  -6  -1  795.18   17.17
   5   6   2  259.51   13.49
   5   6   2  233.13   11.66
   5   6   2  244.27   12.40
  -5  -6  -2  247.76   13.16
   5   6   3  277.61   14.36
   5   6   3  248.66   12.49
  -5  -6  -3  277.25   14.87
  -5  -6  -4 6565.56  464.09
   5   6   4 6425.57  454.16
  -5  -6  -4 6206.70  438.88
  -5  -6  -5  338.92    8.95
   5   6   5  332.08    9.18
  -5  -6  -5  315.82    9.20
  -5  -6  -6  162.50   10.19
  -5  -6  -6  190.12    5.27
   5   6   6  193.99    6.06
  -5  -6  -6  197.42    6.83
  -5  -6  -7   49.82    4.37
  -5  -6  -7   50.34    4.46
   5   6   7   57.01    6.03
  -5  -6  -7   52.44    6.14
  -5  -6  -8    5.86    1.00
   5   6   8    1.87    2.48
  -5  -6  -8    7.30    3.62
   5   6   9  157.50    7.80
  -5  -6  -9  144.10   17.04
   5   6  10    9.32    3.36
  -5  -6 -10   11.71    4.15
   5   6  11   35.97    5.44
  -5  -6 -11   44.28    6.00
   5   6  12   77.41    6.87
  -5  -6 -12   76.14    5.73
  -5  -7   9   83.99    6.99
  -5  -7   9   76.87    6.17
  -5  -7   8   12.53    3.22
  -5  -7   8   21.48    4.26
   5   7  -7   21.14    3.27
  -5  -7   7   36.35    5.31
   5   7  -6   72.13    5.90
  -5  -7   6   53.71    5.56
   5   7  -5   -0.01    2.61
  -5  -7   5    7.32    3.30
   5   7  -4    4.80    2.47
  -5  -7   4   13.61    4.34
   5   7  -3  192.18    9.33
  -5  -7   3  206.18   10.49
   5   7  -2  506.17   15.35
  -5  -7   2  500.36   15.47
   5   7  -1 1231.77   27.31
  -5  -7   1 1226.21   27.45
   5   7   0   45.52    4.85
  -5  -7   0   38.53    4.55
  -5  -7  -1   49.11    4.35
   5   7   1   52.58    3.93
   5   7   1   56.57    4.33
  -5  -7  -1   56.43    6.43
  -5  -7  -2   38.14    4.27
   5   7   2   29.94    2.47
   5   7   2   34.01    3.09
  -5  -7  -2   38.19    4.51
  -5  -7  -3    9.53    2.23
   5   7   3    8.15    1.17
   5   7   3   17.67    2.28
  -5  -7  -3   11.14    3.05
  -5  -7  -4  869.47   19.28
   5   7   4  890.80   19.68
  -5  -7  -4  907.14   20.99
  -5  -7  -5   81.21    5.15
   5   7   5   69.50    6.69
  -5  -7  -5   89.64    6.49
  -5  -7  -6  418.69   11.87
   5   7   6  441.64   13.17
  -5  -7  -6  375.16   12.51
  -5  -7  -7  631.50   16.29
   5   7   7  681.66   18.51
  -5  -7  -7  646.84   18.03
  -5  -7  -8   37.89    2.23
   5   7   8   39.41    4.36
  -5  -7  -8   32.31    4.89
   5   7   9   23.38    4.31
  -5  -7  -9   35.08    4.12
   5   7  10   38.93    6.14
  -5  -7 -10   41.35    5.33
  -5  -7 -11    6.06    2.61
   5   7  12  115.71    7.99
  -5  -7 -12  125.61    8.87
  -5  -8   8    6.56    3.60
  -5  -8   8    7.21    3.29
  -5  -8   7   32.58    5.62
  -5  -8   7   19.45    3.80
  -5  -8   6   39.07    6.08
  -5  -8   6   39.21    5.64
  -5  -8   5  228.89    8.13
  -5  -8   5  240.71    7.92
  -5  -8   4  156.32    8.43
  -5  -8   4  147.95    8.06
  -5  -8   3    5.39    4.86
  -5  -8   3    3.43    2.99
  -5  -8   2  135.45    7.84
  -5  -8   1  171.55    9.12
  -5  -8   1  164.26    9.00
  -5  -8   0    7.88    2.55
  -5  -8   0    9.68    2.78
  -5  -8  -1  456.93   14.09
   5   8   1  433.54   11.69
  -5  -8  -1  448.05   14.16
  -5  -8  -2 1410.85   38.08
   5   8   2 1165.69   30.71
   5   8   2 1388.82   36.62
  -5  -8  -2 1433.47   39.11
  -5  -8  -3  211.65   12.22
   5   8   3  209.76   11.51
  -5  -8  -3  204.43   11.95
  -5  -8  -4   51.62    4.91
   5   8   4   50.24    4.21
  -5  -8  -4   48.69    4.75
  -5  -8  -5    7.97    1.80
   5   8   5    6.34    1.97
  -5  -8  -5   12.91    4.10
  -5  -8  -6    8.95    2.00
   5   8   6    7.82    2.55
  -5  -8  -6   14.44    3.78
  -5  -8  -7   58.56    3.44
   5   8   7   57.08    4.04
  -5  -8  -7   64.23    5.97
  -5  -8  -8   12.33    2.11
   5   8   8   15.30    3.46
  -5  -8  -8   15.78    4.19
   5   8   9   45.37    5.26
  -5  -8  -9   46.26    5.39
   5   8  10  107.70    6.41
   5   8  11   36.65    4.91
  -5  -8 -11   52.45    7.91
  -5  -9   7   61.26    5.34
  -5  -9   7   66.65    5.52
  -5  -9   6  102.23    8.02
  -5  -9   6   86.15    5.85
  -5  -9   5    3.30    3.33
  -5  -9   5   17.42    3.99
  -5  -9   4   49.56    5.14
  -5  -9   4   43.97    4.41
  -5  -9   3  416.29   11.12
  -5  -9   3  430.44   10.56
  -5  -9   2  126.97    7.78
  -5  -9   2  117.18    6.96
  -5  -9   1   16.95    3.59
  -5  -9   1   17.98    3.74
  -5  -9   0   13.09    4.70
  -5  -9   0    9.27    2.85
  -5  -9  -1    0.64    2.52
   5   9   1    3.87    0.95
  -5  -9  -1    8.31    2.84
  -5  -9  -2   94.40    6.55
   5   9   2   84.53    4.23
  -5  -9  -2   89.25    5.89
  -5  -9  -3   12.95    3.17
   5   9   3    4.77    1.17
  -5  -9  -3   13.76    3.98
  -5  -9  -4  274.94   10.65
   5   9   4  276.74   10.14
  -5  -9  -4  274.17   11.03
  -5  -9  -5  316.48   11.05
   5   9   5  305.82   10.31
  -5  -9  -5  328.79   11.95
  -5  -9  -6  133.19    5.36
   5   9   6  119.36    7.01
  -5  -9  -6  121.40    7.95
  -5  -9  -7    4.54    2.43
  -5  -9  -7    3.61    2.78
   5   9   8    7.57    3.90
  -5  -9  -8    4.99    2.97
   5   9   9   17.89    3.54
  -5  -9  -9    8.27    3.86
   5   9  10    3.03    2.98
  -5  -9 -10    1.49    3.11
  -5 -10   6    5.27    3.64
  -5 -10   6    6.85    2.95
  -5 -10   5   13.54    4.12
  -5 -10   4    7.21    3.35
  -5 -10   4    9.72    3.37
  -5 -10   3   29.77    4.75
  -5 -10   3   30.18    4.54
  -5 -10   2   20.47    5.09
  -5 -10   2   25.90    5.33
  -5 -10   1  232.88    9.87
  -5 -10   1  249.01    9.68
  -5 -10   0  511.90   13.08
  -5 -10   0  539.64   13.00
  -5 -10  -1   85.76    6.08
  -5 -10  -1   85.87    6.59
  -5 -10  -2   20.20    4.27
  -5 -10  -2    9.29    2.89
  -5 -10  -3    0.64    2.34
   5  10   3   -0.37    1.27
  -5 -10  -3   10.33    3.62
  -5 -10  -4    7.06    3.50
   5  10   4    9.37    3.08
  -5 -10  -4   10.24    4.02
  -5 -10  -5   46.22    4.72
   5  10   5   42.43    3.95
  -5 -10  -5   38.11    4.29
  -5 -10  -6    7.31    3.13
   5  10   6    4.36    2.70
  -5 -10  -6    5.16    2.85
  -5 -10  -7  120.51    6.23
   5  10   7  120.35    6.99
  -5 -10  -7  131.09    7.84
   5  10   8  270.91   15.13
  -5 -10  -8  285.60   16.72
  -5 -11   4   33.33    5.41
  -5 -11   4   32.85    4.91
  -5 -11   3    2.42    2.16
  -5 -11   2    3.93    3.25
  -5 -11   2   10.07    3.60
  -5 -11   1    3.63    3.83
  -5 -11   1    4.39    2.59
  -5 -11   0   74.10    8.63
  -5 -11   0   65.01    6.82
  -5 -11  -1   74.96    7.49
  -5 -11  -1   95.02    7.05
  -5 -11  -2  222.75   10.64
  -5 -11  -2  217.90   10.57
  -5 -11  -3   61.21    6.49
  -5 -11  -3   56.07    6.44
  -5 -11  -4   82.19    5.76
  -5 -11  -4   76.00    5.73
  -5 -11  -5    5.34    3.47
   5  11   5    5.94    3.01
  -5 -11  -5    4.91    2.75
  -5 -11  -6    4.04    2.29
   5  11   6    3.82    2.17
  -5 -11  -6    6.97    4.11
  -5 -12   0   21.42    3.37
  -5 -12   0   17.60    3.68
  -5 -12  -1   19.29    4.21
  -5 -12  -1    5.92    2.81
  -5 -12  -2    3.01    2.82
  -5 -12  -2    1.33    2.35
  -5 -12  -3   20.85    3.76
   6  -7   0   98.50    7.35
  -6   7   0  106.34    9.30
   6  -7   1   57.74    5.64
  -6   7  -1   73.04    8.14
   6  -7   2   73.17    5.97
  -6   7  -2   41.71    6.56
   6  -7   3    6.26    3.72
  -6   7  -3   23.79    6.97
   6  -7   4   11.23    5.16
  -6   7  -4    4.68    3.46
   6  -7   5   21.97    4.89
  -6   7  -5   33.70    5.30
   6  -6  -3   32.21    5.21
  -6   6   3   37.87    5.81
  -6   6   3   28.06    4.64
   6  -6  -2    4.99    3.18
  -6   6   2    5.49    3.85
  -6   6   2    7.32    3.07
   6  -6  -1  101.80    6.50
  -6   6   1   99.37    7.69
  -6   6   1   96.67    6.49
   6  -6   0    1.52    3.10
  -6   6   0    8.17    3.77
  -6   6   0    1.96    1.82
   6  -6   1    6.65    3.24
  -6   6  -1    2.68    2.01
   6  -6   2    2.74    3.21
  -6   6  -2   -1.71    3.75
   6  -6   3  655.11   21.17
  -6   6  -3  659.10   83.22
   6  -6   4  238.53   11.59
  -6   6  -4  233.87   12.14
   6  -6   5   99.55    7.05
  -6   6  -5  108.33    7.87
   6  -6   6    0.08    3.04
  -6   6  -6    5.00    4.77
   6  -6   7    2.20    2.97
  -6   6  -7    3.25    3.22
   6  -6   8    4.07    2.88
  -6   6  -8   10.11    5.31
   6  -5  -4   74.30    6.63
  -6   5   4   71.36   10.40
  -6   5   4   53.12    7.33
   6  -5  -3   26.82    4.16
  -6   5   3   14.35    4.13
  -6   5   3   17.39    5.58
   6  -5  -2  344.25   12.39
  -6   5   2  354.31   13.01
  -6   5   2  336.66   11.86
  -6   5   1  183.40    9.27
  -6   5   1  204.12    8.75
   6  -5   0    4.40    3.04
  -6   5   0    6.03    3.58
  -6   5   0    6.27    2.56
   6  -5   1   60.55    5.17
  -6   5  -1   73.90    6.23
  -6   5  -1   57.58    4.64
   6  -5   2   16.53    4.98
  -6   5  -2   10.19    2.33
   6  -5   3   77.00    7.24
  -6   5  -3   58.01    3.56
   6  -5   4   30.73    3.90
  -6   5  -4   33.05    5.18
   6  -5   5  188.09    6.87
  -6   5  -5  206.55    7.61
   6  -5   6  466.58   16.56
  -6   5  -6  485.10   17.54
   6  -5   7  508.43   16.36
  -6   5  -7  530.73   17.45
   6  -5   8  115.59    6.73
  -6   5  -8  113.71    6.98
   6  -5   9   35.81    4.76
  -6   5  -9   25.38    4.08
   6  -5  10   10.30    4.19
  -6   5 -10   11.81    2.75
   6  -4  -6  105.29    7.57
  -6   4   6  110.97    9.51
  -6   4   6  102.18    7.21
   6  -4  -5   46.85    6.14
  -6   4   5   26.69    5.59
  -6   4   5   28.47    4.67
   6  -4  -4   13.21    4.70
  -6   4   4    9.28    3.74
  -6   4   4   18.15    4.37
   6  -4  -3    8.69    3.48
  -6   4   3    8.58    3.67
  -6   4   3    4.40    3.72
   6  -4  -2    5.58    3.06
  -6   4   2    5.46    3.82
  -6   4   2   14.68    5.00
   6  -4  -1   46.16    4.49
  -6   4   1   40.65    4.86
  -6   4   1   41.16    4.15
   6  -4   0  205.52    9.75
  -6   4   0  231.84   10.01
  -6   4   0  261.26   10.62
   6  -4   1  617.80   22.39
  -6   4  -1  662.06   23.56
  -6   4  -1  616.03   21.03
   6  -4   2  241.90   10.72
  -6   4  -2  229.26   11.02
  -6   4  -2  266.72   10.03
   6  -4   3   48.70    5.41
  -6   4  -3   38.53    4.27
  -6   4  -3   37.83    2.99
   6  -4   4   46.15    4.17
  -6   4  -4   39.00    4.23
  -6   4  -4   37.88    2.40
   6  -4   5    0.35    3.16
  -6   4  -5    2.36    0.86
   6  -4   6   29.93    4.49
  -6   4  -6   40.65    4.94
   6  -4   7   34.71    3.94
  -6   4  -7   37.22    5.90
   6  -4   8  430.47   15.36
  -6   4  -8  448.43   16.35
   6  -4   9  550.04   17.05
  -6   4  -9  587.88   18.73
   6  -4  10  238.21   11.23
  -6   4 -10  265.78   12.91
  -6   4 -11   10.19    3.95
   6  -3  -7   10.33    4.61
  -6   3   7   18.48    5.57
  -6   3   7    6.38    4.98
   6  -3  -6    3.58    2.67
  -6   3   6   12.32    3.68
  -6   3   6   20.14    5.05
   6  -3  -5   13.26    4.44
  -6   3   5    4.30    3.49
  -6   3   5   -1.10    3.33
   6  -3  -4  129.19    5.73
  -6   3   4  128.57    6.26
  -6   3   4  122.97    8.54
   6  -3  -3  135.36    8.26
  -6   3   3  127.78    7.60
  -6   3   3  141.00    8.35
   6  -3  -2   14.01    3.20
  -6   3   2   15.57    4.13
  -6   3   2   16.77    3.50
   6  -3  -1   22.34    4.36
  -6   3   1   22.13    4.63
  -6   3   1   30.05    5.38
   6  -3   0    7.63    3.23
  -6   3   0    7.36    3.59
  -6   3   0    5.68    2.73
   6  -3   1   12.77    4.45
  -6   3  -1   14.09    3.23
   6  -3   2  110.58    7.57
  -6   3  -2  112.39    6.77
  -6   3  -2  108.74    6.04
   6  -3   3  201.44   10.14
  -6   3  -3  205.10   10.19
  -6   3  -3  195.05    8.78
   6  -3   4  597.69   20.73
  -6   3  -4  568.60   20.34
  -6   3  -4  647.25   21.58
   6  -3   5  654.66   22.49
  -6   3  -5  686.57   24.03
  -6   3  -5  624.84   20.59
   6  -3   6  197.05   10.03
  -6   3  -6  217.55    8.10
  -6   3  -6  199.78    8.83
   6  -3   7  104.25    5.29
  -6   3  -7  110.68    6.43
   6  -3   8    3.16    2.02
  -6   3  -8    8.49    3.76
   6  -3   9    7.14    2.96
  -6   3  -9    6.76    2.05
   6  -3  10  308.12   10.37
  -6   3 -10  282.30   20.40
  -6   3 -12  131.64   22.89
   6  -2  -7   20.58    3.98
  -6   2   7    5.67    3.86
  -6   2   7   16.90    5.02
  -6   2   6   13.00    2.78
  -6   2   6   18.88    4.80
   6  -2  -5  126.93   21.62
  -6   2   5   87.19    7.51
  -6   2   5   94.48    8.63
   6  -2  -4    6.30    3.41
  -6   2   4    6.44    3.84
  -6   2   4   -0.31    2.80
   6  -2  -3   25.08    4.55
  -6   2   3   22.93    4.86
  -6   2   3   24.60    4.94
  -6   2   2  110.86    7.78
  -6   2   2  104.71    6.28
   6  -2  -1  746.10   21.46
  -6   2   1  778.34   22.52
  -6   2   1  811.09   22.97
   6  -2   0  349.15   11.59
  -6   2   0  364.02   12.55
  -6   2   0  352.86   11.32
   6  -2   1   15.21    3.73
  -6   2  -1   12.46    3.59
  -6   2  -1   12.84    3.15
   6  -2   2   27.17    3.72
  -6   2  -2   31.81    4.21
  -6   2  -2   25.88    2.77
   6  -2   3  616.61   15.18
  -6   2  -3  640.46   16.18
  -6   2  -3  623.03   14.31
   6  -2   4    6.62    3.07
  -6   2  -4    7.01    3.22
  -6   2  -4    5.82    2.22
   6  -2   5    6.46    3.84
  -6   2  -5    6.94    4.42
  -6   2  -5    2.74    0.58
  -6   2  -5    5.55    1.14
   6  -2   6  556.37   16.08
  -6   2  -6  598.65   17.71
  -6   2  -6  586.55   16.06
   6  -2   7  751.65   25.22
  -6   2  -7  818.25   27.89
  -6   2  -7  778.79   25.41
   6  -2   8  489.66   13.37
  -6   2  -8  486.97   12.38
   6  -2   9  250.39    8.62
  -6   2  -9  260.14   13.92
   6  -2  10    5.28    2.20
  -6   2 -10   14.22    3.89
  -6   2 -11    1.45    3.57
  -6   2 -12    6.01    2.54
   6  -1  -8  113.86    8.73
  -6   1   8   95.88    7.72
  -6   1   8  106.80    7.99
   6  -1  -7    8.68    3.70
  -6   1   7    4.38    3.33
  -6   1   7    2.36    3.42
   6  -1  -6  269.97   11.15
  -6   1   6  282.17   11.63
  -6   1   6  249.68   10.75
   6  -1  -5  113.53    6.96
  -6   1   5  123.10    7.85
  -6   1   5  140.09    8.02
   6  -1  -4    0.34    3.24
  -6   1   4    4.00    3.43
  -6   1   4    5.96    3.72
   6  -1  -3    8.03    3.05
  -6   1   3    4.22    3.09
  -6   1   3    3.61    3.43
  -6   1   2  517.70   15.98
  -6   1   2  489.75   15.24
   6  -1  -1    2.88    2.65
  -6   1   1    1.93    3.25
  -6   1   1    6.74    4.30
   6  -1   0  279.49    9.07
  -6   1   0  282.15    9.47
  -6   1   0  274.60    8.54
   6  -1   1  894.40   22.10
  -6   1  -1  862.80   21.65
  -6   1  -1  926.98   22.56
   6  -1   2 1089.76   26.20
  -6   1  -2 1076.50   26.18
  -6   1  -2 1069.56   25.36
   6  -1   3 1851.36   43.16
  -6   1  -3 1928.41   45.22
  -6   1  -3 1877.92   43.38
   6  -1   4   76.25    6.43
  -6   1  -4   79.36    7.43
  -6   1  -4   73.90    6.04
   6  -1   5   90.21    7.56
  -6   1  -5   80.83    6.80
  -6   1  -5   80.08    6.27
   6  -1   6   48.68    4.22
  -6   1  -6   42.84    5.05
  -6   1  -6   50.04    3.92
   6  -1   6   43.62    3.37
   6  -1   7   12.72    1.89
  -6   1  -7   17.14    3.97
  -6   1  -7   11.64    1.66
   6  -1   8  119.47    6.02
  -6   1  -8  130.28   12.57
  -6   1  -8  120.48    5.54
   6  -1   9  999.28   32.88
  -6   1  -9 1075.73  119.35
  -6   1  -9  977.96   31.95
   6  -1  10  425.02   13.19
  -6   1 -10  381.93   11.69
  -6   1 -11  279.15   11.02
  -6   1 -12   19.98    4.19
  -6   1 -13    9.65    4.68
   6   0  -8   -0.55    2.59
  -6   0   8    8.66    4.87
  -6   0   8   -0.91    3.55
   6   0  -7   25.12    4.66
  -6   0   7   19.45    4.46
  -6   0   7   17.10    4.72
   6   0  -6    2.53    2.54
  -6   0   6    4.11    2.80
  -6   0   6    3.54    3.35
   6   0  -5   21.19    3.70
  -6   0   5    6.55    3.08
   6   0  -4  687.40   24.14
  -6   0   4  689.91   23.73
  -6   0   4  692.04   24.17
   6   0  -3  316.73   17.83
  -6   0   3  313.84   17.70
  -6   0   3  318.87   17.89
   6   0  -2  138.95    9.67
  -6   0   2  134.76    9.66
  -6   0   2  147.54   10.91
   6   0  -1   42.00    4.51
  -6   0   1   34.05    3.54
  -6   0   1   36.40    5.00
   6   0   0   20.19    3.23
  -6   0   0   30.36    3.87
  -6   0   0   30.03    3.39
   6   0   1   80.36    6.88
  -6   0  -1   89.03    5.55
  -6   0  -1   89.77    5.90
   6   0   2    3.36    2.40
  -6   0  -2    9.69    3.42
  -6   0  -2    1.05    2.43
   6   0   3   85.85    5.25
  -6   0  -3  101.79    6.33
  -6   0  -3  100.32    6.27
   6   0   4 2025.38   38.66
  -6   0  -4 2151.74   41.34
  -6   0  -4 2096.13   39.89
   6   0   5 1498.01   28.97
  -6   0  -5 1551.89   30.39
  -6   0  -5 1557.79   29.92
   6   0   6  256.15    7.28
  -6   0  -6  268.82    8.67
  -6   0  -6  263.87    7.44
   6   0   7    6.65    2.29
  -6   0  -7   10.08    2.92
  -6   0  -7    7.25    1.44
   6   0   8   28.86    3.07
  -6   0  -8   34.31    4.72
  -6   0  -8   39.03    3.97
   6   0   9  239.37    6.93
  -6   0  -9  233.11   16.72
  -6   0  -9  267.08    7.85
   6   0  10   49.06    2.43
  -6   0 -10   50.29    6.49
  -6   0 -10   50.32    3.17
  -6   0 -11   38.58    3.07
  -6   0 -12  216.51   20.35
  -6   0 -13  261.88   26.36
   6   1  -9   28.04    6.03
  -6  -1   9   12.99    2.91
  -6  -1   9   16.44    3.91
   6   1  -8   49.09    7.21
  -6  -1   8   50.03    5.52
  -6  -1   8   51.53    5.90
   6   1  -7   63.78   10.99
  -6  -1   7   78.97    7.07
  -6  -1   7   72.83    7.09
   6   1  -6   36.53    4.62
  -6  -1   6   21.55    3.98
  -6  -1   6   17.60    3.54
   6   1  -5    6.52    3.25
  -6  -1   5    2.01    3.49
  -6  -1   5    9.15    5.66
   6   1  -4  436.94   16.07
  -6  -1   4  419.47   15.07
  -6  -1   4  463.92   17.25
   6   1  -3  138.10    9.89
  -6  -1   3  134.73    9.39
   6   1  -2   44.32    4.42
  -6  -1   2   46.20    4.68
  -6  -1   2   56.94    5.73
   6   1  -1  173.41   10.21
  -6  -1   1  174.15    9.80
  -6  -1   1  168.93   10.22
   6   1   0 1056.26   21.51
  -6  -1   0 1016.92   20.37
  -6  -1   0 1005.12   20.86
   6   1   1 1262.09   25.46
  -6  -1  -1 1230.05   24.61
  -6  -1  -1 1229.34   25.00
   6   1   2   47.77    4.07
  -6  -1  -2   53.14    3.98
  -6  -1  -2   54.70    4.34
   6   1   3    1.41    2.09
  -6  -1  -3    7.49    2.25
  -6  -1  -3    0.21    2.37
   6   1   4    3.86    2.79
  -6  -1  -4    7.29    2.82
  -6  -1  -4    4.28    2.29
   6   1   5  474.46   10.29
  -6  -1  -5  454.31   10.50
  -6  -1  -5  482.09   10.63
   6   1   6  382.11   10.01
  -6  -1  -6  362.88   10.13
  -6  -1  -6  369.45    9.89
   6   1   7  870.47   19.00
  -6  -1  -7  865.33   21.63
  -6  -1  -7  933.66   20.70
   6   1   8 1258.86   33.37
  -6  -1  -8 1079.38   28.67
  -6  -1  -8 1242.67   34.39
  -6  -1  -8 1292.29   34.74
   6   1   9  196.20    8.37
  -6  -1  -9  211.91   16.17
  -6  -1  -9  200.00    9.15
  -6  -1 -10   11.00    3.34
  -6  -1 -10    1.08    1.33
  -6  -1 -11    4.02    2.48
  -6  -1 -11    0.44    1.38
  -6  -1 -12    4.44    1.99
  -6  -1 -12    4.18    1.60
  -6  -1 -13    8.29    3.03
   6   2  -9  113.29   16.95
  -6  -2   9  152.47   10.99
   6   2  -8    7.28    2.68
  -6  -2   8   10.09    3.23
  -6  -2   8   12.86    5.56
   6   2  -7    7.96    3.39
  -6  -2   7    6.25    4.33
   6   2  -6   24.16    4.62
  -6  -2   6   18.18    3.45
  -6  -2   6   29.65    6.35
   6   2  -5  340.57   11.19
  -6  -2   5  331.50    9.70
  -6  -2   5  356.85   12.24
   6   2  -4  667.14   20.05
  -6  -2   4  687.29   19.24
  -6  -2   4  683.18   20.40
  -6  -2   3   72.53    5.62
  -6  -2   3   73.26    6.27
   6   2  -2  162.16   12.54
  -6  -2   2  156.08   11.92
  -6  -2   2  155.04   12.53
   6   2  -1  723.19   15.41
  -6  -2   1  716.54   14.77
  -6  -2   1  719.11   15.71
   6   2   0    9.28    3.39
  -6  -2   0    2.91    1.92
  -6  -2   0   14.59    3.75
   6   2   1   51.40    3.93
  -6  -2  -1   52.26    3.80
  -6  -2  -1   38.33    4.00
   6   2   2 1124.03   22.63
  -6  -2  -2 1109.16   22.16
  -6  -2  -2 1111.24   22.68
   6   2   3 1870.98   36.39
  -6  -2  -3 1806.98   35.10
  -6  -2  -3 1796.39   35.27
   6   2   4  184.35   10.18
  -6  -2  -4  179.71    9.87
  -6  -2  -4  181.23   10.27
   6   2   5    5.97    2.33
  -6  -2  -5    5.58    2.70
  -6  -2  -5    8.84    2.05
   6   2   6    8.47    1.79
  -6  -2  -6    7.44    1.50
  -6  -2  -6    8.17    2.22
  -6  -2  -6    8.19    1.90
   6   2   7   70.06    5.67
  -6  -2  -7   54.28    4.24
  -6  -2  -7   74.84    8.65
  -6  -2  -7   83.92    7.07
   6   2   8   13.18    2.16
  -6  -2  -8   13.90    1.62
  -6  -2  -8   19.66    3.62
  -6  -2  -8   11.99    2.14
   6   2   9  126.16    5.71
  -6  -2  -9  143.08   12.58
  -6  -2  -9  149.57    7.57
  -6  -2 -10  293.82   11.65
  -6  -2 -10  291.97   10.84
  -6  -2 -11  218.21   16.41
  -6  -2 -11  225.30    6.77
  -6  -2 -12  362.56   13.19
  -6  -2 -12  338.62   11.15
  -6  -2 -13   17.01    4.44
  -6  -2 -13    9.66    3.71
   6   3  -9   64.17   13.99
  -6  -3   9   82.05    7.07
   6   3  -8   47.09    8.02
  -6  -3   8   63.49    7.95
   6   3  -7   97.72   12.06
  -6  -3   7  117.89    8.50
  -6  -3   7  113.74    9.42
   6   3  -6  174.71   14.59
  -6  -3   6  158.74    7.57
  -6  -3   6  177.45    8.35
   6   3  -5   38.36    6.28
  -6  -3   5   20.67    3.50
  -6  -3   5   21.94    5.17
   6   3  -4   65.32    9.43
  -6  -3   4   58.42    5.57
  -6  -3   4   49.91    5.85
   6   3  -3  445.16   14.95
  -6  -3   3  452.74   10.84
  -6  -3   3  476.24   12.87
   6   3  -2  650.01   16.44
  -6  -3   2  787.52   18.67
   6   3  -2  622.25   14.68
  -6  -3   2  695.82   18.32
   6   3  -1  845.71   17.61
  -6  -3   1  834.98   16.50
  -6  -3   1  868.08   18.65
   6   3   0   25.37    4.11
  -6  -3   0   26.38    3.11
   6   3   0   17.46    2.02
   6   3   1  140.83   12.01
  -6  -3  -1  128.39    7.24
   6   3   1  111.42    6.23
  -6  -3  -1  138.71    8.58
   6   3   2   90.75    9.92
  -6  -3  -2   73.23    4.40
  -6  -3  -2   90.35    6.09
   6   3   3   95.01    6.97
  -6  -3  -3   98.54    7.42
  -6  -3  -3   98.48    6.69
   6   3   4  358.85    8.28
  -6  -3  -4  312.33    7.52
  -6  -3  -4  347.48    8.87
   6   3   5 1743.33   34.09
  -6  -3  -5 1731.96   33.10
  -6  -3  -5 1739.04   33.61
   6   3   6 1173.98   28.02
  -6  -3  -6 1195.47   28.32
  -6  -3  -6 1202.64   28.58
   6   3   7  962.89   20.57
  -6  -3  -7  876.39   18.78
  -6  -3  -7 1029.62   23.05
  -6  -3  -7 1031.97   23.13
   6   3   8  154.38    8.65
  -6  -3  -8  166.86   14.99
  -6  -3  -8  172.44   10.30
   6   3   9  188.03    7.71
  -6  -3  -9  210.80   17.71
  -6  -3  -9  209.60    9.97
  -6  -3 -10   31.69    5.48
  -6  -3 -10   28.88    3.85
  -6  -3 -11   51.70    8.36
  -6  -3 -11   60.87    4.62
  -6  -3 -12    6.15    3.08
  -6  -3 -12    6.68    2.39
  -6  -3 -13  180.68    9.42
  -6  -3 -13  193.26    9.70
   6   4  -9    9.34    4.34
  -6  -4   9    6.75    3.85
   6   4  -8   41.03    6.64
  -6  -4   8   55.67    7.41
   6   4  -7   55.91    7.65
  -6  -4   7   40.88    5.02
   6   4  -6  327.84   11.74
  -6  -4   6  294.31    9.48
  -6  -4   6  320.13   12.26
   6   4  -5   74.25   10.32
  -6  -4   5   75.31    4.09
  -6  -4   5   77.29    5.89
   6   4  -4  475.06   16.91
  -6  -4   4  490.87   16.32
  -6  -4   4  487.27   17.86
   6   4  -3   36.52    3.98
  -6  -4   3   39.01    3.16
   6   4  -3   30.46    2.28
  -6  -4   3   30.28    4.62
   6   4  -2   24.69    3.96
  -6  -4   2   13.32    1.74
   6   4  -2   10.29    1.30
  -6  -4   2   15.06    2.77
   6   4  -1  201.98   16.26
  -6  -4   1  202.47   12.58
   6   4  -1  174.42   12.59
  -6  -4   1  191.19   14.67
   6   4   0  804.21   16.68
  -6  -4   0  810.55   15.76
   6   4   0  744.25   14.50
  -6  -4   0  859.25   18.23
   6   4   1 1123.93   22.71
  -6  -4  -1 1118.07   21.38
   6   4   1 1012.16   19.45
  -6  -4  -1 1182.99   23.92
   6   4   2   64.75    5.90
  -6  -4  -2   58.18    5.07
   6   4   2   42.79    2.84
   6   4   3   69.84    6.61
  -6  -4  -3   71.43    7.12
  -6  -4  -3   58.27    5.56
   6   4   4   56.25    8.19
  -6  -4  -4   64.01    7.07
  -6  -4  -4   53.57    5.28
   6   4   5   46.52    6.64
  -6  -4  -5   56.92    6.41
  -6  -4  -5   51.01    5.60
   6   4   6   34.74    5.05
  -6  -4  -6   26.13    2.35
  -6  -4  -6   40.27    6.31
  -6  -4  -6   32.26    3.90
   6   4   7  132.16    9.00
  -6  -4  -7  137.69    8.70
  -6  -4  -7  156.68   14.49
  -6  -4  -7  164.15   10.94
  -6  -4  -8 1143.01   33.95
  -6  -4  -8 1123.47   30.79
  -6  -4  -9  688.84   19.14
  -6  -4  -9  664.75   18.57
  -6  -4 -10  117.59    6.54
  -6  -4 -10  112.20    5.36
  -6  -4 -11   48.97    5.57
  -6  -4 -11   50.46    4.68
  -6  -4 -12    7.81    3.74
  -6  -4 -12   11.02    3.68
   6   4  13  137.21    9.01
  -6  -4 -13  143.02    9.33
   6   5  -9   67.51   12.97
   6   5  -8    9.02    3.95
  -6  -5   8   18.90    3.04
   6   5  -7    2.69    1.54
  -6  -5   7   12.78    3.82
   6   5  -6    6.13    3.49
  -6  -5   6    0.15    3.42
   6   5  -5   61.60    9.66
  -6  -5   5   53.24    4.41
  -6  -5   4  444.68   14.48
  -6  -5   4  494.15   18.01
   6   5  -3    3.68    2.39
  -6  -5   3    3.53    0.69
  -6  -5   3   16.12    4.79
   6   5  -2    9.02    3.68
  -6  -5   2    8.68    1.56
   6   5  -2    8.00    0.81
  -6  -5   2   14.17    4.76
   6   5  -1    5.45    2.24
  -6  -5   1    1.93    0.59
   6   5  -1    2.90    0.76
  -6  -5   1    4.26    3.67
   6   5   0  148.70   16.83
  -6  -5   0  127.75    9.28
   6   5   0  118.75    8.63
  -6  -5   0  135.65   10.93
   6   5   1   77.64    9.08
  -6  -5  -1   71.20    7.36
   6   5   1   74.05    6.03
  -6  -5  -1   78.30    7.28
   6   5   2 1034.98   22.50
  -6  -5  -2  992.42   19.03
   6   5   2  950.50   18.35
  -6  -5  -2 1066.57   21.90
   6   5   3 1870.13   35.63
  -6  -5  -3 1787.36   34.31
  -6  -5  -3 1881.36   36.71
   6   5   4  396.28   10.57
  -6  -5  -4  403.23   10.38
   6   5   5   24.01    3.67
  -6  -5  -5   27.83    3.73
  -6  -5  -5   25.03    3.42
   6   5   6   70.20    4.95
  -6  -5  -6   72.10    8.47
  -6  -5  -6   79.95    6.10
  -6  -5  -7   11.88    1.42
  -6  -5  -7   11.61    2.21
  -6  -5  -7    9.88    2.82
  -6  -5  -8   14.04    1.65
  -6  -5  -8   20.00    3.23
  -6  -5  -8    7.23    3.90
  -6  -5  -9   46.94    4.44
  -6  -5  -9   41.34    4.17
  -6  -5 -10  291.45   10.84
  -6  -5 -10  307.60   11.59
   6   5  11  397.94   14.84
  -6  -5 -11  373.61   14.07
   6   5  12   50.44    5.82
  -6  -5 -12   49.46    5.85
   6   5  13    1.11    3.54
  -6  -5 -13    1.71    2.38
   6   6  -8   58.65    7.33
  -6  -6   8   58.35    8.11
   6   6  -7   15.04    3.05
  -6  -6   7    6.57    3.55
   6   6  -6  181.36   18.71
  -6  -6   6  194.21    9.33
   6   6  -5  395.23   13.86
  -6  -6   5  436.75   15.37
   6   6  -4    5.33    2.23
  -6  -6   4    8.65    3.55
   6   6  -3   33.33    5.10
  -6  -6   3   42.12    5.49
   6   6  -2  186.90   17.28
  -6  -6   2  166.64   10.56
   6   6  -1  220.87   14.34
  -6  -6   1  198.78    7.90
   6   6   0  341.27    9.31
   6   6   0  334.44    7.30
  -6  -6   0  368.49   10.96
   6   6   1   46.79    7.37
  -6  -6  -1   40.60    3.27
   6   6   1   38.67    3.11
  -6  -6  -1   54.75    6.53
   6   6   2  224.47   12.52
  -6  -6  -2  178.35   12.88
   6   6   2  167.37   12.16
  -6  -6  -2  196.99   13.16
   6   6   3 1258.91   29.63
  -6  -6  -3 1268.95   29.22
   6   6   3 1078.35   24.96
  -6  -6  -3 1256.74   30.18
   6   6   4  115.28    7.84
  -6  -6  -4  118.57    7.93
  -6  -6  -4  118.40    8.36
   6   6   5  136.83    9.03
  -6  -6  -5  131.13    8.56
  -6  -6  -5  124.13    9.20
  -6  -6  -6  572.63   15.78
  -6  -6  -6  574.83   16.16
  -6  -6  -6  609.62   18.12
  -6  -6  -7  285.09    9.96
  -6  -6  -7  289.40   10.79
  -6  -6  -7  279.33   10.87
  -6  -6  -8  197.05    8.78
   6   6   8  192.04    9.95
  -6  -6  -8  194.42   10.30
   6   6   9   10.69    2.85
  -6  -6  -9   18.43    3.83
   6   6  10    0.50    3.08
  -6  -6 -10    3.98    2.66
   6   6  11    2.77    5.00
  -6  -6 -11    4.63    2.86
   6   6  12    5.83    4.32
  -6  -6 -12   -0.12    2.53
   6   7  -8    7.06    3.25
  -6  -7   8   10.29    4.82
   6   7  -7   99.18    6.80
  -6  -7   7  103.30    7.20
   6   7  -6  127.20   11.74
  -6  -7   6  140.68   18.58
   6   7  -5   23.12    5.54
  -6  -7   5   32.92    4.19
   6   7  -4    7.31    2.81
  -6  -7   4    4.59    4.37
   6   7  -3  102.13    5.82
  -6  -7   3  112.68    6.21
   6   7  -2  124.41    7.60
  -6  -7   2  129.37    7.33
   6   7  -1    6.79    2.38
  -6  -7   1    2.48    3.05
   6   7   0  253.63   14.29
  -6  -7   0  278.12   15.82
   6   7   1 1365.94   36.88
   6   7   1 1266.84   33.20
   6   7   1 1381.69   36.14
  -6  -7  -1 1498.62   40.92
   6   7   2  337.29   23.05
   6   7   2  293.21   15.54
   6   7   2  314.07   16.63
  -6  -7  -2  340.95   11.21
   6   7   3  176.43   10.31
   6   7   3  146.64    8.12
   6   7   3  178.68    9.95
  -6  -7  -3  185.85   11.10
  -6  -7  -4  472.06   13.83
   6   7   4  449.15   12.78
  -6  -7  -4  479.53   15.24
  -6  -7  -5   92.23    4.72
   6   7   5   95.20    5.20
  -6  -7  -5   99.01    7.44
  -6  -7  -6    6.90    2.20
   6   7   6    2.81    2.28
  -6  -7  -6   -0.01    2.88
  -6  -7  -7    7.09    1.50
   6   7   7    1.83    2.27
  -6  -7  -8   83.33    4.03
   6   7   8   94.73    6.01
  -6  -7  -8   97.40    6.15
   6   7   9  519.63   12.34
  -6  -7  -9  544.77   13.95
   6   7  10  104.45   10.48
  -6  -7 -10  101.32    9.92
   6   7  11    5.30    3.59
   6   7  12   30.18    5.39
  -6  -7 -12   30.16    4.52
  -6  -8   7   15.74    4.82
  -6  -8   7    6.87    4.11
  -6  -8   6   16.44    4.11
   6   8  -5   15.54    4.07
  -6  -8   5   12.96    3.38
   6   8  -4  121.93    9.49
  -6  -8   4  140.21    7.51
   6   8  -3  118.80    7.99
  -6  -8   3  121.77    8.01
   6   8  -2   76.75    5.45
  -6  -8   2   85.10    6.75
   6   8  -1  102.30    6.68
  -6  -8   1   83.19    5.54
  -6  -8   0  183.19   10.08
  -6  -8  -1   77.45    5.16
   6   8   1   76.66    3.44
  -6  -8  -1   87.38    6.40
  -6  -8  -2   11.40    2.53
   6   8   2   11.20    1.25
  -6  -8  -2    7.25    3.81
  -6  -8  -3   19.41    3.67
   6   8   3   25.67    3.91
  -6  -8  -3   20.50    4.36
  -6  -8  -4  767.68   20.46
   6   8   4  718.65   18.53
  -6  -8  -4  729.63   20.18
  -6  -8  -5  345.62   12.81
   6   8   5  344.10   12.18
  -6  -8  -5  336.85   13.16
  -6  -8  -6   15.05    2.64
  -6  -8  -6   13.94    2.87
  -6  -8  -7    1.50    1.94
   6   8   7    3.39    2.30
  -6  -8  -7    2.37    2.59
   6   8   8    6.25    2.89
   6   8   9    4.69    2.76
   6   8  10   12.11    4.20
  -6  -8 -10    5.63    3.04
   6   8  11   37.00    5.20
  -6  -8 -11   45.90    6.77
  -6  -9   6    5.69    3.88
  -6  -9   5   11.84    5.13
  -6  -9   5    4.26    2.84
  -6  -9   4  110.00    8.09
  -6  -9   4  112.74    6.98
  -6  -9   3  132.39    7.78
  -6  -9   3  117.91    9.44
  -6  -9   2   34.68    4.61
  -6  -9   2   33.46    3.63
  -6  -9   1  295.13   11.00
  -6  -9   1  257.07   10.25
  -6  -9   0  224.92    9.35
  -6  -9   0  212.92    9.24
  -6  -9  -1    7.31    3.73
  -6  -9  -1   13.31    4.49
  -6  -9  -2   31.29    4.60
  -6  -9  -2   33.22    5.56
  -6  -9  -3  108.94    6.40
   6   9   3   83.81    4.15
  -6  -9  -3   85.34    6.93
  -6  -9  -4    9.87    3.32
   6   9   4    5.46    1.59
  -6  -9  -4   12.03    4.42
  -6  -9  -5   20.32    3.60
   6   9   5   20.46    3.42
  -6  -9  -5   22.19    5.53
  -6  -9  -6  217.67    8.19
   6   9   6  218.22    8.36
  -6  -9  -6  237.57   10.12
  -6  -9  -7  219.88    7.46
   6   9   7  222.55    8.34
  -6  -9  -7  247.72   10.13
   6   9   8   11.00    3.57
  -6  -9  -8    8.54    3.23
   6   9   9   28.31    4.05
  -6  -9  -9   25.75    5.23
   6   9  10    2.62    2.75
  -6  -9 -10   -0.13    2.93
  -6 -10   4   51.02    7.52
  -6 -10   4   74.77    6.63
  -6 -10   3   94.05    6.66
  -6 -10   3   85.31    6.70
  -6 -10   2  182.56    9.77
  -6 -10   2  164.84    8.86
  -6 -10   1   30.60    4.97
  -6 -10   1   30.45    4.92
  -6 -10   0    7.25    4.22
  -6 -10   0    6.03    3.02
  -6 -10  -1   56.39    5.36
  -6 -10  -1   52.03    5.40
  -6 -10  -2  146.28    7.29
  -6 -10  -2  127.19    9.55
  -6 -10  -3   49.62    5.64
  -6 -10  -3   37.95    3.88
  -6 -10  -4   13.68    3.27
   6  10   4    9.08    2.27
  -6 -10  -4   10.23    3.31
  -6 -10  -5   14.66    3.15
   6  10   5    1.90    1.53
  -6 -10  -5    6.68    3.00
  -6 -10  -6    4.69    2.01
   6  10   6    7.96    2.63
  -6 -10  -6   12.16    4.53
  -6 -10  -7   14.23    2.36
   6  10   7   14.90    2.84
  -6 -10  -7   15.91    4.10
   6  10   8    9.41    3.85
  -6 -10  -8    0.05    2.93
  -6 -11   2  169.29   10.71
  -6 -11   2  147.52    9.63
  -6 -11   1   24.38    5.01
  -6 -11   1   29.53    4.78
  -6 -11   0   57.94    6.71
  -6 -11   0   67.74    6.82
  -6 -11  -1  334.70   15.40
  -6 -11  -1  320.33   15.16
  -6 -11  -2    3.10    2.60
  -6 -11  -2    4.54    2.63
  -6 -11  -3    5.32    2.68
  -6 -11  -3    6.65    3.19
  -6 -11  -4    8.33    3.66
  -6 -11  -4    9.19    3.59
  -6 -11  -5   66.21    8.36
  -6 -11  -5   56.31    8.00
  -6 -11  -6   32.52    3.99
  -6 -11  -6   46.95    5.89
   7  -6   2   48.65    7.20
  -7   6  -2   36.31    7.35
   7  -6   3    7.82    3.93
   7  -6   4   37.40    5.15
  -7   6  -4   45.33    6.26
   7  -6   5  368.85   19.71
  -7   6  -5  369.91   20.31
   7  -5  -2   35.16    5.38
  -7   5   2   36.59    5.66
  -7   5   2   45.81    5.98
  -7   5   1   24.05    5.77
  -7   5   1   20.16    4.02
   7  -5   0   46.31    6.26
  -7   5   0   39.86    6.74
  -7   5   0   35.99    4.48
  -7   5  -1  146.60    9.23
  -7   5  -1  122.77    6.97
   7  -5   2   42.82    5.57
  -7   5  -2   28.99    5.01
   7  -5   3   45.94    6.27
  -7   5  -3   71.25    8.62
   7  -5   4  109.65    8.03
  -7   5  -4  126.41    8.86
   7  -5   5    1.01    2.95
  -7   5  -5   -2.28    3.49
   7  -5   6   72.88   18.03
  -7   5  -6   85.93    6.75
   7  -5   7  224.86   13.35
  -7   5  -7  240.24   14.77
   7  -5   8  242.32   13.71
  -7   5  -8  269.65   15.46
   7  -4  -3   80.67    6.71
  -7   4   3   79.42    7.65
  -7   4   3   66.62    8.72
   7  -4  -2    5.71    4.88
  -7   4   2   10.19    4.66
  -7   4   2   15.85    3.95
   7  -4  -1   91.32   25.19
  -7   4   1   98.55    6.93
  -7   4   1  100.50    6.15
   7  -4   0   79.70    8.35
  -7   4   0   67.14    8.71
  -7   4   0   58.54    6.35
   7  -4   1   11.51    3.70
  -7   4  -1   10.57    3.84
  -7   4  -1   14.64    3.82
   7  -4   2   36.07    4.66
  -7   4  -2   43.70    5.91
  -7   4  -2   48.33    4.65
   7  -4   3  259.39   11.17
  -7   4  -3  258.41   11.22
  -7   4  -3  229.40    8.52
   7  -4   4  259.59   11.13
  -7   4  -4  260.13   11.36
   7  -4   5   34.77    3.84
  -7   4  -5   31.35    4.56
   7  -4   6   12.85    3.35
   7  -4   7  232.10   11.01
  -7   4  -7  257.31   13.15
   7  -4   8   67.60    6.32
  -7   4  -8   68.22   17.12
   7  -4   9   66.65    8.26
  -7   4  -9   78.31    8.25
   7  -3  -5  164.83   10.44
  -7   3   5  169.69   11.55
  -7   3   5  150.75    9.75
   7  -3  -4    2.03    2.73
  -7   3   4    8.77    5.43
  -7   3   4    2.68    3.36
   7  -3  -3   77.19    8.09
  -7   3   3   97.29    8.14
  -7   3   3   72.28    7.78
   7  -3  -2  132.70   13.09
  -7   3   2  140.99    7.75
  -7   3   2  143.22    7.20
   7  -3  -1  150.27    7.64
  -7   3   1  155.21    8.65
  -7   3   1  172.15    8.14
   7  -3   0   18.87    4.60
  -7   3   0    6.79    3.58
  -7   3   0    9.62    4.50
   7  -3   1   14.29    3.87
  -7   3  -1   24.60    5.85
  -7   3  -1   23.54    4.24
   7  -3   2  299.33   11.49
  -7   3  -2  309.90   12.32
  -7   3  -2  285.04   10.01
   7  -3   3   92.96    5.94
  -7   3  -3   77.61    7.25
  -7   3  -3   78.02    4.67
   7  -3   4  148.89    8.07
  -7   3  -4  169.49    9.18
  -7   3  -4  167.81    6.44
   7  -3   5  158.03    8.94
  -7   3  -5  140.84    7.79
  -7   3  -5  145.00    6.86
   7  -3   6  537.15   12.79
  -7   3  -6  545.43   13.30
   7  -3   7  132.98    6.55
   7  -3   8   11.97    3.59
   7  -3   9   85.48    7.70
  -7   3  -9   97.60    9.04
   7  -3  10   51.44    5.11
  -7   3 -10   45.14   10.74
  -7   3 -11    2.53    1.70
   7  -2  -6   26.27    4.11
  -7   2   6   27.35    4.51
  -7   2   6   26.56    4.56
   7  -2  -5   12.24    3.36
  -7   2   5   21.32    5.02
  -7   2   5   14.03    3.92
   7  -2  -4    9.15    3.37
  -7   2   4   11.81    3.77
  -7   2   4   11.41    3.69
   7  -2  -3  229.09    9.65
  -7   2   3  253.04   11.23
  -7   2   3  253.24   11.06
  -7   2   2   42.92    6.17
  -7   2   2   30.94    4.26
   7  -2  -1    9.42    3.42
  -7   2   1   18.52    6.54
  -7   2   1    4.61    2.94
   7  -2   0    6.89    3.06
  -7   2   0    6.59    4.99
  -7   2   0    6.72    3.72
   7  -2   1  599.39   17.14
  -7   2  -1  595.40   17.34
  -7   2  -1  622.10   17.33
   7  -2   2  111.67    6.74
  -7   2  -2  116.64    7.21
  -7   2  -2  122.18    6.94
   7  -2   3    0.40    2.92
  -7   2  -3   14.14    5.25
  -7   2  -3   11.72    3.09
   7  -2   4    9.09    3.28
  -7   2  -4    4.91    4.85
  -7   2  -4    6.01    1.75
   7  -2   5  348.28   13.42
  -7   2  -5  367.14   14.51
  -7   2  -5  333.88   11.84
   7  -2   6   75.14    4.17
  -7   2  -6   88.02    6.53
  -7   2  -6   77.05    3.36
   7  -2   7  358.93   12.30
  -7   2  -7  346.44   12.85
  -7   2  -7  362.43   11.25
   7  -2   8  388.19    9.35
  -7   2  -8  415.29   10.90
   7  -2   9  561.97   18.85
  -7   2  -9  525.24   19.23
   7  -2  10  121.24    6.29
  -7   2 -10  133.16   15.32
  -7   2 -11    6.34    3.04
   7  -1  -6    5.63    3.27
  -7   1   6   16.92    6.22
  -7   1   6    7.86    4.06
   7  -1  -5   81.76    8.58
  -7   1   5   74.17    8.06
  -7   1   5   61.72    6.43
   7  -1  -4   56.94    6.15
  -7   1   4   51.56    5.17
  -7   1   4   53.70    6.36
   7  -1  -3  155.11    8.81
  -7   1   3  167.86    7.67
  -7   1   3  151.76    8.28
   7  -1  -2   23.36    4.09
  -7   1   2   22.32    4.27
  -7   1   2   17.19    3.53
   7  -1  -1    5.46    3.41
  -7   1   1   19.38    4.23
  -7   1   1   19.86    4.94
   7  -1   0  999.33   33.77
  -7   1   0 1076.56   36.26
  -7   1   0 1043.29   35.04
   7  -1   1  297.02   11.66
  -7   1  -1  294.58   12.01
  -7   1  -1  279.68   10.79
   7  -1   2  819.57   27.79
  -7   1  -2  788.35   26.93
  -7   1  -2  825.26   27.83
   7  -1   3   16.77    2.91
  -7   1  -3   19.52    3.09
  -7   1  -3   21.91    3.23
   7  -1   4   58.97    6.02
  -7   1  -4   48.87    4.95
  -7   1  -4   51.33    4.94
   7  -1   5  382.22   14.15
  -7   1  -5  379.14   14.36
  -7   1  -5  357.57   12.78
   7  -1   6    9.12    2.78
  -7   1  -6    4.50    3.12
  -7   1  -6    5.31    1.55
   7  -1   7    8.62    3.11
  -7   1  -7    5.25    3.35
  -7   1  -7    5.64    1.85
   7  -1   8   75.90    4.88
  -7   1  -8   85.78   10.83
  -7   1  -8   75.40    4.21
   7  -1   9   67.02    4.86
  -7   1  -9   63.86    9.81
   7  -1  10  213.81    7.17
  -7   1 -10  209.63   18.55
  -7   1 -12  418.13  117.08
   7   0  -7    1.55    1.42
  -7   0   7    4.88    2.90
  -7   0   7    3.54    3.57
   7   0  -6  152.64    8.50
  -7   0   6  139.99    8.57
  -7   0   6  141.59    9.42
   7   0  -5  378.14   13.18
  -7   0   5  366.86   12.52
  -7   0   5  354.85   13.10
   7   0  -4   10.77    5.13
  -7   0   4   14.41    4.57
  -7   0   4    1.83    3.46
   7   0  -3   34.20    5.84
  -7   0   3   29.87    4.91
  -7   0   3   26.53    4.79
   7   0  -2   58.21    5.84
  -7   0   2   53.56    5.08
  -7   0   2   51.24    4.79
   7   0  -1  264.01   12.56
  -7   0   1  249.13   11.74
  -7   0   1  266.89   36.13
   7   0   0 1658.34   44.98
  -7   0   0 1666.34   45.06
  -7   0   0 1627.28   43.96
   7   0   1    3.73    3.31
  -7   0  -1    5.91    3.09
  -7   0  -1   -1.67    2.85
   7   0   2  123.13    7.97
  -7   0  -2  126.51    8.16
  -7   0  -2  124.96    8.17
   7   0   3  977.81   27.14
  -7   0  -3 1009.93   28.16
  -7   0  -3  979.80   27.02
   7   0   4  864.89   24.15
  -7   0  -4  859.08   24.24
  -7   0  -4  835.25   23.12
   7   0   5   92.00    6.61
  -7   0  -5   87.37    6.56
  -7   0  -5   80.75    5.40
   7   0   6   94.62    5.38
  -7   0  -6   97.38    6.82
  -7   0  -6   91.28    5.17
   7   0   7  701.89   18.48
  -7   0  -7  703.29   19.34
  -7   0  -7  719.81   18.78
   7   0   8  423.02   14.70
  -7   0  -8  416.16   15.39
  -7   0  -8  407.27   14.19
   7   0   9   72.03    4.30
  -7   0  -9   77.45    7.74
  -7   0  -9   74.73    4.27
   7   0  10   12.77    2.68
  -7   0 -10   11.04    2.54
  -7   0 -10   19.09    4.08
  -7   0 -11  121.13   20.11
  -7   0 -12   10.64    3.54
   7   1  -7   -0.01    2.93
  -7  -1   7    5.90    3.14
  -7  -1   7    2.45    3.68
   7   1  -6   87.75   11.99
  -7  -1   6   95.59    6.19
  -7  -1   6   82.03    8.36
   7   1  -5  295.00   11.90
  -7  -1   5  288.15   11.24
  -7  -1   5  314.97   12.73
   7   1  -4   86.49    6.66
  -7  -1   4  106.67    6.61
  -7  -1   4   83.66    6.11
  -7  -1   3  145.31   16.74
  -7  -1   3  178.81    9.15
   7   1  -2  577.96   20.85
  -7  -1   2  553.29   19.44
  -7  -1   2  569.20   20.70
   7   1  -1  395.79   13.04
  -7  -1   1  386.50   12.20
  -7  -1   1  371.25   12.81
   7   1   0    9.83    3.09
  -7  -1   0    7.82    2.74
  -7  -1   0    5.48    3.23
   7   1   1   29.17    3.97
  -7  -1  -1   20.68    2.59
  -7  -1  -1   26.70    3.75
   7   1   2  450.22   11.72
  -7  -1  -2  469.51   12.08
  -7  -1  -2  472.01   12.75
   7   1   3  580.98   14.28
  -7  -1  -3  562.72   14.02
  -7  -1  -3  571.81   14.11
   7   1   4    4.39    2.48
  -7  -1  -4   14.37    2.91
  -7  -1  -4    6.23    2.51
   7   1   5  151.59   10.39
  -7  -1  -5  155.46   10.97
  -7  -1  -5  150.61   10.03
   7   1   6  495.69   14.23
  -7  -1  -6  488.45   15.04
  -7  -1  -6  454.96   13.39
   7   1   7  166.06    7.78
  -7  -1  -7  164.94   12.30
  -7  -1  -7  154.79    7.66
   7   1   8  178.24    8.40
  -7  -1  -8  183.21   17.69
  -7  -1  -8  178.30    8.72
   7   1   9  291.77   10.27
  -7  -1  -9  318.91   20.63
  -7  -1  -9  304.46   11.15
  -7  -1 -10  407.09   10.67
  -7  -1 -10  408.68    9.56
  -7  -1 -11   66.38    9.56
  -7  -1 -11   72.13    6.97
  -7  -1 -12   24.43    4.94
  -7  -1 -12   24.38    2.92
  -7  -1 -13   44.34    6.86
   7   2  -7   12.07    3.40
  -7  -2   7   14.32    2.59
  -7  -2   7   16.97    4.63
   7   2  -6    3.79    2.61
  -7  -2   6   13.01    3.63
  -7  -2   6   10.61    5.40
   7   2  -5   13.44    4.44
  -7  -2   5    3.95    2.48
  -7  -2   5    6.95    3.57
   7   2  -4   27.11    5.09
  -7  -2   4   16.42    2.90
  -7  -2   4    8.18    3.90
   7   2  -3  219.60   14.94
  -7  -2   3  189.64    9.15
   7   2  -2  508.67   18.29
  -7  -2   2  533.55   18.37
  -7  -2   2  509.18   18.40
   7   2  -1   12.45    5.39
  -7  -2   1    1.13    2.03
  -7  -2   1   -1.87    3.10
   7   2   0  554.33   14.36
  -7  -2   0  507.35   12.17
  -7  -2   0  523.13   14.27
   7   2   1 1200.63   27.09
  -7  -2  -1 1208.68   26.57
  -7  -2  -1 1175.63   26.71
   7   2   2  317.82    9.78
  -7  -2  -2  332.50    9.49
  -7  -2  -2  338.07   10.57
   7   2   3    9.73    2.35
  -7  -2  -3    7.16    2.37
  -7  -2  -3   14.06    3.96
   7   2   4  289.46    8.24
  -7  -2  -4  278.85    8.19
  -7  -2  -4  266.55    7.82
   7   2   5  924.33   20.64
  -7  -2  -5  895.08   20.41
  -7  -2  -5  965.05   22.17
   7   2   6  276.79   15.14
  -7  -2  -6  239.94   13.90
  -7  -2  -6  247.53   14.01
   7   2   7   29.56    2.92
  -7  -2  -7   38.78    5.40
  -7  -2  -7   21.72    2.61
   7   2   8  227.63    6.82
  -7  -2  -8  230.90   21.17
  -7  -2  -8  219.28    7.52
   7   2   9  340.47   11.58
  -7  -2  -9  361.09   13.54
  -7  -2  -9  357.96   12.93
  -7  -2 -10   16.29    3.94
  -7  -2 -10   10.79    2.94
  -7  -2 -11  462.19   20.75
  -7  -2 -11  512.96   15.89
  -7  -2 -12   77.77   14.24
  -7  -2 -12   98.67    5.45
  -7  -2 -13   94.85   16.69
  -7  -2 -13  102.63    6.33
   7   3  -7  108.27   15.28
  -7  -3   7  125.85    8.48
   7   3  -6   13.38    3.88
  -7  -3   6    6.98    1.97
  -7  -3   6    6.66    3.56
   7   3  -5   93.57   13.75
  -7  -3   5  128.31    4.94
  -7  -3   5   96.19    7.59
   7   3  -4  373.94   16.13
  -7  -3   4  386.77   13.62
  -7  -3   4  430.84   16.48
   7   3  -3   95.43   10.99
  -7  -3   3   93.05    5.28
  -7  -3   3   85.79    7.54
   7   3  -2   30.19    4.36
  -7  -3   2   25.06    2.92
  -7  -3   2   28.01    3.94
   7   3  -1   90.46    9.98
  -7  -3   1   76.33    5.22
   7   3   0  308.92    9.08
  -7  -3   0  290.83    7.82
  -7  -3   0  297.72    9.59
   7   3   1  450.71   23.95
  -7  -3  -1  450.82   10.86
  -7  -3  -1  420.78   11.45
   7   3   2  161.98   14.41
  -7  -3  -2  157.52   12.08
  -7  -3  -2  149.53   12.14
   7   3   3  598.73   16.03
  -7  -3  -3  602.93   15.19
  -7  -3  -3  581.38   15.24
   7   3   4  554.35   14.86
  -7  -3  -4  709.96   17.16
  -7  -3  -4  714.51   16.98
   7   3   5   21.08    4.09
  -7  -3  -5   30.18    4.53
  -7  -3  -5   29.62    3.44
   7   3   6  293.10   15.96
  -7  -3  -6  306.68   16.92
  -7  -3  -6  290.09   16.24
   7   3   7  120.77    7.51
  -7  -3  -7  139.27   12.45
  -7  -3  -7  140.77    7.58
   7   3   8  254.69    7.21
  -7  -3  -8  304.36   17.04
  -7  -3  -8  300.26    9.32
   7   3   9  218.86    7.60
  -7  -3  -9  211.31   14.10
  -7  -3  -9  246.99    9.78
  -7  -3 -10    5.60    2.53
  -7  -3 -10    7.30    2.48
  -7  -3 -11    8.40    3.48
  -7  -3 -11    6.21    2.59
  -7  -3 -12  161.91   21.23
  -7  -3 -12  188.35    9.39
  -7  -3 -13   17.20    3.94
   7   4  -7    6.19    2.86
  -7  -4   7    6.07    4.76
   7   4  -6   34.04    5.27
  -7  -4   6   21.63    5.28
   7   4  -5    5.32    2.38
  -7  -4   5    2.33    3.41
   7   4  -4  230.24    8.99
  -7  -4   4  219.89    7.48
  -7  -4   4  228.16   10.61
   7   4  -3   14.76    4.24
  -7  -4   3    2.78    1.19
  -7  -4   3    7.38    3.87
   7   4  -2  471.67   17.09
  -7  -4   2  429.23   14.50
  -7  -4   2  451.82   17.13
   7   4  -1  426.37   13.89
  -7  -4   1  437.29   12.42
  -7  -4   1  428.58   14.10
   7   4   0  391.98   22.54
  -7  -4   0  354.29    8.56
  -7  -4   0  379.36   10.71
   7   4   1   67.36    6.80
  -7  -4  -1   58.00    4.47
   7   4   2  544.59   17.23
  -7  -4  -2  552.87   13.78
  -7  -4  -2  578.79   14.62
   7   4   3  503.50   12.43
  -7  -4  -3  491.06   11.72
  -7  -4  -3  522.85   13.43
   7   4   4  287.26   14.36
  -7  -4  -4  249.96   11.92
  -7  -4  -4  263.13    8.61
   7   4   5   82.49    6.56
  -7  -4  -5   82.64   11.51
  -7  -4  -5   78.10    6.03
   7   4   6  170.52   12.60
  -7  -4  -6  161.71   11.98
  -7  -4  -6  180.51   10.65
   7   4   7 1056.63   34.58
  -7  -4  -7 1071.79   35.72
  -7  -4  -7 1118.49   37.26
   7   4   8  272.95    7.45
  -7  -4  -8  279.97    9.17
  -7  -4  -8  294.85    9.75
  -7  -4  -9   11.40    3.11
  -7  -4  -9   10.88    3.39
  -7  -4 -10   84.89   14.53
  -7  -4 -10   98.66    6.55
  -7  -4 -11   50.38    8.71
  -7  -4 -11   54.01    6.32
  -7  -4 -12   92.78    6.21
  -7  -4 -12   97.45    6.38
  -7  -4 -13   23.02    3.92
  -7  -4 -13   13.03    2.73
   7   5  -7   70.36   12.18
  -7  -5   7   68.73    9.06
   7   5  -6   47.42    9.69
   7   5  -5  170.84   17.69
  -7  -5   5  199.80   10.04
  -7  -5   4  209.74    9.24
   7   5  -3  313.72   12.73
  -7  -5   3  299.80   12.94
   7   5  -2  318.62   10.64
  -7  -5   2  288.59    7.64
  -7  -5   2  296.19   11.20
   7   5  -1    4.06    1.87
  -7  -5   1    5.35    0.88
  -7  -5   1    3.00    3.76
   7   5   0  203.85   14.55
  -7  -5   0  190.68   10.83
   7   5   0  183.31    9.90
  -7  -5   0  205.83   12.83
   7   5   1 1018.71   28.43
  -7  -5  -1  970.93   25.90
   7   5   1  870.54   23.29
  -7  -5  -1 1060.58   29.73
   7   5   2  346.71   19.04
  -7  -5  -2  317.39    9.24
  -7  -5  -2  327.05    9.36
   7   5   3    8.41    2.23
  -7  -5  -3    8.62    1.67
  -7  -5  -3    9.16    2.95
   7   5   4   78.52   10.18
  -7  -5  -4   71.43    6.69
  -7  -5  -4   68.95    6.85
   7   5   5  459.00   13.12
  -7  -5  -5  465.68   14.20
  -7  -5  -5  459.20   14.47
   7   5   6  994.76   32.60
  -7  -5  -6  996.14   33.91
  -7  -5  -6  992.31   33.41
   7   5   7  299.49    8.32
  -7  -5  -7  354.26   17.65
  -7  -5  -7  334.78   11.16
   7   5   8   35.63    2.06
  -7  -5  -8   41.18    5.33
  -7  -5  -8   38.09    3.42
  -7  -5  -9  447.09   25.87
  -7  -5  -9  419.61   14.61
  -7  -5 -10  190.67    8.73
  -7  -5 -10  177.36    7.94
  -7  -5 -11   21.87    3.94
  -7  -5 -11   27.58    3.95
  -7  -5 -12    6.71    3.08
  -7  -5 -12    9.35    4.11
   7   6  -7    4.67    1.92
  -7  -6   7    0.90    3.37
   7   6  -6    5.01    2.75
  -7  -6   6    3.58    4.43
   7   6  -5   28.99    7.02
  -7  -6   5   31.85    5.43
  -7  -6   4  276.29    9.48
   7   6  -3   41.81    4.77
  -7  -6   3   52.73    5.08
   7   6  -2  108.32   11.29
  -7  -6   2  131.63    6.91
   7   6  -1  104.29   16.92
  -7  -6   1   98.96    6.74
   7   6   0  414.61   14.89
  -7  -6   0  398.86   13.10
  -7  -6   0  444.66   16.44
   7   6   1  155.06    9.82
  -7  -6  -1  133.69    8.39
  -7  -6  -1  139.79    7.89
   7   6   2    6.53    1.80
  -7  -6  -2    7.48    1.47
   7   6   2    6.68    1.32
  -7  -6  -2    8.69    3.41
   7   6   3  187.68   13.61
  -7  -6  -3  172.84   13.27
  -7  -6  -3  180.13   11.35
   7   6   4  250.48   11.11
  -7  -6  -4  254.44   10.92
   7   6   5  252.75   11.98
  -7  -6  -5  290.74   16.40
  -7  -6  -5  287.55   11.32
   7   6   6  243.11    7.26
  -7  -6  -6  269.91   13.30
  -7  -6  -6  253.64    9.24
  -7  -6  -7    7.56    3.33
  -7  -6  -7    7.25    4.28
  -7  -6  -8  158.54    7.00
  -7  -6  -8  168.52    7.16
  -7  -6  -8  172.36    7.61
  -7  -6  -9  206.34    6.89
  -7  -6  -9  233.04    8.12
  -7  -6 -10   10.43    3.70
   7   6  11   76.37    5.81
  -7  -6 -11  105.09    7.21
   7   6  12   29.92    4.95
  -7  -6 -12   24.14    3.85
   7   7  -6    2.12    2.98
  -7  -7   6    0.32    3.10
   7   7  -5    8.76    3.22
  -7  -7   5    0.84    3.11
   7   7  -4    7.50    2.77
  -7  -7   4    4.50    3.23
   7   7  -3    4.12    1.81
  -7  -7   3    5.68    3.27
   7   7  -2  173.33   21.16
  -7  -7   2  169.19    9.22
   7   7  -1  142.35   21.72
  -7  -7   1  138.30    6.98
   7   7   0   89.84   10.16
  -7  -7   0   85.84    5.92
   7   7   1   96.63    8.47
   7   7   1   88.05    4.13
  -7  -7  -1   99.27    6.48
   7   7   2   10.80    2.44
   7   7   2    3.79    0.90
  -7  -7  -2    7.85    4.77
   7   7   3  198.75    9.86
  -7  -7  -3  212.91    8.13
   7   7   4  578.32   15.65
  -7  -7  -4  581.98   17.06
   7   7   5  104.36    5.58
  -7  -7  -5  100.75    7.74
  -7  -7  -6  246.74    9.16
   7   7   6  237.39    9.23
  -7  -7  -7  240.82    8.08
   7   7   7  244.83    9.15
  -7  -7  -7  237.85    9.67
   7   7   8  112.52    7.39
  -7  -7  -8  105.30    7.10
   7   7   9   43.36    5.42
  -7  -7  -9   48.50    5.74
   7   7  10   10.19    3.06
  -7  -7 -10   11.31    3.26
   7   7  11  245.79   14.72
  -7  -7 -11  246.70   14.77
   7   8  -6  154.57    9.52
  -7  -8   6  139.88    9.03
  -7  -8   5   85.28    7.36
   7   8  -4  212.20   11.08
  -7  -8   4  201.39   11.17
   7   8  -3   -2.30    2.59
  -7  -8   3    3.31    2.99
   7   8  -2    8.61    3.02
  -7  -8   2   11.87    3.44
   7   8  -1   17.65    4.66
  -7  -8   1   17.20    4.70
   7   8   0    8.61    4.19
  -7  -8   0   10.65    2.90
   7   8   1   86.09    5.51
  -7  -8  -1   65.54    4.93
   7   8   2  209.59    8.99
  -7  -8  -2  218.27   10.45
   7   8   3  202.26    7.37
  -7  -8  -3  213.24    9.66
  -7  -8  -4  295.15   10.40
   7   8   4  280.42    9.11
  -7  -8  -4  282.05   11.16
  -7  -8  -5   96.81    5.37
   7   8   5  105.95    5.56
  -7  -8  -5  106.43    7.20
  -7  -8  -6  478.76   10.70
   7   8   6  504.63   11.45
  -7  -8  -6  501.05   12.65
  -7  -8  -7   54.89    4.37
   7   8   7   64.89    6.03
  -7  -8  -7   58.97    5.88
   7   8   8    3.47    2.51
  -7  -8  -8    4.60    4.20
   7   8   9   40.38    4.61
  -7  -8  -9   24.31    4.25
   7   8  10   87.17    6.98
  -7  -8 -10   87.84    6.77
  -7  -9   5    5.78    4.82
  -7  -9   5   -3.72    2.91
  -7  -9   4   22.43    4.36
  -7  -9   4   18.80    6.18
  -7  -9   3   95.36    7.61
  -7  -9   2   36.35    5.43
  -7  -9   2   51.11    6.35
  -7  -9   1  107.79   10.41
  -7  -9   1  110.85   11.02
  -7  -9   0   15.13    4.32
  -7  -9   0    3.49    2.69
  -7  -9  -1  120.65    7.63
  -7  -9  -1  134.77    6.02
  -7  -9  -2   66.89    5.91
  -7  -9  -2   67.41    6.44
  -7  -9  -3   11.21    2.91
  -7  -9  -3   11.03    3.36
  -7  -9  -4    3.74    2.09
   7   9   4    4.42    1.96
  -7  -9  -4   13.31    4.57
  -7  -9  -5  563.94   19.28
   7   9   5  554.52   18.36
  -7  -9  -5  561.32   19.94
  -7  -9  -6    6.81    2.32
   7   9   6    4.18    2.38
  -7  -9  -6   10.07    3.42
  -7  -9  -7   17.73    5.33
   7   9   7   15.05    3.27
  -7  -9  -7   11.69    3.35
   7   9   8    8.90    3.80
  -7  -9  -8   11.79    5.15
   7   9   9  121.17    8.08
  -7 -10   3   12.24    4.17
  -7 -10   2   59.18    8.98
  -7 -10   2   37.34    5.88
  -7 -10   1    1.34    2.79
  -7 -10   1    4.36    2.76
  -7 -10   0  524.36   23.09
  -7 -10   0  470.10   20.94
  -7 -10  -1   60.79    7.35
  -7 -10  -1   43.95    5.82
  -7 -10  -2   17.79    5.66
  -7 -10  -2   10.11    4.09
  -7 -10  -3    2.81    2.32
  -7 -10  -3   11.64    4.19
  -7 -10  -4  157.01    8.34
  -7 -10  -4  158.65    8.84
  -7 -10  -5   77.56    4.78
  -7 -10  -5   80.27    6.30
  -7 -10  -6   60.58    5.59
  -7 -10  -6   69.48   17.82
   7  10   7   48.77    6.02
  -7 -10  -7   57.76    7.63
  -7 -11   1   11.49    3.82
  -7 -11   0    9.43    3.82
  -7 -11   0    8.64    4.47
  -7 -11  -1   11.62    4.70
  -7 -11  -1    3.05    2.71
  -7 -11  -2    1.39    2.59
  -7 -11  -2   -0.52    2.58
  -7 -11  -3   59.98    7.48
  -7 -11  -3   47.14    6.84
  -7 -11  -4   47.89    5.71
  -7 -11  -4   52.84    6.03
  -7 -11  -5   24.72    4.06
  -7 -11  -5   30.33    5.15
   8  -4   0   12.42    4.69
  -8   4   0    7.81    4.37
  -8   4   0    3.33    2.72
   8  -4   1  301.10   17.45
  -8   4  -1  327.46   18.89
  -8   4  -1  278.36   15.36
   8  -4   2   86.73    6.70
  -8   4  -2  110.08    8.25
  -8   4  -2  103.53    6.66
   8  -4   3   84.25    6.51
  -8   4  -3   88.82    7.40
   8  -4   4   29.97    4.81
  -8   4  -4   32.20    6.65
   8  -4   5   73.42    6.32
  -8   4  -5   72.26    9.43
   8  -4   6   38.88    5.52
  -8   4  -6   40.12    6.01
   8  -4   7    0.89    2.66
  -8   4  -7    0.47    3.25
   8  -3  -2   10.83    4.16
  -8   3   2    4.05    5.35
  -8   3   2    6.54    3.52
   8  -3  -1   13.21    5.50
  -8   3   1   12.90    4.96
  -8   3   1   13.54    5.37
  -8   3   0    0.72    3.50
  -8   3   0    3.84    2.52
   8  -3   1  116.44    8.01
  -8   3  -1  116.57    8.12
  -8   3  -1  113.88    6.68
   8  -3   2   15.91    3.75
  -8   3  -2   14.65    3.98
  -8   3  -2   20.47    3.60
  -8   3  -3   41.84    6.22
  -8   3  -3   36.53    4.54
   8  -3   4  296.35   10.70
  -8   3  -4  316.71   13.02
  -8   3  -4  262.58    8.75
   8  -3   5  220.71   10.70
  -8   3  -5  250.08   12.86
   8  -3   6  209.22   10.49
  -8   3  -6  220.76   12.03
   8  -3   7   39.63    4.96
  -8   3  -7   31.45    4.43
   8  -3   8   30.56    5.09
  -8   3  -8   36.42    6.03
   8  -3   9   62.83    5.02
   8  -2  -3   58.47    7.81
  -8   2   3   55.87    8.47
  -8   2   3   64.51    8.45
   8  -2  -2   68.49   17.18
  -8   2   2   77.74    7.01
  -8   2   2   81.55    6.23
   8  -2  -1  382.08   17.51
  -8   2   1  448.28   19.86
  -8   2   1  465.54   20.68
   8  -2   0  207.70    8.58
  -8   2   0  244.24   10.30
  -8   2   0  215.53    8.30
   8  -2   1   12.10    3.54
  -8   2  -1   17.08    4.54
  -8   2  -1   12.99    3.69
   8  -2   2  110.61    9.08
  -8   2  -2  111.15    9.04
  -8   2  -2  101.05    7.91
   8  -2   3    8.07    5.11
  -8   2  -3    2.80    3.35
  -8   2  -3    1.85    1.95
   8  -2   4  209.33    8.81
  -8   2  -4  229.59   10.28
  -8   2  -4  181.16    7.45
   8  -2   5   14.44    3.65
  -8   2  -5   17.81    5.43
  -8   2  -5   20.28    3.96
   8  -2   6  126.73    9.65
  -8   2  -6  147.32    7.99
   8  -2   7  314.17   11.11
  -8   2  -7  349.44   12.64
   8  -2   8  416.38   17.99
  -8   2  -8  433.63   19.71
   8  -2   9  113.28    6.28
  -8   2  -9   99.66   13.86
  -8   2 -10   28.12    8.06
   8  -1  -4   10.84    3.86
  -8   1   4   15.49    7.01
  -8   1   4    2.83    3.06
   8  -1  -3   29.00    4.74
  -8   1   3   19.84    3.82
  -8   1   3   26.11    5.68
   8  -1  -2    6.67    4.38
  -8   1   2   16.66    6.30
  -8   1   2   11.99    4.73
   8  -1  -1  197.86    9.13
  -8   1   1  192.79    8.70
  -8   1   1  216.07    9.77
   8  -1   0    5.87    3.19
  -8   1   0    5.65    3.39
  -8   1   0    9.01    4.27
   8  -1   1  374.47   13.77
  -8   1  -1  371.08   13.95
  -8   1  -1  364.77   13.32
   8  -1   2  199.04    9.15
  -8   1  -2  192.66    9.11
  -8   1  -2  183.21    8.01
   8  -1   3  203.93    8.87
  -8   1  -3  218.04    9.05
  -8   1  -3  208.08    7.88
   8  -1   4  235.37    9.46
  -8   1  -4  233.95   10.02
  -8   1  -4  217.14    7.98
   8  -1   5   28.12    4.85
  -8   1  -5   38.96    5.49
  -8   1  -5   29.29    4.31
   8  -1   6   16.37    3.24
  -8   1  -6   28.65    4.11
  -8   1  -6   24.15    4.93
   8  -1   7  188.44    8.03
  -8   1  -7  208.22   10.33
  -8   1  -7  188.79    7.25
   8  -1   8   24.61    3.99
  -8   1  -8   29.04    4.68
   8  -1   9  163.29    8.06
  -8   1  -9  166.52   14.45
  -8   1 -10  433.80   24.25
  -8   1 -11  148.92   15.81
   8   0  -5    8.58    3.78
  -8   0   5    5.11    2.88
  -8   0   5    5.60    4.03
   8   0  -4   59.88    6.71
  -8   0   4   63.04    6.97
  -8   0   4   61.96    6.95
  -8   0   3  247.75   10.21
  -8   0   3  256.47   11.20
   8   0  -2  127.47    9.97
  -8   0   2  124.12    9.90
  -8   0   2  136.53    7.22
   8   0  -1   28.92    4.27
  -8   0   1   30.53    4.54
  -8   0   1   25.42    3.84
   8   0   0   68.39    6.20
  -8   0   0   76.26    6.15
  -8   0   0   80.44    6.38
   8   0   1    4.66    3.02
  -8   0  -1    8.50    3.41
  -8   0  -1    5.03    2.79
   8   0   2  298.04   11.79
  -8   0  -2  278.62   11.50
  -8   0  -2  255.78   10.08
   8   0   3   29.37    4.59
  -8   0  -3   29.47    5.29
  -8   0  -3   38.64    4.05
   8   0   4   93.05    5.66
  -8   0  -4   95.97    6.77
  -8   0  -4   87.46    5.01
   8   0   5  827.29   28.20
  -8   0  -5  837.05   28.87
  -8   0  -5  831.05   28.15
   8   0   6  590.38   18.66
  -8   0  -6  650.86   20.94
  -8   0  -6  640.65   19.72
   8   0   7   15.88    2.79
  -8   0  -7   16.87    3.64
  -8   0  -7   18.65    3.45
   8   0   8   13.25    2.87
  -8   0  -8   24.98    5.32
  -8   0  -8    6.49    1.92
   8   0   9   39.71    4.66
  -8   0  -9   51.61    7.98
  -8   0  -9   53.77    5.54
  -8   0 -10  124.85   15.10
   8   1  -5   21.73    4.20
  -8  -1   5   16.02    4.80
  -8  -1   5   25.02    5.60
   8   1  -4    6.36    2.59
  -8  -1   4    8.56    3.56
  -8  -1   4   14.53    5.46
  -8  -1   3   71.53    6.57
  -8  -1   3   65.06    6.57
   8   1  -2   23.69    5.51
  -8  -1   2   28.25    3.84
  -8  -1   2   22.99    4.39
   8   1  -1   81.72    6.38
  -8  -1   1   72.01    5.17
  -8  -1   1   74.62    6.49
   8   1   0  327.23   13.31
  -8  -1   0  327.19   12.70
  -8  -1   0  302.42   11.86
   8   1   1  397.12   12.81
  -8  -1  -1  397.46   12.34
  -8  -1  -1  420.23   12.76
   8   1   2   12.51    4.24
  -8  -1  -2    9.09    4.42
  -8  -1  -2   18.75    4.02
   8   1   3  242.34    8.75
  -8  -1  -3  251.04    8.55
  -8  -1  -3  213.14    7.74
   8   1   4    4.22    2.68
  -8  -1  -4    0.48    2.79
  -8  -1  -4   11.50    3.92
   8   1   5  256.09    8.53
  -8  -1  -5  274.59    9.99
  -8  -1  -5  271.68    8.97
   8   1   6   26.99    3.96
  -8  -1  -6   12.02    2.50
  -8  -1  -6   22.11    3.48
   8   1   7  893.99   26.98
  -8  -1  -7  905.29   29.26
  -8  -1  -7  943.97   28.59
   8   1   8  752.91   15.48
  -8  -1  -8  754.06   34.70
  -8  -1  -8  757.69   15.74
   8   1   9  173.59    6.73
  -8  -1  -9  166.01   15.82
  -8  -1  -9  164.43    6.66
  -8  -1 -10   12.12    2.21
  -8  -1 -10    8.97    2.86
  -8  -1 -11   50.97    8.75
  -8  -1 -12    8.90    4.79
   8   2  -6   37.19    8.02
  -8  -2   6   37.44    6.44
   8   2  -5  148.72   17.35
  -8  -2   5  161.57    8.37
  -8  -2   5  163.31   10.80
   8   2  -4   74.00   12.40
  -8  -2   3   12.59    3.29
  -8  -2   3   18.80    6.57
   8   2  -2   33.64    5.81
  -8  -2   2   24.62    4.10
  -8  -2   2   37.36    4.42
   8   2  -1   71.04    5.94
  -8  -2   1   67.96    4.56
  -8  -2   1   69.20    5.60
   8   2   0    9.97    3.40
  -8  -2   0   12.15    3.53
  -8  -2   0    3.38    3.45
   8   2   1    8.22    3.13
  -8  -2  -1    2.39    2.45
  -8  -2  -1   10.35    4.74
   8   2   2  382.21   11.66
  -8  -2  -2  362.84   10.87
  -8  -2  -2  358.18   11.48
   8   2   3  413.53   15.32
  -8  -2  -3  415.99   14.86
  -8  -2  -3  393.32   14.53
   8   2   4  404.46   12.33
  -8  -2  -4  405.39   12.29
  -8  -2  -4  423.11   13.10
   8   2   5    7.52    2.24
  -8  -2  -5   10.52    4.03
  -8  -2  -5    7.78    2.05
   8   2   6   14.94    3.35
  -8  -2  -6   27.21    4.55
  -8  -2  -6   17.35    3.55
   8   2   7  115.31    5.15
  -8  -2  -7  113.23   13.02
  -8  -2  -7  112.96    5.53
   8   2   8  186.03    7.12
  -8  -2  -8  199.94   13.11
  -8  -2  -8  199.76    7.57
   8   2   9    5.19    1.77
  -8  -2  -9    5.47    2.18
  -8  -2  -9    0.43    1.96
  -8  -2 -10  633.27   19.79
  -8  -2 -10  662.16   83.31
  -8  -2 -11  145.68   18.66
  -8  -2 -11  179.23    8.78
  -8  -2 -12  233.93   13.50
  -8  -2 -12  216.92   12.01
   8   3  -6   17.25    3.64
  -8  -3   6   18.51    4.94
   8   3  -5    3.91    2.39
  -8  -3   5    4.17    3.85
   8   3  -4   18.62    4.26
  -8  -3   4   16.63    3.00
  -8  -3   4   12.26    4.53
   8   3  -3   27.99    5.25
  -8  -3   3   30.09    3.37
   8   3  -2  224.21   16.93
  -8  -3   2  199.54    7.45
   8   3  -1  508.56   28.43
  -8  -3   1  441.84   15.44
  -8  -3   1  438.78   16.42
   8   3   0    8.98    2.89
  -8  -3   0   10.91    2.63
  -8  -3   0   20.81    5.50
   8   3   1   16.47    3.49
  -8  -3  -1   -0.42    1.93
  -8  -3  -1    1.59    3.22
   8   3   2   10.82    2.37
  -8  -3  -2   12.59    3.04
  -8  -3  -2   17.05    3.00
   8   3   3  131.30    9.64
  -8  -3  -3  128.81    6.88
  -8  -3  -3  116.43    6.68
   8   3   4  143.05   12.74
  -8  -3  -4  127.71    6.96
  -8  -3  -4  129.56    7.59
   8   3   5 1225.44   31.38
  -8  -3  -5 1247.79  125.40
  -8  -3  -5 1255.22  126.27
   8   3   6  573.77   15.45
  -8  -3  -6  562.81   15.61
  -8  -3  -6  587.88   16.51
   8   3   7  261.00    9.97
  -8  -3  -7  265.86   17.03
  -8  -3  -7  279.49   11.26
   8   3   8   12.42    2.35
  -8  -3  -8   10.19    3.27
  -8  -3  -8   14.64    3.55
   8   3   9    6.91    1.67
  -8  -3  -9    6.34    2.59
  -8  -3  -9    4.42    2.08
  -8  -3 -10  172.58   16.91
  -8  -3 -10  179.80    7.53
  -8  -3 -11   28.50    5.03
  -8  -3 -11   24.86    3.58
  -8  -3 -12   18.05    4.14
  -8  -3 -12   16.27    3.24
   8   4  -6   56.06   10.78
  -8  -4   6   67.98    6.38
   8   4  -5    4.83    2.37
  -8  -4   5    2.95    3.77
  -8  -4   4   10.50    5.19
   8   4  -3   69.05   11.12
  -8  -4   3   69.63    5.34
  -8  -4   3   68.67    6.49
   8   4  -2    6.41    2.23
  -8  -4   2    7.56    2.92
  -8  -4   2    5.31    3.36
   8   4  -1   59.34    9.03
  -8  -4   1   48.97    3.07
  -8  -4   1   35.91    4.43
   8   4   0   81.35   11.85
  -8  -4   0   86.79    5.30
  -8  -4   0   90.43    6.75
   8   4   1  301.15   18.68
  -8  -4  -1  308.90    8.92
  -8  -4  -1  283.16    9.52
   8   4   2  205.09    9.69
  -8  -4  -2  213.51    6.66
  -8  -4  -2  213.96    8.87
   8   4   3   15.21    3.10
  -8  -4  -3   11.81    2.08
  -8  -4  -3   15.63    4.59
   8   4   4   32.58    5.25
  -8  -4  -4   32.16    6.28
  -8  -4  -4   33.44    5.48
   8   4   5  355.41   11.22
  -8  -4  -5  371.65   11.22
  -8  -4  -5  350.67   11.39
   8   4   6    4.43    1.53
  -8  -4  -6    8.34    2.60
  -8  -4  -6    6.85    2.78
   8   4   7  369.42   13.10
  -8  -4  -7  366.56   18.59
  -8  -4  -7  429.67   15.64
   8   4   8  244.79    9.16
  -8  -4  -8  249.56   13.54
  -8  -4  -8  289.66   10.79
  -8  -4  -9  244.46   14.28
  -8  -4  -9  249.70    9.83
  -8  -4 -10   83.48   14.42
  -8  -4 -10   92.70    9.19
  -8  -4 -11    3.99    2.20
  -8  -4 -11    4.42    3.47
  -8  -4 -12   44.29    9.46
  -8  -4 -12   67.61    6.02
   8   5  -6    9.07    4.43
  -8  -5   6    7.51    3.97
   8   5  -5    6.80    2.88
  -8  -5   5    3.40    3.81
   8   5  -4  150.93   16.37
  -8  -5   4  157.17    7.85
   8   5  -3  312.76   19.62
  -8  -5   3  395.04   15.34
   8   5  -2    4.29    2.17
  -8  -5   2    5.61    3.45
   8   5  -1    1.60    1.96
  -8  -5   1    5.80    1.51
  -8  -5   1    9.40    3.59
   8   5   0    8.14    1.80
  -8  -5   0    3.02    1.30
  -8  -5   0    9.15    3.58
   8   5   1   20.20    4.48
  -8  -5  -1   22.18    4.40
   8   5   2  107.56   14.12
  -8  -5  -2   98.44   10.02
  -8  -5  -2  100.58    7.10
   8   5   3  593.56   29.12
  -8  -5  -3  547.09   15.60
  -8  -5  -3  613.75   17.64
   8   5   4  455.17   13.10
  -8  -5  -4  464.16   13.64
  -8  -5  -4  495.32   15.17
   8   5   5  341.02   11.10
  -8  -5  -5  335.12   10.95
  -8  -5  -5  340.09   10.92
   8   5   6    9.43    1.94
  -8  -5  -6    6.15    2.50
  -8  -5  -6    8.37    2.82
   8   5   7    8.72    2.04
  -8  -5  -7   19.82    4.10
  -8  -5  -7   13.93    3.21
   8   5   8    5.13    1.54
  -8  -5  -8   11.00    4.35
  -8  -5  -9  101.68   11.91
  -8  -5  -9  125.69    9.87
  -8  -5 -10   90.43   17.35
  -8  -5 -10  106.30    7.47
  -8  -5 -11  186.96   11.46
  -8  -5 -11  194.86   11.59
   8   6  -5  107.77   14.26
  -8  -6   5  126.88   10.11
   8   6  -4   11.01    3.01
  -8  -6   4   -0.44    3.60
   8   6  -3   26.41    3.81
  -8  -6   3   18.77    4.72
   8   6  -2  166.65   14.84
  -8  -6   2  200.90   10.08
   8   6  -1  109.59   16.59
  -8  -6   1  110.53    6.98
   8   6   0  151.59   14.00
  -8  -6   0  183.34    9.53
   8   6   1   45.40    7.41
  -8  -6  -1   29.83    6.20
  -8  -6  -1   43.33    6.04
   8   6   2    8.29    2.71
  -8  -6  -2    0.74    0.87
  -8  -6  -2    6.98    3.64
   8   6   3   95.31    9.23
  -8  -6  -3  103.73    7.85
   8   6   4   11.51    2.38
  -8  -6  -4   13.08    2.29
  -8  -6  -4   10.34    2.93
   8   6   5  421.31   14.91
  -8  -6  -5  371.07   13.30
  -8  -6  -5  401.37   15.25
   8   6   6  200.92   12.65
  -8  -6  -6  192.88   15.90
  -8  -6  -6  225.29    9.06
   8   6   7   55.37    4.21
  -8  -6  -7   48.82    9.12
  -8  -6  -7   58.87    5.70
   8   6   8  122.29    8.31
  -8  -6  -8  133.93    9.05
  -8  -6  -8  122.23    9.11
  -8  -6  -9    8.61    4.01
  -8  -6  -9   11.43    4.04
  -8  -6 -10   41.46    4.78
  -8  -6 -10   41.88    4.55
  -8  -6 -11   91.59    7.17
  -8  -6 -11  113.50    7.82
   8   7  -5   52.10    6.47
  -8  -7   5   64.93    6.41
  -8  -7   4    2.48    3.35
   8   7  -3  167.96   18.59
  -8  -7   3  163.91    9.01
   8   7  -2   33.82    4.41
  -8  -7   2   24.71    4.76
   8   7  -1    4.64    2.01
  -8  -7   1    6.14    3.35
   8   7   0   56.17    9.37
  -8  -7   0   52.01    5.39
   8   7   1  182.61   15.18
  -8  -7  -1  184.71    8.27
   8   7   2  414.96   13.85
  -8  -7  -2  437.72   15.24
   8   7   3  254.39    9.67
  -8  -7  -3  241.62    8.02
  -8  -7  -3  257.77   10.65
   8   7   4   19.78    3.63
  -8  -7  -4   14.18    2.31
  -8  -7  -4   19.47    4.07
   8   7   5   22.44    3.48
  -8  -7  -5   21.16    3.38
  -8  -7  -5   30.35    5.49
   8   7   6    4.81    2.40
  -8  -7  -6    4.62    2.46
  -8  -7  -6    3.28    2.69
  -8  -7  -7    5.90    2.36
  -8  -7  -7    1.41    1.88
  -8  -7  -7    5.80    2.91
  -8  -7  -8   75.74    7.58
  -8  -7  -8   83.48    8.99
  -8  -7  -9   95.52    6.98
   8   7  10   99.52    7.78
  -8  -7 -10   87.03    6.58
   8   8  -4   11.24    4.53
  -8  -8   4   13.21    4.35
   8   8  -3  268.87   12.99
  -8  -8   3  283.32   13.97
   8   8  -2   26.90    4.65
  -8  -8   2   33.23    5.43
   8   8  -1   15.72    3.90
  -8  -8   1   10.61    3.84
   8   8   0   17.30    4.09
  -8  -8   0   23.01    6.15
   8   8   1   32.05    4.18
  -8  -8  -1   20.72    4.92
   8   8   2    3.92    2.31
  -8  -8  -2    4.97    4.36
   8   8   3   24.25    5.08
  -8  -8  -3   24.98    5.89
   8   8   4   55.71    4.78
   8   8   4   55.39    4.45
  -8  -8  -4   61.00    5.73
  -8  -8  -5  429.56   15.12
   8   8   5  393.85   13.52
  -8  -8  -5  413.44   15.59
  -8  -8  -6   53.70    5.82
   8   8   6   54.48    5.57
  -8  -8  -6   59.81    7.33
  -8  -8  -7    0.90    1.54
   8   8   7    3.88    2.67
  -8  -8  -7   17.07    4.81
   8   8   8   21.42    3.38
  -8  -8  -8   36.77    5.07
   8   8   9   19.16    6.25
  -8  -8  -9   42.46    7.21
   8   9  -3   20.84    4.05
  -8  -9   3   -0.65    3.03
   8   9  -2   14.04    5.40
  -8  -9   2   13.29    5.22
   8   9  -1  213.67   11.25
  -8  -9   1  247.90   12.57
   8   9   0  263.69   12.35
  -8  -9   0  294.16   13.86
   8   9   1   41.21    5.20
  -8  -9  -1   38.90    6.41
  -8  -9  -2    4.02    2.91
  -8  -9  -3    7.93    2.89
  -8  -9  -3    3.91    2.92
  -8  -9  -4   62.54    6.46
  -8  -9  -4   69.91    7.22
  -8  -9  -5    5.68    2.05
  -8  -9  -5   -0.25    3.19
  -8  -9  -6   53.44    5.06
   8   9   6   47.68    4.44
  -8  -9  -6   38.82    4.86
   8   9   7   88.42    6.21
  -8  -9  -7  111.98    8.40
   8   9   8   17.60    3.00
  -8 -10   1   59.00    5.96
  -8 -10   1   41.82    5.35
  -8 -10   0   19.68    6.86
  -8 -10   0   12.31    4.11
  -8 -10  -1    5.03    4.26
  -8 -10  -2  135.43    8.97
  -8 -10  -2  116.51    8.29
  -8 -10  -3  240.10   14.14
  -8 -10  -3  252.52   14.96
  -8 -10  -4  119.86    7.84
  -8 -10  -4  128.85    9.39
  -8 -10  -5   50.69    6.47
  -8 -10  -5   62.43    8.30
  -8 -10  -6   12.31    2.75
  -8 -10  -6   10.33    5.33
   9  -2   0    3.69    3.37
  -9   2   0   16.36    5.20
  -9   2   0   -1.24    2.49
   9  -2   1  100.79    7.44
  -9   2  -1  122.18    8.99
  -9   2  -1  122.49    8.83
   9  -2   2  297.45   16.86
  -9   2  -2  303.04   17.80
  -9   2  -2  300.61   17.04
   9  -2   3  175.72   11.59
  -9   2  -3  174.57   12.18
  -9   2  -3  145.42    8.97
   9  -2   4    5.73    3.35
  -9   2  -4    1.44    3.47
  -9   2  -4    0.68    1.77
   9  -2   5  140.66    9.73
  -9   2  -5  138.13   10.34
   9  -2   6    6.25    3.06
  -9   2  -6    2.77    4.34
   9  -2   7   31.71    4.51
  -9   2  -7   25.12    4.52
   9  -1  -1   98.50    7.58
  -9   1   1  112.33    8.61
  -9   1   1  101.79    8.18
   9  -1   0  126.68    9.27
  -9   1   0   89.52    6.06
  -9   1   0   73.66   18.43
   9  -1   1    1.15    3.18
  -9   1  -1    6.72    5.08
  -9   1  -1    1.61    2.58
   9  -1   2    8.03    3.24
  -9   1  -2   17.05    4.13
  -9   1  -2   16.32    3.80
   9  -1   3   72.93    7.43
  -9   1  -3   61.01    6.67
  -9   1  -3   65.95    7.06
   9  -1   4  447.78   19.75
  -9   1  -4  451.44   19.93
  -9   1  -4  424.96   18.25
   9  -1   5   78.33    8.12
  -9   1  -5   89.92    9.54
  -9   1  -5   86.41    7.74
   9  -1   6   49.25    5.70
  -9   1  -6   26.22    5.30
  -9   1  -6   38.40    4.20
   9  -1   7    9.00    4.80
  -9   1  -7   14.33    4.44
   9  -1   8    0.28    2.22
  -9   1  -8    4.20    3.40
   9  -1   9    5.10    2.56
  -9   1  -9    4.15    3.26
   9   0  -2   20.47    4.54
  -9   0   2   11.79    4.97
  -9   0   2   10.00    4.07
  -9   0   1  285.02   13.96
  -9   0   1  266.13   13.15
   9   0   0  232.81   11.81
  -9   0   0  238.04   12.10
  -9   0   0  236.13   12.31
   9   0   1   86.80    8.78
  -9   0  -1   99.59    9.97
  -9   0  -1   77.40    9.13
   9   0   2   10.17    4.33
  -9   0  -2   14.72    4.75
  -9   0  -2    5.37    2.66
   9   0   3   88.35    8.71
  -9   0  -3   86.81    9.20
  -9   0  -3   81.96    8.49
   9   0   4   87.29    9.03
  -9   0  -4   98.16   10.13
  -9   0  -4   77.93    7.55
   9   0   5   70.65    7.55
  -9   0  -5   57.85    6.98
  -9   0  -5   60.41    6.03
   9   0   6   33.00    4.92
  -9   0  -6   28.55    4.47
  -9   0  -6   29.22    3.67
   9   0   7  392.81   17.26
  -9   0  -7  398.21   17.76
  -9   0  -7  390.79   16.72
   9   0   8  119.61    6.65
  -9   0  -8  134.90   11.78
   9   0   9  111.28    6.84
  -9   0  -9  104.11   15.88
  -9   0 -10    2.16    2.79
   9   1  -3   62.23    9.12
  -9  -1   3   54.10    7.24
  -9  -1   3   67.18    9.37
   9   1  -2   75.61   19.15
  -9  -1   2   74.10   18.52
  -9  -1   2   99.74    8.85
   9   1  -1    1.98    3.27
  -9  -1   1    4.76    3.89
  -9  -1   1   10.63    5.03
   9   1   0    9.67    4.50
  -9  -1   0    6.80    4.05
  -9  -1   0    7.00    3.42
   9   1   1   14.77    4.96
  -9  -1  -1    5.20    2.89
  -9  -1  -1    0.93    2.88
   9   1   2  767.07  141.97
  -9  -1  -2  774.52  143.33
  -9  -1  -2  723.65   24.60
   9   1   3  113.96    9.30
  -9  -1  -3  115.39    9.15
  -9  -1  -3  107.01    8.34
   9   1   4  134.99    6.91
  -9  -1  -4  144.66    7.49
  -9  -1  -4  125.25    9.75
   9   1   5   14.21    3.42
  -9  -1  -5   31.93    4.45
  -9  -1  -5   18.60    4.33
   9   1   6  268.87   10.70
  -9  -1  -6  268.06   11.12
  -9  -1  -6  280.21   10.95
   9   1   7    4.08    3.12
  -9  -1  -7    8.40    3.66
  -9  -1  -7    5.45    3.08
   9   1   8    2.84    2.54
  -9  -1  -8    5.76    2.64
   9   1   9  123.06    6.59
  -9  -1  -9  117.71   16.74
  -9  -1  -9  122.80    6.70
  -9  -1 -10  346.49   33.08
   9   2  -4    4.01    3.70
  -9  -2   4    7.29    3.30
  -9  -2   4    5.49    3.68
   9   2  -3  327.86   29.61
  -9  -2   3  328.21   17.97
  -9  -2   3  351.30   20.45
   9   2  -2   94.21   15.40
  -9  -2   2  106.75    6.71
  -9  -2   2   88.36    8.41
   9   2  -1    6.18    4.61
  -9  -2   1    5.92    2.40
  -9  -2   1    6.22    3.64
   9   2   0   32.04    4.57
  -9  -2   0   30.99    4.60
  -9  -2   0   25.85    5.68
   9   2   1  177.10    8.05
  -9  -2  -1  174.51    7.78
  -9  -2  -1  170.71    8.60
   9   2   2   41.31    4.44
  -9  -2  -2   39.12    4.75
  -9  -2  -2   37.95    4.77
   9   2   3   58.41    5.13
  -9  -2  -3   61.27    5.07
  -9  -2  -3   60.75    5.59
   9   2   4  209.29    7.06
  -9  -2  -4  208.27    7.09
  -9  -2  -4  205.64    7.14
   9   2   5  389.74    9.84
  -9  -2  -5  400.30   10.54
  -9  -2  -5  401.51   10.40
   9   2   6  521.78   17.95
  -9  -2  -6  509.22   27.11
   9   2   7   12.14    3.01
  -9  -2  -7   16.86    3.36
  -9  -2  -7   16.80    3.75
   9   2   8  100.82    9.45
  -9  -2  -8   85.09   14.88
  -9  -2  -8  107.75   10.21
  -9  -2  -9   43.86    6.65
  -9  -2  -9   36.10    4.41
  -9  -2 -10    4.25    1.72
  -9  -2 -10   14.34    4.76
   9   3  -4   24.52    4.93
  -9  -3   4   14.50    4.15
   9   3  -3    9.49    4.18
  -9  -3   3    2.39    1.91
  -9  -3   3    3.78    3.59
   9   3  -2   65.90    8.26
  -9  -3   2   75.76    7.19
  -9  -3   2   66.83    7.18
   9   3  -1   43.20    6.21
  -9  -3   1   32.53    3.97
  -9  -3   1   38.49    6.77
   9   3   0   62.86   10.85
  -9  -3   0   62.70    5.33
  -9  -3   0   81.60    8.36
   9   3   1  257.32   13.19
  -9  -3  -1  248.58    6.98
  -9  -3  -1  249.64    8.97
   9   3   2    8.40    3.12
  -9  -3  -2   12.60    2.91
  -9  -3  -2    2.50    2.77
   9   3   3  163.13   16.36
  -9  -3  -3  164.59    5.92
  -9  -3  -3  176.16    6.99
   9   3   4   59.42    7.08
  -9  -3  -4   74.09    5.28
  -9  -3  -4   62.47    5.15
   9   3   5    5.82    2.52
  -9  -3  -5    3.63    2.32
  -9  -3  -5    1.90    2.37
   9   3   6    5.38    1.87
  -9  -3  -6    4.26    2.32
  -9  -3  -6   -1.15    1.93
   9   3   7  145.97   11.13
  -9  -3  -7  165.74   12.17
  -9  -3  -7  169.16    7.92
   9   3   8  445.90   13.73
  -9  -3  -8  434.85   29.88
  -9  -3  -8  453.51   14.67
  -9  -3  -9  231.80   24.86
  -9  -3  -9  271.27   12.42
  -9  -3 -10   22.53    4.94
  -9  -3 -10   11.91    3.72
  -9  -3 -11   13.63    3.16
  -9  -3 -11   13.59    3.07
  -9  -4   4   58.59    6.60
   9   4  -3   18.86    4.20
  -9  -4   3    6.95    3.86
   9   4  -2    7.75    2.41
   9   4  -1   33.72    5.58
  -9  -4   1   42.86    4.63
  -9  -4   1   36.86    6.04
   9   4   0   33.83    5.33
  -9  -4   0   26.75    5.26
  -9  -4   0   21.95    5.49
   9   4   1   43.09    5.94
  -9  -4  -1   35.76    3.31
  -9  -4  -1   39.64    5.38
   9   4   2  231.97    7.58
  -9  -4  -2  235.03    7.04
  -9  -4  -2  234.59    9.42
   9   4   3  393.60   10.86
  -9  -4  -3  365.77   12.08
  -9  -4  -3  390.30   10.66
   9   4   4  214.94    7.43
  -9  -4  -4  220.24   15.06
  -9  -4  -4  226.99    8.23
   9   4   5   16.90    3.91
  -9  -4  -5   10.42    3.66
  -9  -4  -5    7.40    3.44
   9   4   6  186.90    6.36
  -9  -4  -6  158.12   13.63
  -9  -4  -6  157.01    6.12
   9   4   7   10.19    2.55
  -9  -4  -7   16.19    3.70
  -9  -4  -7   17.20    4.06
   9   4   8    6.65    2.17
  -9  -4  -8    8.99    3.66
  -9  -4  -8   10.04    4.38
  -9  -4  -9   47.64    8.19
  -9  -4  -9   70.36    7.04
  -9  -4 -10  186.86   16.96
  -9  -4 -10  193.97   11.69
   9   5  -4    2.39    2.84
  -9  -5   4    7.40    4.36
   9   5  -3    4.52    3.00
  -9  -5   3    6.15    4.06
   9   5  -2   23.34    5.01
  -9  -5   2   12.42    3.92
   9   5  -1  117.94   17.54
  -9  -5   1  129.16   13.47
   9   5   0    7.08    3.33
  -9  -5   0    6.09    1.54
   9   5   1   89.75   11.71
  -9  -5  -1   63.37    7.94
  -9  -5  -1   77.14    8.23
   9   5   2  195.41   10.40
  -9  -5  -2  187.12    5.55
  -9  -5  -2  226.59    8.09
   9   5   3   -0.74    2.48
  -9  -5  -3    0.03    1.63
  -9  -5  -3    9.04    4.72
   9   5   4   -0.76    2.22
  -9  -5  -4    1.39    1.44
  -9  -5  -4    1.24    2.72
   9   5   5  137.10    7.94
  -9  -5  -5  128.33   14.30
  -9  -5  -5  154.40    6.68
   9   5   6  345.34   12.61
  -9  -5  -6  354.05   14.68
  -9  -5  -6  389.59   15.18
   9   5   7  113.77   10.54
  -9  -5  -7   99.37   15.40
  -9  -5  -7  126.67   12.26
   9   5   8  128.27   10.75
  -9  -5  -8  132.98   16.01
  -9  -5  -8  169.71    8.98
  -9  -5  -9   20.66    4.98
  -9  -5  -9   35.12    4.87
  -9  -5 -10  116.59   12.36
  -9  -5 -10  135.31    8.64
   9   6  -3  147.91   20.75
  -9  -6   3  192.35   13.35
   9   6  -2   38.21    5.78
  -9  -6   2   34.93    5.42
   9   6  -1   -1.79    2.87
  -9  -6   1    8.11    3.58
   9   6   0  216.52   14.25
  -9  -6   0  207.28    9.72
   9   6   1  140.69   10.81
  -9  -6  -1  149.71    7.84
   9   6   2  156.93   21.37
  -9  -6  -2  183.78    6.68
   9   6   3   87.68    9.72
  -9  -6  -3   81.95    8.11
  -9  -6  -3   73.55    7.00
   9   6   4  134.32   10.16
  -9  -6  -4  122.69   12.38
  -9  -6  -4  143.42    8.54
   9   6   5   48.10    6.59
  -9  -6  -5   46.58    6.74
  -9  -6  -5   49.83    5.45
   9   6   6   55.48    7.48
  -9  -6  -6   48.99    9.28
  -9  -6  -6   70.17    7.41
   9   6   7   42.69    9.00
  -9  -6  -7   38.90    8.22
  -9  -6  -7   60.08    6.76
  -9  -6  -8  229.21   10.61
  -9  -6  -8  207.04   10.46
  -9  -6  -9  219.14   14.65
  -9  -6  -9  237.62   14.17
  -9  -6 -10   83.39    6.54
  -9  -6 -10   78.25    6.66
   9   7  -3  138.40   14.36
  -9  -7   3  152.19   10.11
   9   7  -2   32.03    8.45
  -9  -7   2   28.38    5.87
   9   7  -1   52.12   11.26
  -9  -7   1   55.18    7.99
   9   7   0   17.44    5.70
  -9  -7   0   34.47    6.76
   9   7   1   20.42    3.55
  -9  -7  -1   25.94    4.53
   9   7   2    2.91    1.84
  -9  -7  -2    8.44    3.31
   9   7   3  263.41   13.28
  -9  -7  -3  265.36   10.32
   9   7   4  191.70   11.03
  -9  -7  -4  187.99    6.49
  -9  -7  -4  186.29    8.51
   9   7   5   38.64    7.89
  -9  -7  -5   31.00    6.41
  -9  -7  -5   47.85    7.26
   9   7   6    5.43    1.87
  -9  -7  -6    2.84    1.59
  -9  -7  -6    6.09    2.82
   9   7   7    8.52    3.03
  -9  -7  -7    9.98    3.67
  -9  -7  -7    6.90    3.14
  -9  -7  -8   27.81    4.02
  -9  -7  -8   36.29    6.18
  -9  -7  -9    5.29    3.28
  -9  -7  -9    3.37    2.82
   9   8  -2   19.97    5.24
  -9  -8   2   20.89    3.95
   9   8  -1   41.87    7.66
  -9  -8   1   51.24    7.77
   9   8   0    3.47    2.60
  -9  -8   0    4.77    3.50
   9   8   1    3.71    1.86
  -9  -8  -1   14.23    6.29
   9   8   2    6.34    3.16
  -9  -8  -2    5.89    4.76
   9   8   3   70.41    6.92
  -9  -8  -3   48.23    6.32
   9   8   4   48.11    5.22
  -9  -8  -4   41.82    6.13
   9   8   5   33.52    3.98
   9   8   6   74.95   18.50
   9   8   6   92.94    5.39
  -9  -8  -6  108.09    7.84
  -9  -8  -7   39.02    4.93
   9   8   7   42.58    5.52
  -9  -8  -7   37.64    6.10
   9   8   8   57.18    4.99
  -9  -8  -8   68.42    6.40
   9   9   0   15.77    4.10
  -9  -9   0    8.85    5.05
   9   9   1   18.42    5.89
  -9  -9  -1   19.65    7.20
   9   9   2  119.09    8.38
  -9  -9  -2  118.05    8.86
   9   9   3  117.30    7.99
  -9  -9  -3  123.06    8.89
  -9  -9  -4    5.85    3.81
  -9  -9  -5   27.33    4.51
  -9  -9  -5   43.76    6.68
  -9  -9  -6   24.22    3.72
  -9  -9  -6   21.13    4.26
  10   0   2  103.94    7.52
 -10   0  -2   97.90    7.58
 -10   0  -2   95.13    7.18
  10   0   3    6.97    3.46
 -10   0  -3   10.20    5.26
 -10   0  -3    3.01    2.39
  10   0   4   96.65    7.27
 -10   0  -4  102.54    7.95
  10   0   5   96.85    7.28
 -10   0  -5  106.92    7.32
 -10   0  -5   92.49    6.12
  10   0   6   14.45    3.96
 -10   0  -6   10.81    4.98
 -10   0  -6    1.32    1.84
  10   1   0   56.62    5.81
 -10  -1   0   43.32    5.57
 -10  -1   0   38.00    5.66
 -10  -1  -1   22.79    5.07
 -10  -1  -1    7.02    4.51
  10   1   2   39.40    6.82
 -10  -1  -2   28.19    5.06
 -10  -1  -2   31.18    4.89
  10   1   3  128.93    8.88
 -10  -1  -3  128.88    8.87
 -10  -1  -3  113.57    8.07
  10   1   4  112.59    8.22
 -10  -1  -4  115.86    8.63
 -10  -1  -4  111.62    7.52
  10   1   5   55.00    6.95
 -10  -1  -5   56.06    7.19
 -10  -1  -5   52.18    6.95
  10   1   6    4.07    2.86
 -10  -1  -6    3.29    2.88
 -10  -1  -6    0.83    1.96
  10   1   7   46.49    5.10
 -10  -1  -7   39.22    8.66
 -10  -1  -7   47.84    5.27
  10   2   0   23.88    4.94
 -10  -2   0   25.31    4.27
 -10  -2   0   13.16    4.13
  10   2   1   10.65    4.06
 -10  -2  -1   25.65    4.64
 -10  -2  -1   14.39    4.91
  10   2   2   13.05    3.18
 -10  -2  -2   23.12    3.24
  10   2   3  124.51    7.98
 -10  -2  -3  135.22    8.16
 -10  -2  -3  123.54    7.61
  10   2   4   10.64    6.02
 -10  -2  -4   12.83    3.68
 -10  -2  -4   -1.27    2.58
  10   2   5  107.46    7.12
 -10  -2  -5  105.30    6.82
 -10  -2  -5   96.47    6.04
  10   2   6   51.73    5.33
 -10  -2  -6   44.21    7.19
 -10  -2  -6   54.84    5.67
  10   2   7  114.16    7.69
 -10  -2  -7  107.99   15.72
 -10  -2  -7  112.37    7.57
  10   2   8  244.02   13.34
 -10  -2  -8  185.87   24.25
 -10  -2  -8  225.61   12.36
  10   3  -1   27.31    7.50
 -10  -3   1   25.78    3.67
 -10  -3   1   27.79    4.95
  10   3   0   61.48    8.38
 -10  -3   0   56.21    7.00
 -10  -3   0   72.88   21.33
  10   3   1   11.86    3.24
 -10  -3  -1   12.95    3.26
 -10  -3  -1   10.43    4.28
  10   3   2    9.49    4.02
 -10  -3  -2    8.59    3.90
 -10  -3  -2   -1.10    2.99
  10   3   3  137.87   15.51
 -10  -3  -3  147.99    8.15
 -10  -3  -3  144.27    8.33
  10   3   4   56.51    8.50
 -10  -3  -4   52.84    5.77
 -10  -3  -4   56.83    6.29
  10   3   5    6.48    2.85
 -10  -3  -5    4.61    2.28
 -10  -3  -5   12.39    3.78
  10   3   6  335.77   15.34
 -10  -3  -6  305.65   22.09
 -10  -3  -6  332.38   15.45
  10   3   7   80.33   16.79
 -10  -3  -7   88.73   14.71
 -10  -3  -7  117.39    8.04
  10   3   8    3.75    1.62
 -10  -3  -8   10.66    4.22
 -10  -3  -8    8.52    3.58
  10   4  -1    9.80    4.05
 -10  -4   1   16.96    5.66
  10   4   0    8.19    2.87
 -10  -4   0    7.22    4.07
  10   4   1   90.78   11.24
 -10  -4  -1  112.00    6.42
  10   4   2  100.33   12.04
 -10  -4  -2   92.37    5.42
 -10  -4  -2   98.54    7.33
  10   4   3   -0.12    3.04
 -10  -4  -3    4.85    1.92
 -10  -4  -3    3.04    3.20
  10   4   4  121.91   10.48
 -10  -4  -4  109.96   17.37
 -10  -4  -4  137.82    8.51
  10   4   5   85.19   11.87
 -10  -4  -5   85.76   11.63
 -10  -4  -5  105.21    7.09
  10   4   6  138.38   13.66
 -10  -4  -6  135.39   13.94
 -10  -4  -6  144.31    8.42
  10   4   7    6.04    2.61
 -10  -4  -7    1.08    2.31
 -10  -4  -7   11.31    4.33
 -10  -4  -8  177.41   20.10
  10   5  -1    5.19    2.90
 -10  -5   1    8.44    5.42
  10   5   0   17.46    6.30
 -10  -5   0   20.04    7.42
 -10  -5  -1    8.96    4.28
  10   5   2    7.76    3.83
 -10  -5  -2    4.79    2.00
 -10  -5  -2   -0.68    2.97
  10   5   3    3.33    3.85
 -10  -5  -3    8.26    3.07
 -10  -5  -3   20.69    4.68
  10   5   4  130.05   10.62
 -10  -5  -4  112.28   12.28
 -10  -5  -4  141.29    9.26
  10   5   5  102.23    8.67
 -10  -5  -5   77.22   13.91
 -10  -5  -5  111.67    7.50
  10   5   6   13.49    3.74
 -10  -5  -6   20.93    3.64
 -10  -5  -6   23.48    3.77
  10   5   7  193.79   17.62
 -10  -5  -7  190.61   15.28
 -10  -5  -7  244.78   14.86
 -10  -5  -8   39.04   10.21
 -10  -5  -8   52.22    4.64
  10   6   0  190.48   11.55
 -10  -6   0  224.88   14.12
  10   6   1   23.09    4.34
 -10  -6  -1   18.36    5.76
  10   6   2    3.97    1.91
 -10  -6  -2    8.45    5.29
  10   6   3    3.89    2.54
 -10  -6  -3    5.27    3.67
  10   6   4   48.75    7.93
 -10  -6  -4   39.97    9.13
 -10  -6  -4   65.88    7.17
  10   6   5    5.89    3.07
 -10  -6  -5    8.15    3.48
 -10  -6  -5    4.26    3.34
  10   6   6   28.54    5.85
 -10  -6  -6   26.17    6.16
 -10  -6  -6   43.78    6.94
  10   6   7   63.34    8.95
 -10  -6  -7   53.12   11.91
 -10  -6  -7   75.48    6.10
 -10  -6  -8   57.21   10.48
 -10  -6  -8   81.61    7.38
  10   7   1   62.59   10.49
 -10  -7  -1   65.75    7.48
  10   7   2  360.82   19.93
  10   7   3  237.44   16.15
 -10  -7  -3  242.25   14.47
  10   7   4    3.43    2.02
 -10  -7  -4   15.91    6.20
  10   7   5    7.31    3.70
 -10  -7  -5   11.80    5.59
  10   7   6   14.43    3.57
 -10  -7  -6    6.09    2.45
 -10  -7  -6   18.72    4.72
 -10  -7  -7   30.13    4.76
  10   8   3    0.24    1.78
 -10  -8  -3    3.81    3.62
  10   8   4  163.39   18.85

_computing_structure_solution     'SHELXT 2014/4 (Sheldrick, 2014)'
;
_shelx_hkl_checksum              75552
_shelx_shelxl_version_number     2014/7
_olex2_submission_special_instructions 'No special instructions were received'
loop_
_space_group_symop_operation_xyz
'x, y, z'
'-x, -y, -z'
loop_
_atom_site_label
_atom_site_type_symbol
_atom_site_fract_x
_atom_site_fract_y
_atom_site_fract_z
_atom_site_U_iso_or_equiv
_atom_site_adp_type
_atom_site_occupancy
_atom_site_site_symmetry_order
_atom_site_calc_flag
_atom_site_refinement_flags_posn
_atom_site_refinement_flags_adp
_atom_site_refinement_flags_occupancy
_atom_site_disorder_assembly
_atom_site_disorder_group
Br1 Br -0.04364(4) 0.82243(3) 0.05847(3) 0.04427(12) Uani 0.9303(12) 1 d . U P
A 1
S1 S 0.50278(6) 0.44755(5) 0.19995(4) 0.02127(12) Uani 1 1 d . . . . .
O1 O 0.4917(2) 0.35350(16) 0.10845(13) 0.0299(3) Uani 1 1 d . . . . .
O2 O 0.6343(2) 0.51957(18) 0.16355(15) 0.0334(3) Uani 1 1 d . . . . .
O3 O 0.0838(2) 0.64466(16) 0.44643(13) 0.0291(3) Uani 1 1 d . . . . .
N1 N 0.3032(2) 0.57599(17) 0.26106(14) 0.0196(3) Uani 1 1 d . . . . .
C1 C 0.5033(3) 0.3580(2) 0.34122(18) 0.0240(4) Uani 1 1 d . . . . .
C2 C 0.6321(3) 0.2307(3) 0.3623(2) 0.0366(5) Uani 1 1 d . . . . .
H2 H 0.7336 0.1816 0.2994 0.044 Uiso 1 1 calc R . . . .
C3 C 0.6017(4) 0.1798(3) 0.4830(3) 0.0440(6) Uani 1 1 d . . . . .
H3 H 0.6841 0.0934 0.5012 0.053 Uiso 1 1 calc R . . . .
C4 C 0.4508(4) 0.2553(3) 0.5768(2) 0.0405(6) Uani 1 1 d . . . . .
H4 H 0.4352 0.2198 0.6569 0.049 Uiso 1 1 calc R . . . .
C5 C 0.3234(3) 0.3826(3) 0.5528(2) 0.0315(5) Uani 1 1 d . . . . .
H5 H 0.2222 0.4327 0.6156 0.038 Uiso 1 1 calc R . . . .
C6 C 0.3509(3) 0.4334(2) 0.43280(18) 0.0229(4) Uani 1 1 d . . . . .
C7 C 0.2282(3) 0.5633(2) 0.38660(17) 0.0208(4) Uani 1 1 d . . . . .
C8 C 0.2232(2) 0.6922(2) 0.17981(17) 0.0204(4) Uani 1 1 d . . . . .
H8 H 0.3000 0.6647 0.0946 0.024 Uiso 1 1 calc R . . . .
C9 C 0.2270(3) 0.8455(2) 0.21392(18) 0.0231(4) Uani 1 1 d . . . . .
C10 C 0.3733(3) 0.8877(2) 0.1515(2) 0.0297(4) Uani 1 1 d . . . . .
H10 H 0.4635 0.8242 0.0888 0.036 Uiso 1 1 calc R . . . .
C11 C 0.3854(4) 1.0241(3) 0.1824(2) 0.0384(5) Uani 1 1 d . . . . .
H11 H 0.4836 1.0517 0.1407 0.046 Uiso 1 1 calc R . . . .
C12 C 0.2509(3) 1.1190(2) 0.2752(2) 0.0375(5) Uani 1 1 d . . . . .
H12 H 0.2590 1.2103 0.2960 0.045 Uiso 1 1 calc R . . . .
C13 C 0.1042(3) 1.0788(2) 0.3373(2) 0.0343(5) Uani 1 1 d . . . . .
H13 H 0.0138 1.1432 0.3994 0.041 Uiso 1 1 calc R . . . .
C14 C 0.0922(3) 0.9418(2) 0.3067(2) 0.0290(4) Uani 1 1 d . . . . .
H14 H -0.0063 0.9147 0.3485 0.035 Uiso 1 1 calc R . . . .
C15 C 0.0418(3) 0.6831(2) 0.18088(19) 0.0251(4) Uani 1 1 d D . . . .
H15 H -0.0411 0.7154 0.2637 0.030 Uiso 0.9303(12) 1 calc R . P A 1
H15A H -0.0236 0.7021 0.2693 0.030 Uiso 0.0697(12) 1 calc R . P A 2
C16 C 0.0491(18) 0.5236(9) 0.1461(12) 0.0370(19) Uani 0.9303(12) 1 d D U P A 1
H16A H -0.0643 0.5277 0.1378 0.056 Uiso 0.9303(12) 1 calc GR . P A 1
H16B H 0.0778 0.4565 0.2103 0.056 Uiso 0.9303(12) 1 calc GR . P A 1
H16C H 0.1383 0.4876 0.0686 0.056 Uiso 0.9303(12) 1 calc GR . P A 1
Br1A Br 0.055(2) 0.4910(16) 0.1534(17) 0.042(2) Uani 0.0697(12) 1 d D U P A 2
C16A C -0.084(8) 0.800(2) 0.119(6) 0.076(14) Uani 0.0697(12) 1 d D U P A 2
H16D H -0.0261 0.8686 0.0761 0.114 Uiso 0.0697(12) 1 d R . P A 2
H16E H -0.1907 0.8549 0.1803 0.114 Uiso 0.0697(12) 1 d R . P A 2
H16F H -0.1136 0.7493 0.0595 0.114 Uiso 0.0697(12) 1 d R . P A 2
loop_
_atom_site_aniso_label
_atom_site_aniso_U_11
_atom_site_aniso_U_22
_atom_site_aniso_U_33
_atom_site_aniso_U_23
_atom_site_aniso_U_13
_atom_site_aniso_U_12
Br1 0.04676(18) 0.04031(17) 0.0559(2) 0.01848(13) -0.03299(14) -0.01425(12)
S1 0.0172(2) 0.0226(2) 0.0212(2) -0.00102(17) -0.00241(17) -0.00503(17)
O1 0.0333(8) 0.0279(7) 0.0234(7) -0.0071(6) -0.0036(6) -0.0059(6)
O2 0.0217(7) 0.0412(9) 0.0371(8) 0.0041(7) -0.0029(6) -0.0147(6)
O3 0.0273(7) 0.0272(7) 0.0256(7) -0.0044(6) 0.0018(6) -0.0062(6)
N1 0.0187(7) 0.0186(7) 0.0191(7) -0.0008(6) -0.0037(6) -0.0043(6)
C1 0.0234(9) 0.0258(9) 0.0244(9) 0.0021(7) -0.0085(7) -0.0089(8)
C2 0.0295(11) 0.0351(12) 0.0419(13) 0.0039(10) -0.0145(10) -0.0027(9)
C3 0.0441(14) 0.0403(13) 0.0509(15) 0.0168(11) -0.0283(12) -0.0080(11)
C4 0.0512(15) 0.0462(14) 0.0351(12) 0.0167(10) -0.0227(11) -0.0236(12)
C5 0.0372(12) 0.0384(12) 0.0239(10) 0.0053(9) -0.0094(9) -0.0188(10)
C6 0.0242(9) 0.0246(9) 0.0234(9) -0.0001(7) -0.0070(7) -0.0122(8)
C7 0.0228(9) 0.0196(8) 0.0203(9) -0.0030(7) -0.0031(7) -0.0091(7)
C8 0.0213(9) 0.0191(8) 0.0194(8) 0.0012(7) -0.0046(7) -0.0057(7)
C9 0.0273(10) 0.0191(9) 0.0241(9) 0.0019(7) -0.0096(8) -0.0074(7)
C10 0.0326(11) 0.0268(10) 0.0297(10) 0.0016(8) -0.0046(9) -0.0129(9)
C11 0.0451(13) 0.0328(12) 0.0456(13) 0.0076(10) -0.0135(11) -0.0237(10)
C12 0.0516(14) 0.0208(10) 0.0493(14) 0.0035(9) -0.0263(12) -0.0140(10)
C13 0.0402(12) 0.0212(10) 0.0384(12) -0.0061(8) -0.0143(10) -0.0023(9)
C14 0.0286(10) 0.0235(10) 0.0322(11) -0.0014(8) -0.0063(8) -0.0065(8)
C15 0.0227(9) 0.0268(10) 0.0268(10) 0.0042(8) -0.0092(8) -0.0077(8)
C16 0.030(2) 0.052(4) 0.032(2) 0.002(3) -0.0114(17) -0.015(3)
Br1A 0.032(3) 0.061(5) 0.041(4) 0.000(4) -0.012(3) -0.020(4)
C16A 0.075(16) 0.082(16) 0.072(16) 0.009(10) -0.029(10) -0.021(10)
loop_
_atom_type_symbol
_atom_type_description
_atom_type_scat_dispersion_real
_atom_type_scat_dispersion_imag
_atom_type_scat_source
C C 0.0033 0.0016 'International Tables Vol C Tables 4.2.6.8 and 6.1.1.4'
H H 0.0000 0.0000 'International Tables Vol C Tables 4.2.6.8 and 6.1.1.4'
Br Br -0.2901 2.4595 'International Tables Vol C Tables 4.2.6.8 and 6.1.1.4'
N N 0.0061 0.0033 'International Tables Vol C Tables 4.2.6.8 and 6.1.1.4'
O O 0.0106 0.0060 'International Tables Vol C Tables 4.2.6.8 and 6.1.1.4'
S S 0.1246 0.1234 'International Tables Vol C Tables 4.2.6.8 and 6.1.1.4'
loop_
_geom_angle_atom_site_label_1
_geom_angle_atom_site_label_2
_geom_angle_atom_site_label_3
_geom_angle
O1 S1 N1 109.77(9)
O1 S1 C1 111.50(9)
O2 S1 O1 117.57(10)
O2 S1 N1 109.80(9)
O2 S1 C1 112.59(10)
N1 S1 C1 92.84(9)
C7 N1 S1 114.94(13)
C7 N1 C8 125.93(16)
C8 N1 S1 119.13(13)
C2 C1 S1 126.94(17)
C2 C1 C6 123.2(2)
C6 C1 S1 109.88(15)
C1 C2 H2 121.9
C1 C2 C3 116.3(2)
C3 C2 H2 121.9
C2 C3 H3 119.3
C4 C3 C2 121.4(2)
C4 C3 H3 119.3
C3 C4 H4 119.5
C5 C4 C3 120.9(2)
C5 C4 H4 119.5
C4 C5 H5 120.9
C4 C5 C6 118.2(2)
C6 C5 H5 120.9
C1 C6 C5 119.9(2)
C1 C6 C7 113.36(18)
C5 C6 C7 126.72(19)
O3 C7 N1 124.41(18)
O3 C7 C6 126.63(18)
N1 C7 C6 108.94(16)
N1 C8 H8 106.8
N1 C8 C9 110.13(15)
N1 C8 C15 109.33(16)
C9 C8 H8 106.8
C9 C8 C15 116.58(17)
C15 C8 H8 106.8
C10 C9 C8 118.36(18)
C14 C9 C8 122.24(18)
C14 C9 C10 119.38(19)
C9 C10 H10 119.8
C11 C10 C9 120.4(2)
C11 C10 H10 119.8
C10 C11 H11 120.1
C12 C11 C10 119.8(2)
C12 C11 H11 120.1
C11 C12 H12 119.8
C11 C12 C13 120.4(2)
C13 C12 H12 119.8
C12 C13 H13 120.1
C12 C13 C14 119.9(2)
C14 C13 H13 120.1
C9 C14 C13 120.2(2)
C9 C14 H14 119.9
C13 C14 H14 119.9
Br1 C15 H15 109.2
C8 C15 Br1 107.18(14)
C8 C15 H15 109.2
C8 C15 H15A 102.2
C8 C15 C16 113.4(5)
C8 C15 Br1A 111.2(6)
C8 C15 C16A 122(2)
C16 C15 Br1 108.6(5)
C16 C15 H15 109.2
Br1A C15 H15A 102.2
C16A C15 H15A 102.2
C16A C15 Br1A 113.6(11)
C15 C16 H16A 109.5
C15 C16 H16B 109.5
C15 C16 H16C 109.5
H16A C16 H16B 109.5
H16A C16 H16C 109.5
H16B C16 H16C 109.5
C15 C16A H16D 109.2
C15 C16A H16E 110.0
C15 C16A H16F 109.3
H16D C16A H16E 109.5
H16D C16A H16F 109.5
H16E C16A H16F 109.5
loop_
_geom_bond_atom_site_label_1
_geom_bond_atom_site_label_2
_geom_bond_distance
Br1 C15 1.961(2)
S1 O1 1.4280(15)
S1 O2 1.4252(17)
S1 N1 1.675(2)
S1 C1 1.754(2)
O3 C7 1.213(3)
N1 C7 1.386(2)
N1 C8 1.490(2)
C1 C2 1.379(3)
C1 C6 1.383(3)
C2 H2 0.9300
C2 C3 1.394(4)
C3 H3 0.9300
C3 C4 1.390(4)
C4 H4 0.9300
C4 C5 1.385(4)
C5 H5 0.9300
C5 C6 1.386(3)
C6 C7 1.486(3)
C8 H8 0.9800
C8 C9 1.524(3)
C8 C15 1.534(3)
C9 C10 1.392(3)
C9 C14 1.390(3)
C10 H10 0.9300
C10 C11 1.389(3)
C11 H11 0.9300
C11 C12 1.383(4)
C12 H12 0.9300
C12 C13 1.384(4)
C13 H13 0.9300
C13 C14 1.393(3)
C14 H14 0.9300
C15 H15 0.9800
C15 H15A 0.9800
C15 C16 1.548(8)
C15 Br1A 1.811(15)
C15 C16A 1.537(10)
C16 H16A 0.9600
C16 H16B 0.9600
C16 H16C 0.9600
C16A H16D 0.9600
C16A H16E 0.9600
C16A H16F 0.9600
loop_
_geom_torsion_atom_site_label_1
_geom_torsion_atom_site_label_2
_geom_torsion_atom_site_label_3
_geom_torsion_atom_site_label_4
_geom_torsion
S1 N1 C7 O3 -179.02(15)
S1 N1 C7 C6 -0.33(19)
S1 N1 C8 C9 -108.17(16)
S1 N1 C8 C15 122.52(15)
S1 C1 C2 C3 -179.40(18)
S1 C1 C6 C5 -179.69(15)
S1 C1 C6 C7 2.0(2)
O1 S1 N1 C7 115.33(14)
O1 S1 N1 C8 -65.28(15)
O1 S1 C1 C2 65.0(2)
O1 S1 C1 C6 -114.43(15)
O2 S1 N1 C7 -113.97(14)
O2 S1 N1 C8 65.41(15)
O2 S1 C1 C2 -69.7(2)
O2 S1 C1 C6 110.95(15)
N1 S1 C1 C2 177.5(2)
N1 S1 C1 C6 -1.88(15)
N1 C8 C9 C10 91.3(2)
N1 C8 C9 C14 -87.1(2)
N1 C8 C15 Br1 -173.80(11)
N1 C8 C15 C16 -53.9(6)
N1 C8 C15 Br1A -48.8(6)
N1 C8 C15 C16A 173(3)
C1 S1 N1 C7 1.27(15)
C1 S1 N1 C8 -179.34(14)
C1 C2 C3 C4 -1.0(4)
C1 C6 C7 O3 177.50(19)
C1 C6 C7 N1 -1.1(2)
C2 C1 C6 C5 0.9(3)
C2 C1 C6 C7 -177.4(2)
C2 C3 C4 C5 1.2(4)
C3 C4 C5 C6 -0.4(4)
C4 C5 C6 C1 -0.6(3)
C4 C5 C6 C7 177.4(2)
C5 C6 C7 O3 -0.6(3)
C5 C6 C7 N1 -179.29(18)
C6 C1 C2 C3 -0.1(3)
C7 N1 C8 C9 71.1(2)
C7 N1 C8 C15 -58.2(2)
C8 N1 C7 O3 1.6(3)
C8 N1 C7 C6 -179.67(16)
C8 C9 C10 C11 -177.8(2)
C8 C9 C14 C13 177.97(19)
C9 C8 C15 Br1 60.52(19)
C9 C8 C15 C16 -179.6(5)
C9 C8 C15 Br1A -174.4(6)
C9 C8 C15 C16A 47(3)
C9 C10 C11 C12 -0.3(4)
C10 C9 C14 C13 -0.4(3)
C10 C11 C12 C13 -0.1(4)
C11 C12 C13 C14 0.3(4)
C12 C13 C14 C9 -0.1(3)
C14 C9 C10 C11 0.6(3)
C15 C8 C9 C10 -143.43(19)
C15 C8 C9 C14 38.2(3)
