#------------------------------------------------------------------------------
#$Date: 2019-11-23 14:55:46 +0200 (Sat, 23 Nov 2019) $
#$Revision: 233727 $
#$URL: file:///home/coder/svn-repositories/cod/cif/1/55/32/1553234.cif $
#------------------------------------------------------------------------------
#
# This file is available in the Crystallography Open Database (COD),
# http://www.crystallography.net/
#
# All data on this site have been placed in the public domain by the
# contributors.
#
data_1553234
loop_
_publ_author_name
'Song, Lu'
'Luo, Sanzhong'
'Cheng, Jin-Pei'
_publ_section_title
;
 Visible-light promoted intermolecular halofunctionalization of alkenes
 with N-halogen saccharins
;
_journal_issue                   4
_journal_name_full               'Organic Chemistry Frontiers'
_journal_page_first              447
_journal_paper_doi               10.1039/C5QO00432B
_journal_volume                  3
_journal_year                    2016
_chemical_formula_moiety         'C13 H14 Br N O3 S'
_chemical_formula_sum            'C13 H14 Br N O3 S'
_chemical_formula_weight         344.22
_space_group_crystal_system      triclinic
_space_group_IT_number           2
_space_group_name_Hall           '-P 1'
_space_group_name_H-M_alt        'P -1'
_atom_sites_solution_hydrogens   geom
_audit_creation_date             2014-08-19
_audit_creation_method
;
Olex2 1.2
(compiled 2013.12.10 svn.r2850 for OlexSys, GUI svn.r4736)
;
_audit_update_record
;
2015-10-08 deposited with the CCDC.
2016-01-25 downloaded from the CCDC.
;
_cell_angle_alpha                79.190(7)
_cell_angle_beta                 89.100(8)
_cell_angle_gamma                77.310(6)
_cell_formula_units_Z            2
_cell_length_a                   7.8592(17)
_cell_length_b                   9.0905(18)
_cell_length_c                   9.748(2)
_cell_measurement_reflns_used    2386
_cell_measurement_temperature    173.1500
_cell_measurement_theta_max      27.4777
_cell_measurement_theta_min      2.6575
_cell_volume                     667.1(2)
_computing_cell_refinement       'CrystalClear (Rigaku Inc., 2007)'
_computing_data_collection       'CrystalClear (Rigaku Inc., 2007)'
_computing_data_reduction        'CrystalClear (Rigaku Inc., 2007)'
_computing_molecular_graphics    'Olex2 (Dolomanov et al., 2009)'
_computing_publication_material  'Olex2 (Dolomanov et al., 2009)'
_computing_structure_refinement  'SHELXL (Sheldrick, 2013)'
_computing_structure_solution
;
'SHELXS (Sheldrick, 2013)'
;
_diffrn_ambient_temperature      173.1500
_diffrn_detector_area_resol_mean 28.5714
_diffrn_measured_fraction_theta_full 0.993
_diffrn_measured_fraction_theta_max 0.993
_diffrn_measurement_device
;
Saturn724+ (2x2 bin mode)
;
_diffrn_measurement_device_details
;
AFC10: Fixed Chi 2 circle
;
_diffrn_measurement_device_type  'Saturn724+ CCD'
_diffrn_measurement_method       '\w scans at fixed \c = 45\%'
_diffrn_orient_matrix_type       d*Trek
_diffrn_orient_matrix_UB_11      -0.0319
_diffrn_orient_matrix_UB_12      -0.0802
_diffrn_orient_matrix_UB_13      -0.0978
_diffrn_orient_matrix_UB_21      -0.0435
_diffrn_orient_matrix_UB_22      0.1005
_diffrn_orient_matrix_UB_23      -0.0345
_diffrn_orient_matrix_UB_31      0.0964
_diffrn_orient_matrix_UB_32      0.0056
_diffrn_orient_matrix_UB_33      -0.0398
_diffrn_radiation_detector       CCD
_diffrn_radiation_monochromator  'Graphite Monochromator'
_diffrn_radiation_type           MoK\a
_diffrn_radiation_wavelength     0.71073
_diffrn_reflns_av_R_equivalents  0.0302
_diffrn_reflns_av_unetI/netI     0.0260
_diffrn_reflns_Laue_measured_fraction_full 0.993
_diffrn_reflns_Laue_measured_fraction_max 0.993
_diffrn_reflns_limit_h_max       10
_diffrn_reflns_limit_h_min       -10
_diffrn_reflns_limit_k_max       11
_diffrn_reflns_limit_k_min       -11
_diffrn_reflns_limit_l_max       12
_diffrn_reflns_limit_l_min       -12
_diffrn_reflns_number            8259
_diffrn_reflns_point_group_measured_fraction_full 0.993
_diffrn_reflns_point_group_measured_fraction_max 0.993
_diffrn_reflns_theta_full        25.242
_diffrn_reflns_theta_max         27.478
_diffrn_reflns_theta_min         2.657
_diffrn_source                   'Sealed Tube'
_diffrn_source_current           30.0000
_diffrn_source_power             1.5000
_diffrn_source_voltage           50.0000
_exptl_absorpt_coefficient_mu    3.240
_exptl_absorpt_correction_T_max  1.0000
_exptl_absorpt_correction_T_min  0.4447
_exptl_absorpt_correction_type   multi-scan
_exptl_absorpt_process_details   'CrystalClear (Rigaku Inc., 2007)'
_exptl_crystal_colour            Colorless
_exptl_crystal_density_diffrn    1.714
_exptl_crystal_description       Plate
_exptl_crystal_F_000             348
_exptl_crystal_size_max          0.33
_exptl_crystal_size_mid          0.22
_exptl_crystal_size_min          0.13
_refine_diff_density_max         0.397
_refine_diff_density_min         -0.361
_refine_diff_density_rms         0.062
_refine_ls_extinction_method     none
_refine_ls_goodness_of_fit_ref   1.088
_refine_ls_hydrogen_treatment    constr
_refine_ls_matrix_type           full
_refine_ls_number_parameters     172
_refine_ls_number_reflns         3044
_refine_ls_number_restraints     0
_refine_ls_restrained_S_all      1.088
_refine_ls_R_factor_all          0.0271
_refine_ls_R_factor_gt           0.0258
_refine_ls_shift/su_max          0.000
_refine_ls_shift/su_mean         0.000
_refine_ls_structure_factor_coef Fsqd
_refine_ls_weighting_details
'w=1/[\s^2^(Fo^2^)+(0.0287P)^2^+0.3450P] where P=(Fo^2^+2Fc^2^)/3'
_refine_ls_weighting_scheme      calc
_refine_ls_wR_factor_gt          0.0625
_refine_ls_wR_factor_ref         0.0632
_reflns_Friedel_coverage         0.000
_reflns_number_gt                2943
_reflns_number_total             3044
_reflns_threshold_expression     'I > 2\s(I)'
_cod_data_source_file            c5qo00432b2.cif
_cod_data_source_block           sa3560
_cod_database_code               1553234
_shelxl_version_number           2013-4
_shelx_space_group_comment
;
The symmetry employed for this shelxl refinement is uniquely defined
by the following loop, which should always be used as a source of
symmetry information in preference to the above space-group names.
They are only intended as comments.
;
_diffrn_number_total             3050
_olex2_refinement_description
;
1. Fixed Uiso
 At 1.2 times of:
  All C(H) groups, All C(H,H) groups
2.a Ternary CH refined with riding coordinates:
 C1(H1), C6(H6)
2.b Secondary CH2 refined with riding coordinates:
 C2(H2A,H2B), C3(H3A,H3B), C4(H4A,H4B), C5(H5A,H5B)
2.c Aromatic/amide H refined with riding coordinates:
 C9(H9), C10(H10), C11(H11), C12(H12)
;
_shelx_res_file
;
TITL sa3560 in P-1
CELL 0.71073 7.8592 9.0905 9.7479 79.19 89.1 77.31
ZERR 2 0.0017 0.0018 0.002 0.007 0.008 0.006
LATT 1

SFAC C H Br N O S
UNIT 26 28 2 2 6 2

L.S. 5
PLAN  -20
BOND $H
fmap 2
acta
MORE -1
CONF
OMIT 0 0 1
OMIT -5 1 5
OMIT 0 1 1
OMIT 0 1 0
OMIT 1 -3 3
OMIT -2 1 4
REM <HKL>D:/D/SXRD/sa(3501-3599)/sa3560/sa3560.hkl</HKL>

WGHT    0.028700    0.345000
FVAR      10.17211
BR1   3    0.265881    0.599707    0.483149    11.00000    0.02180    0.02915 =
         0.02718   -0.00441   -0.00296    0.00219
S1    6    0.058023    0.716064    0.075028    11.00000    0.01814    0.03059 =
         0.01946   -0.00559    0.00120   -0.01135
O1    5    0.348712    0.915556    0.238089    11.00000    0.02656    0.03379 =
         0.03110   -0.01369    0.00342   -0.01432
O2    5   -0.077293    0.815386   -0.016595    11.00000    0.01931    0.05120 =
         0.02815   -0.00763   -0.00422   -0.00584
O3    5    0.025318    0.572970    0.146027    11.00000    0.04043    0.03788 =
         0.02636   -0.00928    0.00869   -0.02548
N1    4    0.120744    0.808306    0.191830    11.00000    0.01727    0.02604 =
         0.01888   -0.00623    0.00245   -0.00766
C1    1    0.017282    0.844660    0.313612    11.00000    0.01906    0.02165 =
         0.02053   -0.00459    0.00151   -0.00364
AFIX  13
H1    2    0.068456    0.917027    0.353260    11.00000   -1.20000
AFIX   0
C2    1   -0.172339    0.923090    0.272009    11.00000    0.02064    0.02651 =
         0.02593   -0.00039   -0.00031    0.00062
AFIX  23
H2A   2   -0.227224    0.853707    0.233226    11.00000   -1.20000
H2B   2   -0.175542    1.013760    0.200587    11.00000   -1.20000
AFIX   0
C3    1   -0.273533    0.969118    0.398296    11.00000    0.02052    0.02758 =
         0.03511   -0.00650    0.00328    0.00093
AFIX  23
H3A   2   -0.225492    1.046033    0.431499    11.00000   -1.20000
H3B   2   -0.394587    1.013974    0.370536    11.00000   -1.20000
AFIX   0
C4    1   -0.263918    0.831250    0.515443    11.00000    0.02503    0.03136 =
         0.03264   -0.00679    0.00993   -0.00339
AFIX  23
H4A   2   -0.325313    0.760365    0.485982    11.00000   -1.20000
H4B   2   -0.321571    0.864964    0.596425    11.00000   -1.20000
AFIX   0
C5    1   -0.074681    0.747988    0.556127    11.00000    0.02755    0.02509 =
         0.02224   -0.00432    0.00538   -0.00217
AFIX  23
H5A   2   -0.016595    0.814423    0.596196    11.00000   -1.20000
H5B   2   -0.073339    0.656401    0.626005    11.00000   -1.20000
AFIX   0
C6    1    0.022051    0.703905    0.428426    11.00000    0.01809    0.02172 =
         0.02200   -0.00488   -0.00014   -0.00176
AFIX  13
H6    2   -0.034270    0.632416    0.392193    11.00000   -1.20000
AFIX   0
C7    1    0.283894    0.844914    0.168131    11.00000    0.01862    0.02412 =
         0.02089   -0.00215   -0.00031   -0.00685
C8    1    0.362692    0.777700    0.047658    11.00000    0.01792    0.02223 =
         0.01816   -0.00152   -0.00012   -0.00500
C9    1    0.524920    0.786434   -0.007834    11.00000    0.01970    0.02966 =
         0.02406   -0.00237    0.00012   -0.00920
AFIX  43
H9    2    0.596354    0.839504    0.028749    11.00000   -1.20000
AFIX   0
C10   1    0.577245    0.713694   -0.119392    11.00000    0.01996    0.03592 =
         0.02314   -0.00097    0.00350   -0.00629
AFIX  43
H10   2    0.686049    0.716999   -0.157158    11.00000   -1.20000
AFIX   0
C11   1    0.469788    0.635768   -0.175905    11.00000    0.02859    0.03153 =
         0.01805   -0.00457    0.00201   -0.00358
AFIX  43
H11   2    0.508018    0.588169   -0.250795    11.00000   -1.20000
AFIX   0
C12   1    0.305705    0.627966   -0.121969    11.00000    0.02741    0.02926 =
         0.02047   -0.00502   -0.00149   -0.00955
AFIX  43
H12   2    0.232350    0.577500   -0.159771    11.00000   -1.20000
AFIX   0
C13   1    0.258084    0.699170   -0.009490    11.00000    0.01767    0.02361 =
         0.01775   -0.00078    0.00111   -0.00664
HKLF 4

REM  sa3560 in P-1
REM R1 =  0.0258 for    2943 Fo > 4sig(Fo)  and  0.0271 for all    3044 data
REM    172 parameters refined using      0 restraints

END

WGHT      0.0265      0.3642

REM Highest difference peak  0.397,  deepest hole -0.361,  1-sigma level  0.062
Q1    1   0.3324  0.8047  0.1131  11.00000  0.05    0.40
Q2    1   0.1731  0.7070  0.0246  11.00000  0.05    0.37
Q3    1  -0.0231  0.7252  0.4937  11.00000  0.05    0.33
Q4    1  -0.0776  0.8723  0.2940  11.00000  0.05    0.29
Q5    1   0.3069  0.7357  0.0180  11.00000  0.05    0.28
Q6    1   0.0733  0.8135  0.2412  11.00000  0.05    0.27
Q7    1   0.3906  0.6475 -0.1446  11.00000  0.05    0.27
Q8    1   0.5274  0.7621 -0.0734  11.00000  0.05    0.25
Q9    1  -0.2562  0.9014  0.4633  11.00000  0.05    0.25
Q10   1   0.2730  0.9166  0.1680  11.00000  0.05    0.25
Q11   1   0.2492  0.5078  0.5900  11.00000  0.05    0.25
Q12   1   0.2070  0.8285  0.1859  11.00000  0.05    0.24
Q13   1   0.0237  0.7768  0.3742  11.00000  0.05    0.24
Q14   1   0.4213  0.7989  0.0229  11.00000  0.05    0.24
Q15   1   0.2794  0.7013  0.3815  11.00000  0.05    0.24
Q16   1   0.3319  0.8371  0.2215  11.00000  0.05    0.23
Q17   1  -0.2159  0.9451  0.3334  11.00000  0.05    0.23
Q18   1   0.3372  0.6426  0.4644  11.00000  0.05    0.23
Q19   1   0.5008  0.7008 -0.1542  11.00000  0.05    0.22
Q20   1   0.0084  0.6083  0.3989  11.00000  0.05    0.22
;
_shelx_res_checksum              98226
_shelx_hkl_file
;
   0   0   1  -28.47   41.12   1-0.46687 0.46884-0.87660 0.86271-0.11654 0.18947
   0   0  -3448806.5 4243.40   1-0.58817 0.58227-0.77092 0.81258-0.24439 0.02561
   0   0  -3447142.9 4262.60   1-0.91977 0.91401-0.35922 0.40110-0.15803-0.06079
   0   0  -3458930.8 4380.75   1-0.66675 0.66090 0.74386-0.70220 0.04583-0.26478
   0   0   3436631.5 4162.39   1-0.58954 0.59534 0.75991-0.80159 0.27379-0.05486
   0   0   4259537.7 2547.01   1-0.36149 0.36932-0.93222 0.87661-0.01676 0.30844
   0   0  -4253016.6 2535.80   1-0.90455 0.89687-0.37673 0.43257-0.19961-0.09215
   0   0   4254028.8 2535.95   1-0.96663 0.97429-0.21756 0.16182 0.13522 0.15675
   0   0   559020.80 1270.38   1 0.64203-0.63249 0.70274-0.77239 0.30650 0.05802
   0   0   561449.11 1336.13   1-0.32375 0.33354-0.94598 0.87647 0.01740 0.34718
   0   0  -561670.53 1450.26   1-0.88712 0.87752-0.39354 0.46333-0.24112-0.12359
   0   0   559630.11 1312.75   1-0.96470 0.97427-0.19460 0.12492 0.17740 0.18755
   0   0  -560631.98 1365.80   1-0.68418 0.67444 0.72859-0.65915-0.03227-0.33262
   0   0   554384.76 1203.92   1-0.55554 0.56519 0.75530-0.82477 0.34768 0.01719
   0   0   698604.87 1574.60   1 0.66609-0.65464 0.66560-0.74918 0.33658 0.10085
   0   0   6108981.4 1757.20   1-0.28455 0.29630-0.95724 0.87384 0.05201 0.38549
   0   0  -6104885.0 1725.93   1-0.86739 0.85587-0.40961 0.49336-0.28255-0.15511
   0   0  -6107932.0 1790.33   1-0.69128 0.67958 0.71901-0.63569-0.07174-0.36613
   0   0   723503.36 1132.55   1-0.24358 0.25728-0.96594 0.86873 0.08730 0.42319
   0   0  -724296.14 1823.32   1-0.84529 0.83185-0.42493 0.52264-0.32389-0.18671
   0   0   822283.63 1337.57   1-0.20124 0.21690-0.97180 0.86071 0.12286 0.46056
   0   0  -822197.63 1919.03   1-0.82072 0.80534-0.43938 0.55123-0.36516-0.21806
   0   0   926393.86 1298.37   1-0.15717 0.17479-0.97469 0.84972 0.15894 0.49741
   0   0  -925406.96 1816.99   1-0.79349 0.77619-0.45305 0.57889-0.40632-0.24981
   0   0  1013817.70  396.70   1-0.11120 0.13078-0.97436 0.83549 0.19559 0.53370
   0   0 -1013084.10 1389.67   1-0.76344 0.74421-0.46583 0.60564-0.44738-0.28165
   0   0  11  881.20  255.10   1-0.06266 0.08412-0.97042 0.81790 0.23310 0.56917
   0   0 -11  770.94  300.21   1-0.73033 0.70918-0.47763 0.63143-0.48834-0.31360
   0   0  11  651.18  308.45   1 0.70970-0.68772-0.64958 0.49606 0.27269 0.53005
   0   0  1215448.30  751.72   1-0.01224 0.03565-0.96247 0.79608 0.27108 0.60413
   0   0 -1210578.97 1589.93   1-0.69387 0.67080-0.48837 0.65615-0.52918-0.34566
   0   0  1215689.76  820.01   1 0.70923-0.68525-0.63113 0.46366 0.31408 0.56163
   0  -1  1217641.84 1070.12   1-0.10052 0.14195-0.97380 0.72756 0.20396 0.67118
   0   1 -1214011.52 1855.13   1-0.63723 0.59619-0.50141 0.74848-0.58524-0.29037
   0  -1  1110829.41 1450.94   1-0.15461 0.19408-0.97476 0.74241 0.16101 0.64121
   0   1 -11 6651.76 1117.27   1-0.67737 0.63825-0.49273 0.72586-0.54623-0.25641
   0  -1  1030923.95 1031.91   1-0.20703 0.24454-0.97118 0.75271 0.11805 0.61123
   0   1 -1032065.73 1108.54   1-0.71369 0.67655-0.48280 0.70226-0.50748-0.22156
   0  -1   926385.65  696.30   1-0.25821 0.29376-0.96318 0.75860 0.07480 0.58156
   0   1  -925723.53  713.21   1-0.74637 0.71115-0.47218 0.67766-0.46900-0.18713
   0   1  -926709.37  753.93   1-0.69597 0.66050 0.71075-0.50608-0.10220-0.55462
   0  -1   8  768.20  277.16   1-0.30875 0.34239-0.95064 0.75987 0.03075 0.55259
   0   1  -8 1213.97  201.29   1-0.77577 0.74247-0.46085 0.65235-0.43103-0.15219
   0   1  -8  663.86  311.08   1-0.68709 0.65357 0.72499-0.53421-0.04770-0.53614
   0  -1   7  492.36  228.84   1-0.35878 0.39047-0.93330 0.75643-0.01428 0.52471
   0   1  -7  765.12  222.98   1-0.80202 0.77064-0.44901 0.62653-0.39389-0.11643
   0   1  -7  897.57  138.99   1-0.67529 0.64372 0.73747-0.56058 0.01006-0.52092
   0  -1   675735.41 1624.43   1-0.40913 0.43886-0.91042 0.74745-0.06120 0.49871
   0   1  -676358.13 1611.12   1-0.82514 0.79568-0.43694 0.60048-0.35807-0.07934
   0  -1   665804.41 1393.08   1-0.95437 0.98380-0.14800-0.01529 0.25935 0.17859
   0   1  -672666.57 1583.77   1-0.65969 0.63006 0.74800-0.58499 0.07279-0.51068
   0  -1   520913.73  782.37   1 0.71111-0.68361 0.57984-0.72909 0.39762-0.03309
   0  -1   523184.92  871.10   1-0.46115 0.48898-0.88036 0.73129-0.11087 0.47550
   0   1  -525428.61 1208.14   1-0.84498 0.81745-0.42512 0.57458-0.32444-0.04027
   0  -1   520831.67  758.05   1-0.96098 0.98850-0.17318 0.02381 0.21566 0.14930
   0   1  -522695.97 1007.79   1-0.63854 0.61094 0.75609-0.60692 0.14343-0.50831
   0  -1   414074.95  534.00   1 0.70612-0.68054 0.59069-0.72601 0.39046-0.09884
   0  -1   415434.98  608.51   1-0.51527 0.54113-0.84085 0.70567-0.16567 0.45737
   0   1  -416783.56  611.66   1-0.86081 0.83519-0.41444 0.54993-0.29536 0.00359
   0  -1   414644.38  540.77   1-0.96512 0.99072-0.19795 0.06252 0.17132 0.12064
   0   1  -415437.77  638.69   1-0.60853 0.58286 0.76024-0.62496 0.22740-0.51931
   0  -1   413487.37  502.92   1-0.43685 0.46255 0.71361-0.84889 0.54763-0.25575
   0  -1   3311990.1 3027.36   1-0.57420 0.59809-0.78609 0.66479-0.22879 0.44757
   0   1  -3317431.0 3042.62   1-0.87047 0.84678-0.40727 0.52880-0.27639 0.05756
   0  -1   3321224.6 3081.94   1-0.96676 0.99044-0.22279 0.10129 0.12544 0.09353
   0  -1   2435145.3 4168.62   1 0.72328-0.70135 0.55348-0.66089 0.41293-0.26705
   0   1  -2442122.1 4144.74   1-0.86402 0.84224-0.41212 0.51969-0.28918 0.14329
   0   1  -2451095.9 4241.51   1-0.47319 0.45140 0.72957-0.62210 0.49376-0.63970
   0  -1   2442676.7 4156.05   1-0.34962 0.37144 0.66711-0.77458 0.65781-0.51190
   0  -1   130834.17  652.68   1 0.75814-0.73819 0.45151-0.54500 0.47048-0.39754
   0  -1   133495.89  681.82   1-0.95425 0.97413-0.29807 0.20443-0.02331 0.09628
   0  -1   131961.23  664.82   1-0.15913 0.17902 0.53521-0.62879 0.82958-0.75668
   0   1   0 -109.83   34.71   1 0.79343-0.81140 0.22089-0.14129 0.56715-0.56715
   0   1   0  -26.04   33.63   1 0.28552-0.30343 0.10607-0.02644 0.95248-0.95248
   0  -1  -1165935.9 1606.19   1-0.95593 0.97194-0.29327 0.22753-0.01331-0.05965
   0   1   2356062.7 3325.88   1 0.19846-0.21249-0.88704 0.93884 0.41684-0.27096
   0  -1  -2338594.2 3161.51   1-0.03036 0.04440-0.96578 0.91393 0.25756-0.40343
   0   1   2335167.8 3221.57   1-0.96566 0.95159-0.24788 0.29967 0.07770 0.06823
   0   1   2345573.5 3277.78   1 0.70657-0.72051-0.60604 0.65782 0.36531-0.21935
   0  -1  -3562911.9 5258.04   1-0.30399 0.31610-0.95203 0.91416 0.03496-0.25371
   0   1   3538415.8 5142.31   1-0.96652 0.95439-0.23614 0.27398 0.10030 0.11860
   0   1   3529483.2 5014.60   1-0.68763 0.67555 0.72429-0.68626-0.05063 0.26957
   0   1   3569381.3 5401.84   1 0.70962-0.72156-0.65301 0.69083 0.26458-0.04564
   0   1   4 2015.87  164.89   1-0.07392 0.06381-0.97164 0.99570 0.22459 0.06712
   0  -1  -4 1856.01  139.11   1-0.43781 0.44796-0.89467 0.87071-0.08873-0.20293
   0  -1  -4 2655.89  293.43   1-0.92232 0.93258-0.35593 0.33211-0.15039-0.14138
   0   1   4 2245.39  165.63   1-0.96670 0.95641-0.21976 0.24371 0.13111 0.16086
   0   1   4 2430.08  238.42   1-0.66247 0.65234 0.74648-0.72233 0.06241 0.22950
   0  -1  -5461357.5 4389.51   1-0.52022 0.52838-0.83677 0.82658-0.17082-0.19380
   0   1   5431976.5 4238.36   1-0.63738 0.62909 0.75639-0.74616 0.14698 0.21789
   0   1   684797.18 1381.74   1-0.09373 0.08755-0.97335 0.96964 0.20925 0.22831
   0  -1  -681276.69 1311.38   1-0.57857 0.58477-0.78144 0.78515-0.23364-0.20391
   0  -1  -684125.74 1441.66   1-0.88957 0.89599-0.39134 0.39543-0.23559-0.20207
   0   1   773102.16 1512.04   1 0.62551-0.63010 0.72566-0.74357 0.28659 0.22375
   0   1   788261.94 1839.98   1-0.07805 0.07382-0.97205 0.95445 0.22141 0.28909
   0  -1  -787381.32 1902.21   1-0.86982 0.87431-0.40777 0.42582-0.27771-0.23289
   0   1   896343.17 2191.32   1-0.05322 0.05089-0.96923 0.93789 0.24030 0.34317
   0  -1  -894212.56 2194.79   1-0.84769 0.85026-0.42338 0.45539-0.31962-0.26392
   0   1   897558.96 2298.22   1 0.70954-0.71149-0.65521 0.62326 0.25929 0.32452
   0   1   9 2168.36  238.43   1-0.02266 0.02228-0.96444 0.91923 0.26332 0.39308
   0  -1  -9 1499.10  228.96   1-0.82314 0.82376-0.43805 0.48423-0.36130-0.29483
   0   1   9 1706.58  306.27   1 0.70971-0.70966-0.64430 0.59839 0.28490 0.37188
   0   1  1085708.37 2719.11   1 0.01279-0.01122-0.95708 0.89801 0.28951 0.43982
   0  -1 -1085653.94 3059.64   1-0.79588 0.79458-0.45194 0.51210-0.40287-0.32616
   0   1  1085547.99 2783.38   1 0.70925-0.70720-0.63138 0.57151 0.31355 0.41621
   0   1  11  238.51  257.61   1 0.05249-0.04897-0.94657 0.87363 0.31817 0.48410
   0  -1 -11  671.84  224.09   1-0.76580 0.76257-0.46490 0.53905-0.44431-0.35763
   0   1  11  489.52  439.52   1 0.70794-0.70389-0.61654 0.54272 0.34451 0.45823
   0  -1 -1240237.01 1234.93   1-0.73265 0.72750-0.47687 0.56500-0.48560-0.38924
   0   1  1239288.07 1229.33   1 0.70608-0.70011-0.59914 0.51149 0.37746 0.49821
   0  -2  11  395.60  260.74   1-0.22487 0.28227-0.96891 0.65696 0.10313 0.69908
   0   2 -11  404.39  162.99   1-0.59817 0.54110-0.50802 0.82082-0.61975-0.18289
   0  -2  1026127.12  822.02   1-0.27889 0.33443-0.95863 0.66049 0.05694 0.67223
   0   2 -1025440.17  830.52   1-0.63713 0.58198-0.50143 0.80028-0.58534-0.14433
   0   2 -1029270.68 1020.39   1-0.69305 0.63771 0.71612-0.41787-0.08273-0.64707
   0  -2   9 8100.96  610.57   1-0.33160 0.38519-0.94336 0.65912 0.01036 0.64589
   0   2  -9 7241.26  852.07   1-0.67141 0.61818-0.49415 0.77906-0.55228-0.10443
   0   2  -9 8414.70  656.06   1-0.68176 0.62837 0.73129-0.44693-0.02011-0.63670
   0  -2   8 1639.06  298.89   1-0.38349 0.43512-0.92279 0.65245-0.03710 0.62045
   0   2  -8 1655.03  218.28   1-0.70102 0.64980-0.48643 0.75758-0.52148-0.06174
   0   2  -8 1798.28  310.93   1-0.66657 0.61512 0.74398-0.47351 0.04655-0.63040
   0  -2   725974.21 1568.92   1-0.43494 0.48461-0.89634 0.63991-0.08594 0.59637
   0   2  -726222.23 1556.73   1-0.72577 0.67648-0.47909 0.73627-0.49367-0.01665
   0  -2   721930.18 1279.97   1-0.92457 0.97433-0.07904-0.17779 0.37270 0.13803
   0   2  -725130.11 2199.77   1-0.64627 0.59686 0.75377-0.49711 0.11895-0.62978
   0  -2   612543.19  615.61   1-0.48682 0.53460-0.86276 0.62018-0.13653 0.57408
   0   2  -614097.39  695.22   1-0.74468 0.69731-0.47277 0.71597-0.47108 0.03365
   0  -2   611317.31  500.23   1-0.93730 0.98467-0.10399-0.13899 0.33264 0.10531
   0   2  -613646.23 1109.36   1-0.61914 0.57166 0.75952-0.51676 0.19944-0.63730
   0  -2   530883.83 1154.03   1-0.53863 0.58444-0.82078 0.59209-0.19020 0.55483
   0   2  -530819.87 1091.41   1-0.75528 0.70984-0.46894 0.69815-0.45785 0.09333
   0  -2   530721.86 1079.29   1-0.94684 0.99231-0.12641-0.10264 0.29579 0.06916
   0   2  -528597.19 1135.67   1-0.58169 0.53614 0.75926-0.53039 0.29179-0.65667
   0  -2   4 5931.67  611.37   1 0.75288-0.70902 0.46976-0.68457 0.46096-0.16920
   0   2  -4 7689.83  302.99   1-0.75052 0.70699-0.47069 0.68592-0.46385 0.17223
   0  -2   4 7815.11  322.51   1-0.95362 0.99717-0.14563-0.06948 0.26341 0.02855
   0   2  -4 8506.62  657.86   1-0.52764 0.48405 0.74849-0.53355 0.40166-0.69354
   0  -2   4 7307.78  305.08   1-0.28070 0.32435 0.62358-0.83852 0.72961-0.43779
   0   2  -345782.55 1024.35   1 0.64617-0.68780 0.69669-0.49570 0.31157-0.53029
   0  -2   340173.77  901.46   1 0.75899-0.71712 0.44841-0.64930 0.47207-0.25325
   0   2  -342972.46  908.73   1-0.70312 0.66151-0.48584 0.68709-0.51920 0.30048
   0  -2   345980.33  959.06   1-0.95711 0.99874-0.15738-0.04380 0.24324-0.02426
   0   2  -344094.54  960.16   1-0.44416 0.40252 0.71700-0.51597 0.53723-0.75614
   0  -2   341874.97  906.33   1-0.22080 0.26256 0.58176-0.78285 0.78281-0.56409
   0   2  -2419605.5 4032.44   1 0.70079-0.74051 0.60187-0.41481 0.38293-0.52874
   0  -2   2394051.4 3795.31   1 0.77143-0.73153 0.39756-0.58455 0.49682-0.35094
   0  -2   2408823.8 3790.55   1-0.94827 0.98799-0.13017-0.05707 0.28951-0.14353
   0  -2   2406434.5 3762.42   1 0.38892-0.34904 0.52064-0.70782 0.76004-0.61412
   0   2   0362096.3 3442.25   1 0.79084-0.82677 0.26213-0.10293 0.55303-0.55303
   0   2   0350482.9 3272.87   1-0.94813 0.91224-0.12978 0.28916 0.29017-0.29017
   0  -2   0347145.7 3264.15   1 0.37324-0.33740 0.00036-0.15960 0.92773-0.92773
   0   2   151860.12 1074.42   1 0.77569-0.80966-0.03988 0.18521 0.62984-0.55689
   0  -2  -149937.17 1069.41   1-0.95286 0.98681-0.30179 0.15635-0.03110-0.04186
   0  -2  -149226.69 1024.26   1 0.59529-0.56139-0.32468 0.17929 0.73498-0.80789
   0  -2  -242393.18  876.95   1 0.47215-0.44022-0.67071 0.53927 0.57202-0.71790
   0  -2  -244057.05  972.98   1-0.94716 0.97917-0.31516 0.18368-0.05952-0.08642
   0  -2  -244171.85  934.56   1 0.68921-0.65730-0.53081 0.39934 0.49317-0.63911
   0   2   3612951.2 5714.93   1 0.46791-0.49791-0.67539 0.79293 0.57000-0.35118
   0  -2  -3600575.1 5594.61   1 0.12551-0.09549-0.92091 0.80333 0.36901-0.58781
   0  -2  -3568674.5 5448.20   1-0.93886 0.96894-0.33112 0.21359-0.09428-0.12463
   0   2   3553266.9 5242.00   1 0.68460-0.71451-0.51679 0.63432 0.51404-0.29512
   0   2   413395.27  487.54   1 0.31012-0.33817-0.81730 0.92089 0.48562-0.19386
   0  -2  -412739.28  458.00   1-0.14766 0.17570-0.97490 0.87124 0.16660-0.45832
   0  -2  -414943.47  839.70   1-0.92821 0.95640-0.34788 0.24439-0.13188-0.15988
   0   2   412444.36  519.55   1-0.96631 0.93807-0.21109 0.31473 0.14723 0.14474
   0   2   414011.08  557.30   1 0.69958-0.72750-0.56763 0.67122 0.43401-0.14212
   0   2   5190975.0 1893.67   1 0.21245-0.23856-0.87951 0.96920 0.42580-0.06111
   0  -2  -5179083.6 1767.60   1-0.32693 0.35310-0.94493 0.85531 0.01456-0.37915
   0   2   5184794.2 1973.68   1 0.70491-0.73083-0.59244 0.68208 0.39000-0.02514
   0   2   686440.01 1388.67   1 0.16013-0.18431-0.90601 0.98179 0.39177 0.04585
   0  -2  -681364.42 1294.98   1-0.44595 0.47016-0.88982 0.81410-0.09665-0.34085
   0  -2  -691483.57 1619.61   1-0.90028 0.92463-0.38113 0.30556-0.21031-0.22735
   0   2   690217.35 1566.08   1 0.70629-0.73017-0.60413 0.67978 0.36901 0.06885
   0   2   757988.26 1112.73   1 0.13722-0.15944-0.91601 0.97812 0.37693 0.13360
   0  -2  -754039.87 1035.20   1-0.53090 0.55312-0.82765 0.76561-0.18202-0.32845
   0  -2  -763222.83 1471.88   1-0.88292 0.90535-0.39718 0.33557-0.25037-0.26023
   0   2   760711.39 1275.74   1 0.70673-0.72861-0.60713 0.66882 0.36320 0.14763
   0   2   8188098.7 4114.67   1 0.13374-0.15400-0.91749 0.96573 0.37458 0.20888
   0  -2  -8210279.5 4669.34   1-0.86322 0.88373-0.41270 0.36504-0.29072-0.29283
   0   2   8205960.8 4602.18   1 0.70639-0.72627-0.60481 0.65254 0.36771 0.21610
   0   2   976721.22 2381.16   1 0.14365-0.16204-0.91343 0.94749 0.38077 0.27566
   0  -2  -981325.46 2846.18   1-0.84110 0.85969-0.42757 0.39388-0.33124-0.32525
   0   2   981016.12 2618.04   1 0.70588-0.72384-0.59799 0.63185 0.37963 0.27713
   0   2  1033675.33 1145.46   1 0.16324-0.17969-0.90457 0.92472 0.39383 0.33554
   0  -2 -1034826.52 1892.32   1-0.81654 0.83315-0.44163 0.42214-0.37177-0.35726
   0   2  1034110.23 1251.65   1 0.70421-0.72017-0.58876 0.60867 0.39678 0.33294
   0   2  1145693.14 1581.56   1 0.19052-0.20504-0.89118 0.89742 0.41170 0.39061
   0  -2 -1147805.71 1726.20   1-0.78919 0.80388-0.45502 0.44951-0.41246-0.38948
   0   2  1144850.80 1690.25   1 0.70174-0.71571-0.57690 0.58288 0.41800 0.38470
   0  -2 -1210125.68 1685.01   1-0.75896 0.77173-0.46755 0.47603-0.45316-0.42168
   0   2  1214868.69  672.45   1 0.69834-0.71032-0.56267 0.55470 0.44238 0.43329
   0  -3  1127577.26 1245.90   1-0.27752 0.35301-0.95895 0.56735 0.05813 0.74397
   0   3 -1127829.79 1291.10   1-0.69364 0.61842 0.71510-0.32328-0.08652-0.71626
   0  -3  10 5816.79  614.34   1-0.33114 0.40466-0.94351 0.56581 0.01078 0.71839
   0   3 -10 5804.17  705.32   1-0.68158 0.60831 0.73148-0.35355-0.01920-0.71060
   0  -3   997508.34 2916.24   1-0.38330 0.45487-0.92288 0.55908-0.03692 0.69319
   0   3  -997550.29 2792.23   1-0.54845 0.47727-0.51416 0.87874-0.65941 0.00270
   0   3  -993659.85 2849.19   1-0.66521 0.59389 0.74484-0.38079 0.05189-0.70871
   0  -3   817766.34  623.27   1-0.43426 0.50387-0.89673 0.54683-0.08529 0.66863
   0   3  -820003.61  476.87   1-0.57282 0.50357-0.51145 0.86208-0.64053 0.05679
   0   3  -819664.13 1183.45   1-0.64345 0.57416 0.75469-0.40444 0.12806-0.71187
   0  -3   750223.32 1222.29   1-0.48467 0.55241-0.86431 0.52821-0.13436 0.64484
   0   3  -748736.38 1029.04   1-0.58656 0.51923-0.50967 0.84635-0.62942 0.11864
   0  -3   743093.19  933.97   1-0.87567 0.94336-0.00591-0.33058 0.48286 0.02786
   0   3  -750891.47 2676.56   1-0.61489 0.54753 0.75990-0.42354 0.21084-0.72167
   0  -3   621355.67 1069.11   1-0.53375 0.59952-0.82514 0.50293-0.18503 0.62259
   0   3  -621218.03 1002.05   1-0.58411 0.51871-0.51000 0.83273-0.63142 0.19362
   0  -3   621240.06  963.74   1-0.88771 0.95341-0.02171-0.30085 0.45988-0.02211
   0   3  -621100.08 1006.48   1-0.57693 0.51150 0.75873-0.43627 0.30243-0.74028
   0  -3   579369.15 1718.78   1-0.58203 0.64584-0.77770 0.46938-0.23750 0.60213
   0   3  -579794.36 1596.15   1-0.55061 0.48713-0.51394 0.82273-0.65778 0.29294
   0  -3   580072.60 1610.89   1-0.89222 0.95593-0.02793-0.28071 0.45073-0.08592
   0   3  -581062.89 1726.92   1-0.52559 0.46216 0.74791-0.43940 0.40543-0.77027
   0   3  -434511.89 1254.56   1 0.63035-0.69184 0.71914-0.42462 0.29236-0.58399
   0  -3   432633.00 1110.38   1-0.87876 0.94049-0.00987-0.28484 0.47715-0.18531
   0  -3   431990.23 1086.80   1 0.43292-0.37114 0.52090-0.81562 0.73568-0.44384
   0   3  -433704.54 1202.92   1-0.45408 0.39259 0.72147-0.42687 0.52276-0.81464
   0  -3   3 8680.73  829.65   1 0.78187-0.72202 0.34168-0.62216 0.52145-0.30263
   0  -3   3 9230.67  309.27   1-0.70863 0.76848 0.15347-0.43435 0.68868-0.46985
   0  -3   3 9367.48  314.38   1-0.12966 0.18951 0.43482-0.71567 0.89112-0.67222
   0   3  -3 9099.44  371.65   1-0.35175 0.29214 0.66836-0.38768 0.65540-0.87427
   0  -3   3 9402.03  378.18   1-0.05603 0.11561 0.45020-0.73098 0.89116-0.67253
   0  -3   2185293.5 1889.64   1 0.78832-0.73042 0.28891-0.55553 0.54320-0.39732
   0   3  -2197395.7 1954.58   1-0.20485 0.14715 0.57004-0.30326 0.79566-0.94147
   0  -3   2177676.7 1757.03   1 0.05911-0.00147 0.34503-0.61185 0.93672-0.79097
   0   3  -1139989.1 1520.72   1 0.75926-0.81515 0.44744-0.19480 0.47256-0.54550
   0  -3   1141447.5 1336.71   1-0.85146 0.90717-0.42090 0.16796-0.31282 0.38576
   0   3  -1138497.1 1298.16   1-0.58101 0.52512 0.23912 0.01384 0.77797-0.85091
   0   3  -1142635.6 1432.04   1-0.00547-0.05021 0.40533-0.15247 0.91415-0.98703
   0   3   022157.71  781.10   1 0.78673-0.84062 0.30303-0.06423 0.53779-0.53779
   0  -3   020609.69  719.98   1 0.78832-0.73447 0.05218-0.29106 0.61304-0.61304
   0  -3   020502.06  727.86   1-0.93581 0.98963-0.33627 0.09719-0.10570 0.10570
   0   3   020536.84  698.25   1-0.92672 0.87294-0.08301 0.32200 0.36644-0.36644
   0  -3   020103.40  704.80   1 0.40101-0.34724-0.03521-0.20364 0.91539-0.91539
   0   3   1 3352.11  196.92   1 0.79346-0.84534 0.11978 0.10509 0.59671-0.52377
   0  -3  -1 3783.78  185.64   1 0.74668-0.69486-0.16704-0.05792 0.64386-0.71679
   0  -3  -1 3262.55  197.46   1-0.94330 0.99519-0.32300 0.09787-0.07645 0.00348
   0   3   1 3421.14  185.37   1-0.95916 0.90723-0.16525 0.39038 0.22957-0.15657
   0   3   1 3274.70  179.94   1 0.42351-0.47530-0.06484 0.28978 0.90356-0.83072
   0  -3  -1 2935.04  154.11   1 0.55592-0.50411-0.25813 0.03316 0.79013-0.86299
   0   3   2 3622.87  195.53   1 0.76415-0.81415-0.09787 0.30890 0.63755-0.49166
   0  -3  -2 3253.28  157.25   1 0.62933-0.57942-0.45062 0.23958 0.63314-0.77901
   0  -3  -2 3319.86  234.28   1-0.94144 0.99140-0.32649 0.11532-0.08409-0.06184
   0   3   2 3715.59  199.08   1-0.96436 0.91435-0.19211 0.40330 0.18190-0.03592
   0  -3  -2 3288.21  187.06   1 0.65179-0.60191-0.43625 0.22512 0.62035-0.76617
   0   3   365243.79 1354.58   1 0.69222-0.74020-0.32228 0.51945 0.64572-0.42692
   0  -3  -361554.64 1272.54   1 0.41598-0.36808-0.72863 0.53148 0.54409-0.76291
   0  -3  -364841.35 1572.37   1-0.93578 0.98379-0.33632 0.13909-0.10581-0.11309
   0   3   363304.66 1392.86   1-0.96518 0.91708-0.19845 0.39571 0.17041 0.04856
   0  -3  -362683.07 1327.88   1 0.69698-0.64912-0.55746 0.36025 0.45103-0.66995
   0   3   4239594.4 2308.71   1 0.59307-0.63914-0.51133 0.69459 0.62192-0.33019
   0  -3  -4232317.5 2226.80   1 0.15427-0.10833-0.90870 0.72551 0.38787-0.67962
   0  -3  -4247985.6 2575.75   1-0.92740 0.97352-0.34903 0.16589-0.13451-0.15725
   0   3   4236272.5 2388.54   1 0.66012-0.70612-0.45534 0.63865 0.59741-0.30578
   0   3   5 2587.09  176.06   1 0.49595-0.53998-0.64347 0.81284 0.58306-0.21837
   0  -3  -5 2658.70  164.46   1-0.08329 0.12731-0.97253 0.80315 0.21736-0.58200
   0  -3  -5 2820.69  322.36   1-0.91669 0.96089-0.36304 0.19385-0.16696-0.19775
   0   3   5 2442.84  314.68   1 0.67865-0.72252-0.49999 0.66931 0.53799-0.17312
   0   3   6263631.4 3970.44   1 0.42025-0.46235-0.72452 0.88000 0.54630-0.10867
   0  -3  -6254582.9 3823.48   1-0.26718 0.30937-0.96130 0.80602 0.06708-0.50459
   0  -3  -6283940.7 4436.96   1-0.90370 0.94598-0.37762 0.22239-0.20177-0.23589
   0   3   6269235.5 4174.55   1 0.68758-0.72946-0.52573 0.68111 0.50083-0.06299
   0   3   7 2754.03  234.78   1 0.36955-0.40972-0.77057 0.91216 0.51927-0.00870
   0  -3  -7 2529.86  187.65   1-0.40260 0.44284-0.91372 0.77233-0.05502-0.45540
   0  -3  -7 3516.34  403.25   1-0.88846 0.92882-0.39234 0.25107-0.23812-0.27248
   0   3   7 2162.73  291.21   1 0.69187-0.73176-0.53943 0.68086 0.47992 0.03088
   0   3   8 4154.22  319.17   1 0.34013-0.37834-0.79458 0.92215 0.50293 0.08056
   0  -3  -8 3495.74  258.72   1-0.50378 0.54203-0.85002 0.72225-0.15381-0.42959
   0  -3  -8 5537.45  616.30   1-0.87091 0.90935-0.40693 0.27962-0.27552-0.30803
   0   3   8 3977.60  389.89   1 0.69353-0.73143-0.54505 0.67253 0.47109 0.11269
   0  -3  -9105848.9 3345.05   1-0.85099 0.88751-0.42121 0.30785-0.31366-0.34283
   0   3   9100779.9 3202.95   1 0.69349-0.72940-0.54492 0.65846 0.47129 0.18546
   0   3  10 1150.49  156.49   1 0.33073-0.36508-0.80189 0.90165 0.49757 0.23180
   0  -3 -10 2077.82  275.00   1-0.82874 0.86327-0.43490 0.33576-0.35219-0.37684
   0   3  10 1455.70  380.34   1 0.69217-0.72608-0.54042 0.64002 0.47837 0.25135
   0   3  1135598.58 1233.19   1 0.34435-0.37679-0.79131 0.87735 0.50521 0.29711
   0  -3 -1140015.50 2374.62   1-0.80379 0.83640-0.44814 0.36298-0.39125-0.41068
   0   3  1139243.13 1479.89   1 0.68970-0.72162-0.53238 0.61803 0.49079 0.31191
   0  -3 -12 2981.03  470.60   1-0.77609 0.80678-0.46071 0.38954-0.43060-0.44424
   0   3  12 3858.34  484.88   1 0.68612-0.71604-0.52130 0.59301 0.50742 0.36825
   0  -4  10 7618.13  774.37   1-0.36821 0.45971-0.92945 0.47219-0.02294 0.75212
   0   4 -10 7360.35  966.20   1-0.66947 0.57827 0.74201-0.28439 0.03485-0.76466
   0  -4   943942.60 1285.15   1-0.41884 0.50839-0.90531 0.46195-0.07046 0.72672
   0   4  -942002.82 1937.64   1-0.64832 0.55907 0.75301-0.30927 0.11244-0.76927
   0  -4   841790.36 1466.43   1-0.46829 0.55599-0.87566 0.44604-0.11795 0.70136
   0   4  -841523.19 2745.61   1-0.62068 0.53344 0.75936-0.32941 0.19524-0.77905
   0  -4   776270.57 2455.64   1-0.51573 0.60146-0.84048 0.42476-0.16614 0.67662
   0  -4   777574.25 2354.02   1 0.29840-0.21276 0.51620-0.93242 0.80280-0.29207
   0   4  -781015.00 2753.07   1-0.58497 0.49966 0.75956-0.34351 0.28436-0.79519
   0  -4   6206354.2 4199.20   1-0.56160 0.64537-0.79899 0.39716-0.21494 0.65250
   0  -4   6195696.0 3805.22   1-0.70948 0.79326 0.15276-0.55510 0.68796-0.25017
   0  -4   6200078.3 3886.46   1 0.20230-0.11857 0.50625-0.90849 0.83831-0.40071
   0   4  -6208783.1 4341.60   1-0.53862 0.45534 0.75143-0.34936 0.38109-0.81890
   0  -4   5 6542.27  518.74   1-0.60582 0.68762-0.75032 0.36238-0.26453 0.62916
   0  -4   5 6107.41  273.64   1-0.54219 0.62393 0.26206-0.65035 0.79833-0.43330
   0  -4   5 6153.62  276.56   1-0.12149 0.20328 0.43725-0.82566 0.89109-0.52625
   0   4  -5 6925.31  640.10   1-0.47773 0.39640 0.73139-0.34322 0.48665-0.85150
   0   4  -4221738.2 4411.73   1-0.39693 0.31745 0.69370-0.31945 0.60101-0.89284
   0   4  -3186869.2 2937.26   1 0.68876-0.76629 0.62558-0.26539 0.36639-0.58511
   0   4  -3173972.8 2683.51   1-0.29036 0.21285 0.63000-0.26965 0.72026-0.93913
   0   4  -210762.40  753.91   1 0.72595-0.80179 0.54692-0.20078 0.41697-0.56285
   0   4  -2 9278.12  408.37   1-0.15247 0.07685 0.52998-0.18356 0.83418-0.97999
   0  -4   2 8138.15  331.02   1 0.17448-0.09892 0.22896-0.57537 0.95766-0.81188
   0   4  -1228153.5 2312.37   1 0.75750-0.83137 0.45379-0.12157 0.46931-0.54224
   0  -4   1227643.2 2146.65   1-0.80912 0.88272-0.44548 0.11289-0.38322 0.45613
   0   4  -1220637.0 2069.61   1-0.63664 0.56277 0.20421 0.12842 0.74362-0.81656
   0   4  -1225848.6 2234.85   1 0.01398-0.08759 0.38751-0.05502 0.92175-0.99463
   0  -4   1213662.7 2107.66   1 0.29802-0.22435 0.09191-0.42431 0.95012-0.87728
   0   4   0113004.9 2374.73   1 0.78154-0.85343 0.34379-0.02548 0.52057-0.52057
   0  -4   0107758.7 2230.37   1 0.78329-0.71150 0.00921-0.32772 0.62157-0.62157
   0  -4   0102077.4 2103.05   1-0.90893 0.98067-0.37201 0.05337-0.18824 0.18824
   0   4   0109575.0 2231.54   1-0.89680 0.82509-0.03442 0.35308 0.44108-0.44108
   0   4   0108409.4 2242.21   1 0.19186-0.26353 0.21049 0.10802 0.95858-0.95858
   0  -4   0106295.0 2193.48   1 0.42807-0.35638-0.07094-0.24753 0.90095-0.90095
   0  -4  -1155719.5 1565.80   1 0.75122-0.68135-0.15062-0.15396 0.64262-0.71557
   0  -4  -1156964.1 1654.19   1-0.92726 0.99708-0.34922 0.04454-0.13495 0.06201
   0   4   1146334.8 1467.37   1-0.94450 0.87463-0.12050 0.42533 0.30560-0.23260
   0   4   221140.32  749.44   1 0.78984-0.85778 0.06859 0.22206 0.60946-0.46357
   0  -4  -220166.14  707.36   1 0.67795-0.61014-0.35478 0.06408 0.64382-0.78969
   0  -4  -220184.91  786.67   1-0.93042 0.99831-0.34466 0.05394-0.12457-0.02131
   0   4   219440.30  710.40   1-0.95684 0.88889-0.15642 0.44730 0.24490-0.09891
   0   4   220939.55  758.53   1 0.47497-0.54274-0.13538 0.42607 0.86952-0.72380
   0  -4  -220793.51  739.02   1 0.62677-0.55896-0.38376 0.09298 0.67814-0.82395
   0   4   4 3692.05  202.50   1 0.72356-0.78753-0.24071 0.50361 0.64692-0.35518
   0  -4  -4 3036.81  162.88   1 0.35541-0.29155-0.78237 0.51950 0.51143-0.80318
   0   4   4 3242.70  234.02   1 0.60674-0.67066-0.34548 0.60844 0.71589-0.42427
   0   4   5255279.3 3841.36   1 0.66870-0.73075-0.37465 0.62365 0.64224-0.27756
   0  -4  -5237605.2 3563.07   1 0.13628-0.07429-0.91641 0.66740 0.37630-0.74097
   0  -4  -5268886.9 4221.22   1-0.91297 0.97510-0.36745 0.11860-0.17736-0.18735
   0   4   5258332.1 3986.32   1 0.63672-0.69870-0.40391 0.65296 0.65683-0.29230
   0   4   642123.03 1877.33   1 0.61230-0.67245-0.48010 0.71519 0.62816-0.19055
   0  -4  -641401.86 1831.47   1-0.07211 0.13210-0.97145 0.73636 0.22598-0.66355
   0  -4  -646238.37 1432.68   1-0.90186 0.96207-0.37952 0.14463-0.20639-0.23126
   0   4   641497.52 1902.73   1 0.65437-0.71441-0.44206 0.67721 0.61349-0.17605
   0   4   716372.47  959.30   1 0.56381-0.62203-0.55526 0.77646 0.61138-0.10085
   0  -4  -716378.97  952.31   1-0.24801 0.30604-0.96514 0.74394 0.08353-0.59403
   0  -4  -720728.04 1603.29   1-0.88846 0.94676-0.39234 0.17140-0.23810-0.27250
   0   4   716625.25 1048.25   1 0.66525-0.72308-0.46580 0.68692 0.58348-0.07267
   0   4   828276.92  652.05   1 0.52776-0.58407-0.60428 0.81159 0.59691-0.01344
   0  -4  -823976.30 1264.95   1-0.38866 0.44492-0.92042 0.71337-0.04192-0.54142
   0   4   828093.68  893.99   1 0.67084-0.72668-0.47956 0.68673 0.56567 0.01811
   0   4   9  244.47  115.56   1 0.50491-0.55911-0.63275 0.82618 0.58709 0.06935
   0  -4  -9  979.86  257.47   1-0.85479 0.90924-0.41865 0.22563-0.30669-0.34979
   0   4   9  405.55  384.73   1 0.67334-0.72719-0.48594 0.67916 0.55718 0.09957
   0   4  10  288.89  156.13   1 0.49524-0.54751-0.64431 0.82384 0.58274 0.14663
   0  -4 -10 1072.69  299.75   1-0.83453 0.88698-0.43152 0.25273-0.34254-0.38649
   0   4  10 1478.08  532.58   1 0.67363-0.72549-0.48670 0.66598 0.55617 0.17356
   0  -4 -11 5201.73  779.60   1-0.81165 0.86218-0.44419 0.27938-0.37935-0.42258
   0   4  11 3585.50  497.54   1 0.67218-0.72204-0.48297 0.64830 0.56116 0.24154
   0  -4 -12 1818.77  385.99   1-0.78613 0.83474-0.45639 0.30556-0.41677-0.45807
   0   4  12 2250.41  527.64   1 0.66921-0.71708-0.47548 0.62687 0.57102 0.30465
   0  -5  1015703.25 1490.89   1-0.39349 0.50298-0.91815 0.38132-0.04644 0.77563
   0   5 -10 9792.50 1504.07   1-0.65802 0.54890 0.74885-0.21154 0.07886-0.80867
   0  -5   914532.96  990.98   1-0.44226 0.54979-0.89204 0.36911-0.09305 0.74931
   0   5  -912420.55 1591.42   1-0.63265 0.52554 0.75746-0.23392 0.16119-0.81797
   0  -5   817443.26 1083.92   1-0.48946 0.59515-0.86083 0.35160-0.13920 0.72261
   0   5  -817401.65 2094.10   1-0.60029 0.49510 0.76033-0.25068 0.24807-0.83188
   0  -5   7 3376.74  386.77   1-0.53426 0.63799-0.82469 0.32934-0.18558 0.69606
   0   5  -7 2931.37  343.68   1-0.55916 0.45590 0.75599-0.26024 0.34029-0.85113
   0  -5   6124764.7 3907.12   1-0.57705 0.67881-0.78307 0.30161-0.23195 0.66950
   0   5  -6122458.6 3774.84   1-0.50713 0.40596 0.74216-0.26043 0.43818-0.87599
   0   5  -530192.27  783.47   1-0.44106 0.34184 0.71558-0.24775 0.54166-0.90650
   0   5  -453209.79 1091.52   1-0.35744 0.26005 0.67170-0.21779 0.64888-0.94070
   0   5  -3228073.4 4754.96   1 0.69203-0.78751 0.61931-0.17952 0.37084-0.58956
   0   5  -3224925.4 4476.56   1-0.25368 0.15825 0.60513-0.16514 0.75462-0.97349
   0   5  -266496.40 2381.15   1 0.72466-0.81848 0.55010-0.12439 0.41502-0.56089
   0   5  -269382.60 1174.48   1-0.12856 0.03503 0.51091-0.08485 0.84996-0.99577
   0   5  -1233373.0 3601.40   1 0.75226-0.84410 0.47182-0.06003 0.45986-0.53280
   0  -5   1229211.4 3405.50   1-0.74864 0.84016-0.47137 0.05913-0.46619 0.53909
   0   5  -1224395.2 3329.12   1-0.60924 0.51740 0.22183 0.19048 0.76132-0.83426
   0   5  -1229649.9 3499.13   1 0.01294-0.10447 0.38847 0.02364 0.92136-0.99424
   0   5   0168395.0 2639.69   1 0.77427-0.86414 0.38396 0.01391 0.50305-0.50305
   0  -5   0156628.5 2387.88   1-0.87254 0.96220-0.40566 0.00736-0.27221 0.27221
   0   5   0164710.3 2482.27   1-0.85740 0.76776 0.01628 0.38203 0.51438-0.51438
   0   5   0155827.1 2417.96   1 0.15922-0.24881 0.24498 0.15316 0.95636-0.95636
   0   5   185421.67 1497.44   1 0.78864-0.87645 0.28594 0.09813 0.54431-0.47137
   0  -5  -176831.43 1320.52   1-0.90398 0.99173-0.37733-0.00701-0.20105 0.12811
   0   5   180230.50 1266.08   1-0.92144 0.83378-0.07342 0.45781 0.38151-0.30855
   0   5   188990.85 1444.71   1 0.29459-0.38223 0.09593 0.28825 0.95079-0.87795
   0  -5  -2277122.0 4249.62   1-0.91373 0.99956-0.36656-0.00381-0.17526 0.02937
   0   5   2264554.5 4002.25   1-0.94312 0.85722-0.11717 0.48775 0.31110-0.16512
   0   5   2297532.4 4505.74   1 0.40590-0.49157-0.04158 0.41186 0.91296-0.76728
   0   5   3107317.9 1700.09   1 0.78968-0.87365 0.06680 0.28954 0.60986-0.39102
   0  -5  -397972.07 1529.25   1 0.60187-0.51805-0.49729 0.14093 0.62485-0.84365
   0  -5  -390866.04 1529.07   1-0.91495 0.99885-0.36513 0.00870-0.17187-0.04695
   0   5   3104442.9 1686.66   1 0.48940-0.57314-0.15613 0.51254 0.85796-0.63938
   0   5   4152285.5 2351.97   1 0.77449-0.85653-0.04666 0.38908 0.63085-0.33907
   0  -5  -4143243.2 2189.83   1 0.46493-0.38317-0.67863 0.33615 0.56857-0.86033
   0  -5  -4142504.6 2516.86   1-0.91153 0.99352-0.36910 0.02663-0.18129-0.11048
   0   5   5 5415.48  296.96   1 0.75021-0.83032-0.15438 0.48288 0.64291-0.27818
   0  -5  -5 4633.78  229.63   1 0.28974-0.20997-0.83173 0.50323 0.47356-0.83825
   0  -5  -5 6384.99  630.68   1-0.90489 0.98496-0.37637 0.04786-0.19874-0.16598
   0   5   5 4802.43  465.17   1 0.58713-0.66703-0.31025 0.63895 0.74767-0.38314
   0   5   6329606.318517.67   1 0.72040-0.79845-0.24972 0.56445 0.64703-0.20942
   0  -5  -6298565.9 5152.12   1 0.09589-0.01792-0.93232 0.61759 0.34868-0.78629
   0  -5  -6334045.418813.33   1-0.89562 0.97377-0.38570 0.07115-0.22155-0.21610
   0   5   6338734.419062.07   1 0.61286-0.69082-0.35689 0.67169 0.70499-0.26756
   0   5   734040.14  779.21   1 0.68997-0.76611-0.32755 0.62837 0.64547-0.13493
   0  -5  -732356.82  709.27   1-0.09254 0.16851-0.97327 0.67246 0.21018-0.72068
   0  -5  -736966.87 1703.45   1-0.88395 0.96017-0.39630 0.09571-0.24813-0.26247
   0   5   727835.91  793.20   1 0.62942-0.70544-0.38904 0.68993 0.67266-0.16232
   0   5   848839.15 1538.40   1 0.66323-0.73745-0.38599 0.67292 0.64118-0.05771
   0  -5  -842434.76 1329.72   1-0.25955 0.33356-0.96291 0.67599 0.07365-0.65708
   0  -5  -849472.36 2955.79   1-0.86996 0.94426-0.40767 0.12103-0.27744-0.30611
   0   5   849600.89 1714.14   1 0.63973-0.71381-0.41016 0.69714 0.65000-0.06675
   0   5   9 9477.95  551.71   1 0.64306-0.71537-0.42543 0.69846 0.63675 0.01964
   0  -5  -913318.91 1223.04   1-0.85365 0.92604-0.41942 0.14674-0.30879-0.34770
   0   5   911616.58  805.09   1 0.64569-0.71783-0.42284 0.69592 0.63583 0.02032
   0   5  10 3667.09  504.55   1 0.63153-0.70192-0.44667 0.70580 0.63375 0.09558
   0  -5 -10 5794.84  744.46   1-0.83515 0.90552-0.43115 0.17270-0.34150-0.38754
   0   5  10 3804.88  639.64   1 0.64848-0.71868-0.42891 0.68808 0.62888 0.10017
   0  -5 -1110988.63 1468.34   1-0.81407 0.88252-0.44293 0.19847-0.37561-0.42632
   0   5  1111560.89  916.78   1 0.64882-0.71708-0.42967 0.67493 0.62801 0.17394
   0  -5 -12 4747.81  889.22   1-0.79044 0.85696-0.45445 0.22397-0.41069-0.46415
   0   5  12 5265.38  810.99   1 0.64714-0.71345-0.42599 0.65734 0.63224 0.24262
   0  -6   9 2205.17  486.39   1-0.45684 0.58248-0.88313 0.28038-0.10661 0.76295
   0   6  -9 2638.36  587.80   1-0.61959 0.49452 0.75948-0.15623 0.19821-0.85500
   0  -6   8 3397.52  651.71   1-0.50149 0.62517-0.85180 0.26293-0.15145 0.73486
   0   6  -8 2500.75  541.77   1-0.58364 0.46050 0.75944-0.17010 0.28739-0.87120
   0  -6   7 3382.15  642.96   1-0.54390 0.66561-0.81597 0.24100-0.19582 0.70630
   0   6  -7 3395.09  665.69   1-0.53897 0.41795 0.75152-0.17622 0.38042-0.89121
   0  -6   6  929.66  366.38   1-0.58402 0.70377-0.77552 0.21443-0.23973 0.67728
   0   6  -6  912.29  296.52   1-0.48361 0.36455 0.73369-0.17230 0.47728-0.91510
   0   6  -535295.94 1199.37   1-0.41541 0.29816 0.70326-0.15579 0.57693-0.94171
   0   6  -4 5885.13  490.78   1 0.65762-0.77295 0.67924-0.14592 0.32582-0.61744
   0   6  -4 7147.53  497.14   1-0.33289 0.21760 0.65704-0.12348 0.67636-0.96819
   0   6  -384196.29 2092.41   1 0.68978-0.80321 0.62364-0.10425 0.36777-0.58649
   0   6  -384184.89 1944.72   1-0.23456 0.12114 0.59167-0.07204 0.77129-0.99001
   0   6  -2 7393.54  731.50   1 0.71867-0.83019 0.56253-0.05707 0.40872-0.55453
   0   6  -2 5710.58  385.20   1-0.12195 0.01050 0.50555 0.00013 0.85413-0.99994
   0   6  -187192.99 1915.79   1 0.74457-0.85439 0.49607-0.00470 0.44666-0.51960
   0  -6   183128.57 1641.86   1-0.66810 0.77775-0.49492 0.00290-0.55558 0.62855
   0   6  -180643.48 1594.34   1-0.54453 0.43472 0.26033 0.23165 0.79731-0.87025
   0   6  -183744.99 1758.98   1 0.00091-0.11035 0.39951 0.09223 0.91672-0.98960
   0   6   095047.39 2035.53   1 0.76538-0.87322 0.42377 0.05368 0.48435-0.48435
   0  -6   092834.88 1868.91   1-0.82547 0.93299-0.43675-0.04115-0.35753 0.35753
   0   6   091406.87 1828.58   1-0.80728 0.69963 0.06936 0.40868 0.58607-0.58607
   0   6   094646.03 1967.60   1 0.12584-0.23335 0.27930 0.19847 0.95192-0.95192
   0   6   135831.66 1478.33   1 0.78114-0.88700 0.34624 0.11730 0.51954-0.44660
   0  -6  -133157.87 1334.09   1-0.87252 0.97819-0.40568-0.05831-0.27226 0.19931
   0   6   132454.38 1287.95   1-0.88962 0.78404-0.02433 0.48839 0.45603-0.38307
   0   6   135123.41 1431.69   1 0.24304-0.34860 0.15448 0.30935 0.95763-0.88474
   0   6   2154905.3 3151.63   1 0.79071-0.89448 0.26376 0.18600 0.55245-0.40657
   0  -6  -2148548.5 3060.00   1-0.89063 0.99439-0.39037-0.05966-0.23318 0.08729
   0   6   2128657.4 2587.95   1-0.92213 0.81853-0.07465 0.52477 0.37959-0.23367
   0   6   2152315.5 3084.09   1 0.34458-0.44816 0.03604 0.41385 0.93806-0.79238
   0   6   350235.41 1230.12   1 0.79451-0.89628 0.17891 0.25694 0.58028-0.36146
   0  -6  -351192.29 1303.53   1-0.89683 0.99867-0.38454-0.05154-0.21868-0.00015
   0   6   348826.95 1130.86   1 0.42607-0.52768-0.06825 0.50423 0.90211-0.68358
   0   6   4158078.1 2822.45   1 0.79206-0.89182 0.09382 0.32812 0.60318-0.31142
   0  -6  -4165672.6 3066.84   1-0.89672 0.99663-0.38464-0.03747-0.21894-0.07282
   0   6   4157159.4 2856.62   1 0.48815-0.58786-0.15432 0.57645 0.85900-0.56755
   0   6   596128.16 1768.14   1 0.78368-0.88174 0.01209 0.39602 0.62104-0.25631
   0  -6  -5105308.0 2312.07   1-0.89252 0.99052-0.38863-0.01953-0.22881-0.13590
   0   6   6 4382.48  309.41   1 0.77140-0.86753-0.06313 0.45732 0.63320-0.19552
   0  -6  -6 7137.26  864.47   1-0.88524 0.98132-0.39519 0.00098-0.24529-0.19236
   0   6   6 5024.40  440.94   1 0.56552-0.66132-0.27392 0.66824 0.77791-0.34074
   0   6   747922.70  818.10   1 0.75702-0.85122-0.12815 0.50842 0.64069-0.13007
   0  -6  -753318.04 1825.28   1-0.87531 0.96947-0.40347 0.02322-0.26651-0.24409
   0   6   754288.06 1104.94   1 0.58798-0.68192-0.31175 0.69228 0.74637-0.23604
   0   6   838803.75  765.62   1 0.74288-0.83501-0.18025 0.54681 0.64469-0.06121
   0  -6  -842723.93 2404.83   1-0.86294 0.95519-0.41290 0.04660-0.29125-0.29229
   0   6   841379.56 1096.76   1 0.60308-0.69508-0.33874 0.70537 0.72217-0.13893
   0   6   953562.07 1652.81   1 0.73145-0.82166-0.21722 0.56987 0.64636 0.01004
   0  -6  -956214.20 1935.18   1-0.84822 0.93854-0.42303 0.07070-0.31867-0.33782
   0   6   957506.50 1961.31   1 0.61285-0.70291-0.35687 0.70959 0.70501-0.04886
   0  -6 -10  995.62  216.71   1-0.83131 0.91960-0.43341 0.09532-0.34794-0.38109
   0   6  10 1147.67  394.14   1 0.61860-0.70672-0.36782 0.70663 0.69428 0.03476
   0   6  1149533.95 1557.30   1 0.62121-0.70739-0.37286 0.69777 0.68924 0.11271
   0  -7   817681.13 1026.93   1-0.50652 0.64820-0.84787 0.17938-0.15663 0.74003
   0   7  -814569.66 1381.60   1-0.57142 0.43033 0.75801-0.08896 0.31446-0.89827
   0  -7   7 1056.83  353.34   1-0.54690 0.68660-0.81319 0.15859-0.19904 0.70952
   0   7  -7  978.49  302.88   1-0.52465 0.38574 0.74763-0.09268 0.40715-0.91794
   0  -7   6 4840.83  732.72   1-0.58483 0.72257-0.77463 0.13392-0.24064 0.67819
   0   7  -6 3575.18  628.81   1-0.46797 0.33101 0.72742-0.08637 0.50185-0.93966
   0   7  -5   52.19  303.07   1 0.62105-0.75625 0.73153-0.10468 0.28131-0.64584
   0   7  -5  219.31  225.34   1-0.39999 0.26483 0.69532-0.06820 0.59709-0.96187
   0   7  -4 1796.99  336.57   1 0.65377-0.78706 0.68523-0.07230 0.32099-0.61262
   0   7  -4 1663.15  200.89   1-0.32029 0.18708 0.64923-0.03602 0.68985-0.98168
   0   7  -3 1959.45  344.85   1 0.68366-0.81504 0.63507-0.03608 0.35954-0.57826
   0   7  -3 2905.49  306.20   1-0.22842 0.09708 0.58727 0.01199 0.77648-0.99520
   0   7  -217646.16 1036.44   1 0.71052-0.83999 0.58114 0.00391 0.39677-0.54258
   0   7  -220035.40 1132.17   1-0.12648-0.00288 0.50923 0.07609 0.85128-0.99709
   0   7  -1 8231.23  976.98   1 0.73481-0.86260 0.52392 0.04702 0.43075-0.50369
   0  -7   1 5934.40  349.80   1-0.56072 0.68832-0.51286-0.05883-0.65004 0.72300
   0   7  -1 5818.04  345.31   1-0.44662 0.31895 0.31207 0.25954 0.83853-0.91153
   0   7  -1 6488.37  490.23   1-0.01783-0.10952 0.41649 0.15488 0.90896-0.98184
   0   7   038516.70 1075.53   1 0.75481-0.88063 0.46320 0.09382 0.46442-0.46442
   0  -7   038035.44  885.62   1-0.76537 0.89080-0.46507-0.09248-0.44487 0.44487
   0   7   037820.25  872.93   1-0.74420 0.61861 0.12542 0.43230 0.65606-0.65606
   0   7   038124.85  980.41   1 0.09161-0.21703 0.31342 0.24398 0.94518-0.94518
   0  -7  -1 4011.77  498.34   1-0.83178 0.95529-0.43314-0.11043-0.34716 0.27426
   0   7   1  968.16  124.59   1-0.84791 0.72440 0.02712 0.51659 0.52943-0.45647
   0   7   1  799.01  272.65   1 0.19558-0.31906 0.20650 0.33696 0.95869-0.88580
   0   7   256694.70 1501.16   1 0.78255-0.90429 0.33394 0.19542 0.52543-0.37955
   0  -7  -254043.26 1569.82   1-0.86020 0.98189-0.41487-0.11482-0.29652 0.15063
   0   7   253705.49 1307.23   1 0.28829-0.40982 0.10285 0.42666 0.95200-0.80622
   0   7   328305.58 1720.87   1 0.79037-0.91010 0.26775 0.24770 0.55101-0.33219
   0  -7  -330376.84 1724.86   1-0.87272 0.99249-0.40553-0.11021-0.27185 0.05301
   0   7   327686.43 1637.08   1 0.36664-0.48618 0.00867 0.50692 0.93032-0.71179
   0   7   4 3460.03  418.19   1 0.79410-0.91182 0.20247 0.29906 0.57306-0.28131
   0  -7  -4 5455.10  628.87   1-0.87678 0.99463-0.40229-0.09949-0.26345-0.02831
   0   7   4 4273.33  476.76   1 0.42952-0.54708-0.07288 0.57456 0.90011-0.60874
   0   7   5139205.9 2840.23   1 0.79416-0.90987 0.14012 0.34750 0.59133-0.22663
   0  -7  -5158682.3 3351.01   1-0.87557 0.99151-0.40326-0.08456-0.26596-0.09875
   0   7   5140598.4 2913.00   1 0.47838-0.59405-0.14025 0.62810 0.86687-0.50256
   0   7   612208.31  711.70   1 0.79101-0.90509 0.08339 0.39043 0.60608-0.16840
   0  -7  -614299.45 1880.46   1-0.87060 0.98461-0.40717-0.06669-0.27615-0.16151
   0   7   612256.99  723.86   1 0.51511-0.62883-0.19421 0.66815 0.83482-0.39765
   0   7   738943.05  815.30   1 0.78638-0.89854 0.03403 0.42585 0.61679-0.10616
   0  -7  -745028.37 2098.87   1-0.86258 0.97468-0.41316-0.04674-0.29195-0.21865
   0   7   810919.75  340.64   1 0.78126-0.89149-0.00524 0.45121 0.62417-0.04060
   0  -7  -810020.24 1146.17   1-0.85191 0.96208-0.42059-0.02535-0.31199-0.27156
   0   7   810646.93  592.43   1 0.56159-0.67140-0.26742 0.71356 0.78300-0.20011
   0  -7  -968930.57 1913.15   1-0.83892 0.94705-0.42887-0.00285-0.33507-0.32105
   0   7   966208.53 1853.43   1 0.57520-0.68318-0.28972 0.72209 0.76498-0.10883
   0  -7 -1023774.45 2505.40   1-0.82336 0.92957-0.43793 0.02019-0.36095-0.36808
   0   7  1022697.99 1046.18   1 0.58404-0.69008-0.30489 0.72335 0.75228-0.02322
   0  -7 -1115127.41 2499.34   1-0.80537 0.90966-0.44736 0.04360-0.38889-0.41305
   0   7  1116358.33 1078.37   1 0.58917-0.69326-0.31383 0.71838 0.74456 0.05739
   0  -8   717040.34 1075.58   1-0.54469 0.70239-0.81524 0.08101-0.19667 0.70716
   0   8  -713876.11 1911.06   1-0.51620 0.35939 0.74509-0.01047 0.42234-0.93312
   0  -8   6 8006.29  841.23   1-0.58088 0.73661-0.77896 0.05862-0.23621 0.67376
   0   8  -6 6262.92  803.56   1-0.45955 0.30469 0.72385-0.00314 0.51462-0.95244
   0   8  -518877.14  774.68   1-0.39310 0.24003 0.69166 0.01511 0.60586-0.97064
   0   8  -4 2054.96  349.32   1 0.64626-0.79750 0.69656-0.00404 0.31168-0.60330
   0   8  -4 1275.09  258.39   1-0.31705 0.16594 0.64720 0.04566 0.69325-0.98507
   0   8  -361952.03 2163.15   1 0.67450-0.82383 0.65139 0.02719 0.34745-0.56617
   0   8  -361050.73 1991.49   1-0.23152 0.08227 0.58950 0.08940 0.77387-0.99259
   0   8  -2 5442.73  613.14   1 0.69992-0.84734 0.60365 0.06100 0.38171-0.52753
   0   8  -2 4907.31  388.62   1-0.13865-0.00863 0.51901 0.14594 0.84344-0.98925
   0   8  -140288.07 1388.61   1 0.72308-0.86884 0.55396 0.09655 0.41263-0.48557
   0   8  -133714.22 1025.20   1 0.40515-0.55096 0.52088 0.13018 0.75134-0.82430
   0   8  -140660.29 1381.01   1-0.04112-0.10414 0.43718 0.21381 0.89842-0.97130
   0   8   0 1762.67  358.95   1 0.74250-0.88628 0.50224 0.13436 0.44321-0.44321
   0  -8   0 1055.09  202.36   1-0.68882 0.83217-0.48969-0.14751-0.53452 0.53452
   0   8   0  852.20   86.02   1-0.66532 0.52155 0.18483 0.45254 0.72331-0.72331
   0   8   0 1025.57  185.58   1 0.05665-0.19998 0.34739 0.28965 0.93600-0.93600
   0   8   1 2668.73  389.68   1 0.75874-0.90055 0.44931 0.17337 0.47160-0.39866
   0  -8  -1 1902.13  290.54   1-0.77984 0.92128-0.45912-0.16410-0.42548 0.35257
   0   8   1 1236.20  113.40   1-0.79477 0.65325 0.08126 0.54220 0.60143-0.52846
   0   8   1 2144.44  306.37   1 0.15034-0.29173 0.25420 0.36888 0.95539-0.88250
   0   8   2 2732.38  331.08   1 0.77177-0.91160 0.39596 0.21281 0.49756-0.35168
   0  -8  -2 2949.02  384.46   1-0.82141 0.96092-0.43900-0.17024-0.36406 0.21826
   0   8   2 1794.93  249.78   1 0.23571-0.37516 0.16265 0.44650 0.95811-0.81233
   0   8   311598.58  862.90   1 0.78163-0.91949 0.34320 0.25165 0.52082-0.30200
   0  -8  -314247.75 1401.26   1-0.84173 0.97944-0.42718-0.16822-0.33013 0.11130
   0   8   310562.72  658.86   1 0.31030-0.44776 0.07740 0.51780 0.94747-0.72895
   0   8   4 4357.28  437.03   1 0.78805-0.92374 0.29141 0.28973 0.54225-0.25049
   0  -8  -4 5405.23  791.25   1-0.85104 0.98683-0.42117-0.16026-0.31357 0.02179
   0   8   4 4322.19  423.40   1 0.37260-0.50809 0.00117 0.58012 0.92798-0.63662
   0   8   5  380.04  136.17   1 0.79220-0.92588 0.24354 0.32368 0.55955-0.19485
   0  -8  -5 1668.71  293.32   1-0.85355 0.98741-0.41949-0.14799-0.30898-0.05573
   0   8   5  310.35  324.29   1 0.42310-0.55661-0.06429 0.63168 0.90379-0.53959
   0   8   6 6563.32  739.72   1 0.79415-0.92582 0.20067 0.35264 0.57363-0.13599
   0  -8  -6 8354.54  999.05   1-0.85135 0.98330-0.42097-0.13255-0.31300-0.12465
   0   8   6 7492.34  713.89   1 0.46302-0.59466-0.11851 0.67208 0.87838-0.44121
   0   8   7 8618.41  871.85   1 0.79453-0.92420 0.16471 0.37468 0.58444-0.07387
   0  -8  -7 8442.30 1033.00   1-0.84556 0.97559-0.42476-0.11481-0.32341-0.18719
   0   8   7 6683.45  562.98   1 0.49368-0.62337-0.16236 0.70203 0.85434-0.34431
   0   8   812473.95  762.93   1 0.79409-0.92175 0.13782 0.38767 0.59195-0.00844
   0  -8  -812329.02 1088.91   1-0.83692 0.96489-0.43008-0.09527-0.33849-0.24473
   0  -8  -9 1131.10  369.98   1-0.82542 0.95148-0.43678-0.07459-0.35761-0.29852
   0   8   9 1374.04  311.77   1 0.53365-0.65943-0.22266 0.73451 0.81586-0.16011
   0  -8 -1028944.73 2835.74   1-0.81138 0.93551-0.44432-0.05306-0.37976-0.34927
   0   8  1031189.00 1484.82   1 0.54549-0.66931-0.24133 0.73928 0.80262-0.07400
   0  -9   547113.77 2049.88   1-0.60525 0.77701-0.75102-0.03505-0.26387 0.62850
   0   9  -550305.80 2039.17   1-0.39332 0.22234 0.69178 0.09464 0.60558-0.97036
   0   9  -426821.59 1194.58   1 0.63567-0.80486 0.71180 0.06032 0.29876-0.59038
   0   9  -428027.74 1139.27   1-0.32122 0.15219 0.64981 0.12270 0.68887-0.98070
   0   9  -335217.80 1395.08   1 0.66269-0.82997 0.67115 0.08704 0.33224-0.55096
   0   9  -335582.29 1324.01   1-0.24156 0.07438 0.59664 0.16189 0.76528-0.98400
   0   9  -220302.35 2218.37   1 0.68706-0.85243 0.62878 0.11548 0.36410-0.50991
   0   9  -219176.31 1115.87   1-0.15636-0.00884 0.53304 0.21155 0.83151-0.97732
   0   9  -144985.22 2038.76   1 0.70873-0.87219 0.58507 0.14525 0.39419-0.46709
   0   9  -148409.68 1588.63   1-0.06777-0.09542 0.46033 0.27030 0.88515-0.95803
   0   9   091339.30 2863.29   1 0.72835-0.89011 0.54086 0.17531 0.42066-0.42066
   0   9   090371.04 2776.78   1 0.02084-0.18209 0.38116 0.33550 0.92427-0.92427
   0   9   1 2586.84  355.06   1 0.74456-0.90434 0.49611 0.20615 0.44664-0.37370
   0  -9  -1 1377.18  224.87   1-0.71424 0.87359-0.48263-0.22024-0.50686 0.43396
   0   9   1 1701.40  368.75   1 0.10623-0.26554 0.29892 0.40378 0.94834-0.87546
   0   9   245333.85 1625.56   1 0.75805-0.91585 0.45183 0.23652 0.47031-0.32444
   0  -9  -245047.10 1490.53   1-0.77246 0.92989-0.46222-0.22668-0.43548 0.28967
   0   9   246523.28 1563.62   1 0.18545-0.34282 0.21734 0.47144 0.95831-0.81253
   0   9   322769.54 1439.51   1 0.76890-0.92473 0.40891 0.26553 0.49150-0.27268
   0  -9  -321594.89 1548.74   1-0.80289 0.95840-0.44858-0.22633-0.39258 0.17387
   0   9   321721.57  855.42   1 0.25609-0.41152 0.13979 0.53504 0.95648-0.73782
   0   9   4  562.99  211.74   1 0.77729-0.93114 0.36839 0.29213 0.51000-0.21825
   0  -9  -4 2331.90  476.82   1-0.81878 0.97237-0.44043-0.22050-0.36824 0.07662
   0   9   4  444.37  293.39   1 0.31722-0.47063 0.06916 0.59176 0.94582-0.65445
   0   9   511577.22  926.65   1 0.78306-0.93470 0.33054 0.31628 0.52682-0.16213
   0  -9  -513727.37 2295.75   1-0.82591 0.97757-0.43651-0.21044-0.35682-0.00769
   0   9   510697.24  894.75   1 0.36829-0.51972 0.00660 0.64040 0.92968-0.56548
   0   9   6 1087.08  194.89   1 0.78726-0.93689 0.29850 0.33441 0.53954-0.10191
   0  -9  -6  619.84  243.15   1-0.82714 0.97688-0.43581-0.19715-0.35481-0.08260
   0   9   6  720.07  396.32   1 0.41000-0.55947-0.04696 0.68006 0.91087-0.47382
   0   9   7 6647.61  652.11   1 0.78988-0.93751 0.27319 0.34580 0.54903-0.03846
   0  -9  -7 6933.65  897.99   1-0.82401 0.97183-0.43757-0.18141-0.35989-0.15043
   0   9   7 6927.57  671.56   1 0.44332-0.59081-0.09158 0.71076 0.89166-0.38178
   0  -9  -8 5743.00  680.78   1-0.81737 0.96327-0.44118-0.16382-0.37046-0.21276
   0   9   8 4547.87  743.91   1 0.46940-0.61505-0.12749 0.73288 0.87372-0.29083
   0  -9  -9 1686.15  409.20   1-0.80771 0.95168-0.44619-0.14483-0.38536-0.27077
   0   9   9 1073.34  521.33   1 0.48919-0.63289-0.15583 0.74731 0.85813-0.20238
   0  10  -435783.69 3202.40   1 0.62230-0.80944 0.72990 0.12181 0.28279-0.57441
   0  10  -430276.57 2664.91   1-0.33132 0.14439 0.65607 0.19609 0.67807-0.96989
   0  10  -315908.11  961.23   1 0.64842-0.83365 0.69335 0.14444 0.31434-0.53306
   0  10  -314393.34  734.39   1-0.25718 0.07220 0.60757 0.23069 0.75147-0.97034
   0  10  -240039.28 2946.91   1 0.67201-0.85533 0.65568 0.16818 0.34420-0.49002
   0  10  -237692.26 1471.33   1-0.17833-0.00478 0.55006 0.27416 0.81585-0.96166
   0  10  -1 3556.04  562.24   1 0.69307-0.87448 0.61731 0.19262 0.37225-0.44516
   0  10  -1 2940.73  355.36   1-0.09717-0.08397 0.48514 0.32515 0.86901-0.94192
   0  10   040091.21 1576.25   1 0.71161-0.89112 0.57871 0.21728 0.39835-0.39835
   0  10   039756.42 1470.62   1-0.01588-0.16328 0.41473 0.38157 0.90980-0.90980
   0  10   112749.05 1055.63   1 0.72835-0.90610 0.54088 0.24096 0.42065-0.34771
   0  10   110351.31  732.83   1 0.06278-0.24001 0.34150 0.44083 0.93777-0.86490
   0  10   239666.67 1468.58   1 0.74199-0.91776 0.50374 0.26418 0.44236-0.29648
   0 -10  -238569.99 1331.45   1-0.71116 0.88651-0.48354-0.28500-0.51031 0.36451
   0  10   241358.77 1509.29   1 0.13665-0.31194 0.26828 0.50012 0.95359-0.80781
   0  10   3 7514.31 1071.16   1 0.75327-0.92707 0.46844 0.28557 0.46166-0.24284
   0 -10  -3 5428.75  907.84   1-0.75441 0.92783-0.46926-0.28530-0.45896 0.24025
   0  10   3 7026.13  567.25   1 0.20371-0.37705 0.19773 0.55673 0.95885-0.74018
   0  10   415883.09 1511.07   1 0.76232-0.93415 0.43590 0.30419 0.47837-0.18661
   0 -10  -414783.42 1483.50   1-0.77860 0.95010-0.45965-0.28092-0.42719 0.13557
   0  10   412360.85  900.97   1 0.26291-0.43431 0.13205 0.60847 0.95573-0.66417
   0  10   526855.83 1360.16   1 0.76929-0.93913 0.40722 0.31896 0.49229-0.12760
   0 -10  -530503.80 2722.58   1-0.79150 0.96108-0.45397-0.27263-0.40918 0.04466
   0  10   526532.09 1391.59   1 0.31398-0.48333 0.07303 0.65359 0.94661-0.58241
   0  10   6 1331.25  285.88   1 0.77432-0.94219 0.38369 0.32857 0.50318-0.06554
   0 -10  -6 2313.34  426.81   1-0.79695 0.96461-0.45144-0.26118-0.40132-0.03609
   0  10   6 1243.20  492.99   1 0.35671-0.52409 0.02106 0.69165 0.93397-0.49692
   0 -10  -7 8058.16 1061.40   1-0.79705 0.96278-0.45139-0.24724-0.40119-0.10913
   0  10   7 9058.54  591.19   1 0.39184-0.55725-0.02334 0.72214 0.91973-0.40984
   0 -10  -820646.75 1758.55   1-0.79297 0.95678-0.45329-0.23136-0.40708-0.17615
   0  10   823058.35 1412.33   1 0.42011-0.58354-0.06031 0.74519 0.90546-0.32273
   0  11  -118008.78 1977.24   1 0.67530-0.87466 0.65000 0.23952 0.34850-0.42140
   0  11  -118726.84 1082.43   1-0.12873-0.07033 0.51104 0.37888 0.84985-0.92276
   0  11   0 1315.40  262.09   1 0.69351-0.89096 0.61645 0.25914 0.37285-0.37285
   0  11   0 1675.71  383.78   1-0.05359-0.14349 0.44808 0.42785 0.89238-0.89238
   0  11   113257.64 1269.30   1 0.70937-0.90492 0.58366 0.27801 0.39512-0.32221
   0  11   114619.75  788.10   1 0.01944-0.21459 0.38245 0.47951 0.92376-0.85088
   0  11   224003.00 1943.65   1 0.72359-0.91734 0.55272 0.29478 0.41340-0.26752
   0  11   224242.75 1128.81   1 0.08860-0.28180 0.31639 0.53162 0.94448-0.79872
   0  11   324603.53 2688.30   1 0.73496-0.92673 0.52352 0.31006 0.43098-0.21217
   0  11   322817.02 1042.47   1 0.15241-0.34367 0.25205 0.58203 0.95563-0.73696
   0  11   419344.58  957.83   1 0.74416-0.93396 0.49730 0.32237 0.44597-0.15422
   0 -11  -414859.07 1703.19   1-0.72906 0.91848-0.47804-0.34219-0.48983 0.19822
   0  11   419580.28  992.15   1 0.20967-0.39898 0.19127 0.62888 0.95888-0.66732
   0  11   524436.66 1396.38   1 0.75127-0.93909 0.47506 0.33069 0.45813-0.09344
   0 -11  -524870.22 1394.52   1-0.74926 0.93676-0.47115-0.33510-0.46542 0.10090
   0  11   528197.37 1622.27   1 0.25991-0.44728 0.13546 0.67074 0.95608-0.59163
  -1  11   4 3582.18  710.05   1 0.69333-0.97580 0.61679 0.20309 0.37261-0.08099
  -1  11   4 3288.48  503.49   1 0.17376-0.45581 0.22973 0.59042 0.95761-0.66605
  -1  11   312111.75 1711.15   1 0.68483-0.96921 0.63293 0.20088 0.36110-0.14239
  -1  11   311356.66 1302.28   1 0.11968-0.40367 0.28552 0.54857 0.95086-0.73219
  -1  11   2  812.98  304.11   1 0.67375-0.96004 0.65268 0.19506 0.34648-0.20067
  -1  11   2  273.55  281.65   1 0.06021-0.34614 0.34398 0.50403 0.93704-0.79128
  -1  11   110601.23 1234.57   1 0.66024-0.94843 0.67509 0.18658 0.32913-0.25622
  -1  11   1 9923.81 1111.76   1-0.00356-0.28431 0.40359 0.45838 0.91493-0.84205
  -1  11   0 3809.67  554.23   1 0.64436-0.93447 0.69935 0.17625 0.30935-0.30935
  -1  11   0 3652.13  491.32   1-0.07043-0.21938 0.46261 0.41332 0.88375-0.88375
   1 -10  -7 1169.44  283.81   1-0.71758 0.97614-0.48163-0.21700-0.50309-0.00723
  -1  10   7 1158.31  544.21   1 0.35008-0.60822 0.02926 0.66952 0.93626-0.42637
   1 -10  -620308.62 1488.97   1-0.71017 0.97065-0.48383-0.22879-0.51142 0.07399
  -1  10   620196.69  853.79   1 0.31462-0.57474 0.07226 0.64044 0.94646-0.50941
  -1  10   510682.08 1358.03   1 0.72192-0.98446 0.55677 0.16941 0.41089-0.04619
   1 -10  -5 9835.84 1242.74   1-0.69485 0.95726-0.48810-0.23849-0.52813 0.16361
  -1  10   513716.92  943.08   1 0.27221-0.53439 0.12143 0.60515 0.95454-0.59009
  -1  10   432085.99 1441.65   1 0.71481-0.97933 0.57149 0.16879 0.40302-0.11140
   1 -10  -433285.22 1328.24   1-0.66806 0.93267-0.49493-0.24604-0.55563 0.26375
  -1  10   432606.50 1337.70   1 0.22289-0.48702 0.17681 0.56370 0.95867-0.66711
  -1  10   3  914.97  242.13   1 0.70545-0.97188 0.59212 0.16209 0.38951-0.17079
   1 -10  -3  600.52  146.24   1-0.62459 0.89113-0.50373-0.25119-0.59676 0.37785
  -1  10   3  981.98  424.87   1 0.16664-0.43271 0.23722 0.51724 0.95705-0.73838
  -1  10   2 8038.87 1114.23   1 0.69360-0.96193 0.61627 0.15187 0.37298-0.22717
  -1  10   2 7586.16  782.95   1 0.10394-0.37195 0.30121 0.46717 0.94787-0.80212
  -1  10   1 2754.30  553.59   1 0.67934-0.94958 0.64288 0.13918 0.35381-0.28090
  -1  10   1 1824.91  410.03   1 0.03601-0.30597 0.36698 0.41536 0.92953-0.85665
  -1  10   0  452.89  302.04   1 0.66272-0.93487 0.67111 0.12489 0.33227-0.33227
  -1  10   0  359.49  366.40   1-0.03568-0.23621 0.43239 0.36391 0.90098-0.90098
  -1  10  -1 4695.20  776.68   1 0.64376-0.91782 0.70023 0.10970 0.30861-0.38152
  -1  10  -1 4582.46  672.95   1-0.10940-0.16447 0.49527 0.31501 0.86181-0.93472
  -1  10  -2 1745.01  482.83   1 0.62249-0.89846 0.72966 0.09420 0.28300-0.42882
  -1  10  -2  428.80  268.09   1-0.18301-0.09283 0.55364 0.27059 0.81239-0.95820
   1 -10   3  433.15  384.23   1-0.59818 0.87672-0.75944-0.07848-0.25575 0.47453
  -1  10  -3 1426.00  454.88   1-0.25491-0.02281 0.60599 0.23226 0.75351-0.97238
   1  -9  -9 2726.12  476.48   1-0.74004 0.97683-0.47439-0.11663-0.47674-0.17939
  -1   9   9 1981.53  449.15   1 0.44879-0.68522-0.09877 0.69025 0.88815-0.23240
   1  -9  -849362.81 2536.59   1-0.74590 0.98462-0.47235-0.13266-0.46958-0.11364
   1  -9  -720504.88 1788.98   1-0.74753 0.98817-0.47177-0.14722-0.46756-0.04276
  -1   9   722085.36 1047.18   1 0.39952-0.63974-0.03328 0.65245 0.91611-0.40622
  -1   9   647904.52 1676.39   1 0.74693-0.98952 0.48889 0.14380 0.45064-0.01300
   1  -9  -648854.60 1815.29   1-0.74395 0.98652-0.47303-0.15993-0.47197 0.03455
  -1   9   648844.91 1819.91   1 0.36502-0.60721 0.01070 0.62238 0.93093-0.49389
  -1   9   513209.13 1412.77   1 0.74207-0.98664 0.50349 0.14311 0.44250-0.07781
   1  -9  -512414.48 1855.93   1-0.73355 0.97804-0.47657-0.17037-0.48452 0.12000
  -1   9   513398.39  831.83   1 0.32291-0.56707 0.06234 0.58465 0.94437-0.58016
  -1   9   452668.03 1656.30   1 0.73448-0.98102 0.52482 0.13570 0.43022-0.13847
   1  -9  -445038.55 2547.35   1-0.71361 0.96001-0.48282-0.17811-0.50757 0.21596
  -1   9   441045.42 1355.30   1 0.27253-0.51874 0.12106 0.53982 0.95449-0.66293
  -1   9   398084.38 3022.32   1 0.72433-0.97285 0.55091 0.12352 0.41452-0.19570
   1  -9  -396503.36 2927.09   1-0.67905 0.92764-0.49232-0.18292-0.54451 0.32560
  -1   9   397100.50 2999.88   1 0.21406-0.46221 0.18649 0.48834 0.95885-0.74018
  -1   9   2 8292.24  872.81   1 0.71120-0.96159 0.57962 0.10891 0.39776-0.25194
   1  -9  -2 7204.95  617.73   1-0.62115 0.87166-0.50433-0.18486-0.59984 0.45390
  -1   9   2 7156.01  434.88   1 0.14786-0.39796 0.25676 0.43201 0.95509-0.80931
  -1   9   163069.77 2476.61   1 0.69614-0.94843 0.61127 0.09120 0.37647-0.30356
   1  -9  -161494.89 1854.68   1-0.51978 0.77221-0.51667-0.18647-0.68034 0.60737
  -1   9   161499.06 1955.03   1 0.07504-0.32708 0.32965 0.37306 0.94111-0.86823
  -1   9   0 5411.74  679.91   1 0.67865-0.93286 0.64411 0.07229 0.35290-0.35290
  -1   9   0 5175.23  530.28   1-0.00236-0.25161 0.40250 0.31417 0.91541-0.91541
  -1   9  -115074.93  947.85   1 0.65878-0.91489 0.67740 0.05292 0.32729-0.40019
  -1   9  -117465.27 1030.89   1-0.08219-0.17376 0.47255 0.25810 0.87745-0.95036
  -1   9  -2 5768.60  596.17   1 0.63655-0.89457 0.71056 0.03370 0.29983-0.44564
  -1   9  -2 7121.51  650.14   1-0.16180-0.09613 0.53729 0.20730 0.82772-0.97354
   1  -9   3 1831.67  375.38   1-0.61126 0.87181-0.74364-0.01466-0.27083 0.48961
  -1   9  -3 1898.26  350.49   1-0.23892-0.02097 0.59478 0.16375 0.76755-0.98627
  -1   9  -4  330.87  255.73   1-0.31190 0.05012 0.64394 0.12857 0.69860-0.99043
   1  -9   5 4176.50  629.15   1-0.55515 0.81963-0.80533 0.01925-0.20793 0.57256
  -1   9  -5 2247.11  468.25   1-0.37906 0.11533 0.68400 0.10242 0.62325-0.98803
   1  -8 -10 8705.06 1623.47   1-0.74781 0.96477-0.47166-0.02572-0.46722-0.26182
  -1   8  1011219.06 1323.75   1 0.50734-0.72390-0.18254 0.68049 0.84218-0.11357
   1  -8  -9 7643.83 1500.87   1-0.75924 0.97812-0.46744-0.04392-0.45280-0.20332
  -1   8   9 7894.23  684.81   1 0.49327-0.71178-0.16177 0.67363 0.85469-0.19893
   1  -8  -8 9159.55 1051.72   1-0.76733 0.98813-0.46429-0.06106-0.44229-0.14093
  -1   8   8 7391.25  701.31   1 0.47394-0.69440-0.13392 0.65968 0.87030-0.28741
  -1   8   7 9715.33  634.01   1 0.76874-0.99137 0.40963 0.12957 0.49115 0.01941
   1  -8  -711771.91 1187.25   1-0.77160 0.99432-0.46257-0.07676-0.43664-0.07368
  -1   8   710497.76  727.21   1 0.44836-0.67078-0.09818 0.63785 0.88843-0.37840
  -1   8   660737.03 1885.33   1 0.76569-0.99030 0.42252 0.13059 0.48496-0.04732
   1  -8  -667812.26 2422.06   1-0.77124 0.99588-0.46272-0.09060-0.43711-0.00030
  -1   8   576554.49 2444.85   1 0.75992-0.98651 0.44500 0.12202 0.47380-0.10910
   1  -8  -582859.03 2714.17   1-0.76491 0.99148-0.46525-0.10204-0.44547 0.08095
  -1   8   580161.64 2605.78   1 0.37395-0.60019-0.00052 0.56791 0.92744-0.56324
  -1   8   4 4918.36  636.65   1 0.75158-0.98015 0.47404 0.10690 0.45868-0.16692
   1  -8  -4 4655.34  526.91   1-0.75029 0.97878-0.47077-0.11051-0.46413 0.17251
  -1   8   4 3908.24  352.99   1 0.32317-0.55139 0.06203 0.51926 0.94430-0.65294
  -1   8   3112896.0 3681.33   1 0.74070-0.97125 0.50747 0.08739 0.44025-0.22143
   1  -8  -3114214.6 3525.33   1-0.72324 0.95365-0.47989-0.11537-0.49660 0.27789
  -1   8   3116351.5 3620.08   1 0.26239-0.49262 0.13265 0.46255 0.95580-0.73713
  -1   8   242395.70 1632.25   1 0.72725-0.95977 0.54365 0.06513 0.41897-0.27309
   1  -8  -242389.78 1355.39   1-0.67562 0.90817-0.49316-0.11636-0.54801 0.40208
  -1   8   242222.94 1459.65   1 0.19220-0.42438 0.21012 0.39902 0.95859-0.81281
  -1   8   130867.88 1128.03   1 0.71072-0.94506 0.58070 0.04216 0.39705-0.32415
   1  -8  -128599.77  924.80   1-0.59088 0.82536-0.50907-0.11440-0.62585 0.55288
  -1   8   131343.15 1135.28   1 0.11380-0.34792 0.29145 0.33164 0.94979-0.87690
  -1   8   090451.49 2940.64   1 0.69219-0.92844 0.61902 0.01777 0.37105-0.37105
  -1   8   089584.40 2718.54   1 0.42666-0.66326 0.52094 0.11618 0.73930-0.73930
  -1   8   088409.92 2788.78   1 0.02942-0.26549 0.37316 0.26388 0.92729-0.92729
  -1   8  -1 7299.55  782.54   1 0.67116-0.90933 0.65711-0.00638 0.34311-0.41602
  -1   8  -1 6345.52  490.69   1-0.05771-0.18029 0.45165 0.19934 0.89032-0.96319
  -1   8  -235524.53 1329.30   1 0.64771-0.88778 0.69440-0.02973 0.31347-0.45929
  -1   8  -234462.94 1239.06   1-0.14453-0.09547 0.52370 0.14125 0.83954-0.98535
  -1   8  -311521.51  868.84   1 0.62189-0.86387 0.73044-0.05184 0.28230-0.50102
  -1   8  -311436.52  843.19   1-0.22788-0.01410 0.58688 0.09201 0.77693-0.99565
  -1   8  -454884.22 1514.49   1-0.30580 0.06193 0.64004 0.05281 0.70485-0.99668
   1  -8   5 2091.83  324.23   1-0.56253 0.80902-0.79806 0.09161-0.21596 0.58058
  -1   8  -5 2411.19  349.35   1-0.37651 0.13069 0.68258 0.02418 0.62634-0.99112
   1  -8   612838.13  691.42   1-0.52985 0.77831-0.82856 0.10822-0.18092 0.61847
  -1   8  -611356.58 1200.95   1-0.43975 0.19217 0.71497 0.00573 0.54353-0.98134
   1  -7 -11 5518.00 1164.04   1-0.74422 0.94133-0.47294 0.06917-0.47165-0.33029
  -1   7  11 6423.58  744.70   1 0.55442-0.75110-0.25569 0.66011 0.79198 0.00949
   1  -7 -10 2069.62  546.84   1-0.76037 0.95940-0.46701 0.04927-0.45136-0.27768
  -1   7  10 1907.89  642.45   1 0.54713-0.74577-0.24396 0.66228 0.80070-0.07208
   1  -7  -912751.97 1423.09   1-0.77358 0.97454-0.46175 0.03003-0.43397-0.22215
  -1   7   913487.91  970.45   1 0.53565-0.73624-0.22579 0.65802 0.81368-0.15793
   1  -7  -8  316.85  247.08   1-0.78367 0.98655-0.45747 0.01176-0.42020-0.16302
  -1   7   8  338.34  378.85   1 0.51906-0.72160-0.20019 0.64633 0.83095-0.24806
  -1   7   716500.11  924.04   1 0.78501-0.98944 0.31659 0.14321 0.53246-0.02189
   1  -7  -718593.95 2047.12   1-0.79023 0.99504-0.45455-0.00513-0.41098-0.09934
  -1   7   717195.58 1120.94   1 0.49618-0.70068-0.16603 0.62607 0.85219-0.34215
  -1   7   6 5391.99  738.63   1 0.78148-0.98812 0.34413 0.12941 0.52043-0.08279
   1  -7  -6 7873.14  794.82   1-0.79262 0.99935-0.45345-0.02021-0.40757-0.02984
  -1   7   6 6119.76  462.32   1 0.46560-0.67205-0.12213 0.59608 0.87652-0.43935
  -1   7   543155.77  898.34   1 0.77538-0.98400 0.37839 0.10906 0.50556-0.14087
   1  -7  -547716.52 1054.82   1-0.78969 0.99834-0.45479-0.03285-0.41175 0.04723
  -1   7   417030.29 1338.76   1 0.76666-0.97726 0.41848 0.08288 0.48691-0.19516
   1  -7  -415823.86 1367.88   1-0.77945 0.99002-0.45929-0.04233-0.42603 0.13441
  -1   7   414238.04  878.98   1 0.37490-0.58520-0.00173 0.50341 0.92706-0.63569
  -1   7   318752.22 1052.83   1 0.75517-0.96774 0.46199 0.05329 0.46505-0.24623
   1  -7  -318402.11 1029.30   1-0.75823 0.97072-0.46783-0.04778-0.45410 0.23539
  -1   7   318144.63 1035.08   1 0.31231-0.52458 0.07501 0.44058 0.94701-0.72848
  -1   7   2116462.6 2793.34   1 0.74082-0.95537 0.50713 0.02207 0.44044-0.29457
   1  -7  -2123797.5 2748.80   1-0.71890 0.93331-0.48123-0.04836-0.50158 0.35578
  -1   7   2125817.4 2858.59   1 0.23758-0.45184 0.16057 0.36895 0.95800-0.81222
  -1   7   1 8990.21  961.37   1 0.72365-0.94017 0.55258-0.00946 0.41349-0.34055
   1  -7  -1 8476.63  659.44   1-0.64600 0.86252-0.49969-0.04410-0.57704 0.50408
  -1   7   1 5686.92  363.02   1-0.93442 0.71794-0.09795 0.64184 0.34241-0.26941
  -1   7   1 7598.10  599.29   1 0.15239-0.36859 0.25208 0.29138 0.95563-0.88274
  -1   7   0240219.3 4834.45   1 0.70320-0.92150 0.59686-0.03966 0.38632-0.38632
  -1   7   0212296.9 4147.26   1-0.89193 0.67369-0.02753 0.58517 0.45132-0.45132
  -1   7   0239678.6 4778.07   1 0.05948-0.27763 0.34467 0.21273 0.93683-0.93683
  -1   7  -162609.91 1456.80   1 0.68067-0.90088 0.64050-0.06937 0.35556-0.42847
  -1   7  -157954.14 1149.13   1-0.72932 0.50899 0.13739 0.43426 0.67022-0.74318
  -1   7  -158002.21 1149.51   1 0.14468-0.36518 0.49789 0.07364 0.85508-0.92801
  -1   7  -162630.21 1398.82   1-0.03682-0.18327 0.43339 0.13798 0.90045-0.97332
  -1   7  -2117527.7 1935.02   1 0.65563-0.87775 0.68235-0.09729 0.32332-0.46913
  -1   7  -2116274.9 1816.07   1-0.13228-0.08981 0.51391 0.07141 0.84758-0.99339
  -1   7  -365571.28 2178.08   1 0.62819-0.85222 0.72208-0.12308 0.28977-0.50849
  -1   7  -364426.96 2077.06   1-0.22282-0.00125 0.58322 0.01604 0.78115-0.99987
   1  -7   452528.14 1841.99   1-0.59766 0.82419-0.76006 0.14712-0.25515 0.54686
  -1   7  -450508.50 1707.08   1-0.30606 0.08010 0.64021-0.02699 0.70459-0.99642
   1  -7   549496.03 1698.77   1-0.56565 0.79415-0.79492 0.16809-0.21937 0.58400
  -1   7  -558424.50 1787.56   1-0.38019 0.15227 0.68462-0.05750 0.62188-0.98666
   1  -7   638462.24 1510.50   1-0.53150 0.76196-0.82713 0.18641-0.18265 0.62020
  -1   7  -635151.78 1302.16   1-0.44523 0.21554 0.71750-0.07645 0.53568-0.97349
   1  -7   738515.32 1240.60   1-0.49522 0.72765-0.85656 0.20196-0.14505 0.65553
  -1   7  -734857.21 2331.82   1-0.50112 0.26947 0.74011-0.08515 0.44845-0.95923
   1  -7   8 8329.05 1032.93   1-0.45683 0.69123-0.88313 0.21464-0.10661 0.69001
  -1   7  -8 7393.93 1150.44   1-0.54870 0.31510 0.75382-0.08496 0.36149-0.94524
   1  -6 -11  929.80  320.72   1-0.75045 0.92965-0.47071 0.14660-0.46393-0.33801
  -1   6  11    1.08  416.99   1 0.58886-0.76776-0.31329 0.63819 0.74504 0.05691
   1  -6 -1010774.90 1744.61   1-0.76823 0.94934-0.46393 0.12584-0.44111-0.28792
  -1   6  1012204.28  775.31   1 0.58406-0.76490-0.30491 0.64372 0.75226-0.02320
   1  -6  -9  710.84  259.01   1-0.78314 0.96618-0.45770 0.10562-0.42093-0.23520
  -1   6   9  633.40  420.87   1 0.57546-0.75824-0.29016 0.64288 0.76462-0.10847
  -1   6   820192.97  327.53   1 0.79452-0.97898 0.16238 0.20391 0.58511-0.00160
   1  -6  -823190.61 1372.46   1-0.79506 0.98002-0.45232 0.08626-0.40406-0.17916
  -1   6   821363.47  948.78   1 0.56199-0.74662-0.26809 0.63460 0.78248-0.19959
  -1   6   7  766.37  154.56   1 0.79426-0.98073 0.19586 0.18434 0.57513-0.06455
   1  -6  -7 1107.02  242.07   1-0.80367 0.99056-0.44820 0.06816-0.39142-0.11890
  -1   6   7 1412.20  388.72   1 0.54255-0.72912-0.23665 0.61707 0.80599-0.29596
  -1   6   6  293.50   82.59   1 0.79229-0.98077 0.24212 0.15199 0.56003-0.12240
   1  -6  -6  319.88   99.61   1 0.24168-0.05324-0.86269 0.46849 0.44423-0.88186
   1  -6  -6  526.26  198.13   1-0.80843 0.99724-0.44583 0.05181-0.38427-0.05315
  -1   6   6  -37.25  295.56   1 0.51527-0.70380-0.19445 0.58877 0.83467-0.39750
  -1   6   5 5221.85  550.41   1 0.78754-0.97803 0.29602 0.11201 0.54049-0.17580
   1  -6  -5 4633.35  304.38   1 0.44169-0.25125-0.70317 0.29497 0.55718-0.92187
   1  -6  -5 8596.00 1047.32   1-0.80835 0.99908-0.44587 0.03787-0.38439 0.01987
  -1   6   5 5966.40  498.60   1 0.47801-0.66849-0.13972 0.54794 0.86716-0.50285
  -1   6   4 4702.52  583.21   1 0.77967-0.97229 0.35506 0.06673 0.51579-0.22403
   1  -6  -4 3287.83  201.71   1 0.59025-0.39774-0.51574 0.09366 0.62096-0.91270
   1  -6  -4 5289.77  535.28   1-0.80168 0.99433-0.44917 0.02719-0.39439 0.10277
  -1   6   4 4585.55  356.16   1 0.42828-0.62065-0.07122 0.49328 0.90083-0.60946
  -1   6   3 1535.01  196.86   1 0.76785-0.96245 0.41345 0.02226 0.48933-0.27052
   1  -6  -3  961.38  191.21   1-0.78510 0.97967-0.45684 0.02088-0.41821 0.19950
  -1   6   3  523.86  174.38   1 0.36424-0.55858 0.01168 0.42429 0.93123-0.71270
  -1   6   211834.97  546.06   1 0.75248-0.94905 0.47110-0.02147 0.46025-0.31437
   1  -6  -211973.84  591.03   1-0.75197 0.94846-0.47016 0.02022-0.46204 0.31623
  -1   6   210822.03  540.71   1 0.28472-0.48107 0.10699 0.34289 0.95261-0.80683
  -1   6   113748.50  934.06   1 0.73374-0.93229 0.52680-0.06326 0.42905-0.35611
   1  -6  -1 8657.85  442.10   1-0.68760 0.88602-0.49000 0.02607-0.53580 0.46289
  -1   6   1 7495.52  367.57   1-0.95932 0.76078-0.16591 0.63011 0.22841-0.15542
  -1   6   1 8198.18  445.33   1 0.19124-0.38953 0.21115 0.25268 0.95856-0.88567
  -1   6   015509.34  792.80   1 0.71138-0.91173 0.57924-0.10164 0.39801-0.39801
   1  -6   016320.84  743.34   1-0.55434 0.75484-0.51355 0.03548-0.65494 0.65494
  -1   6   014351.91  660.10   1-0.94163 0.74118-0.11367 0.59181 0.31685-0.31685
  -1   6   014562.25  738.10   1 0.08746-0.28770 0.31750 0.16027 0.94421-0.94421
  -1   6  -162570.23 1418.08   1 0.68677-0.88903 0.62933-0.13780 0.36370-0.43661
  -1   6  -160768.37 1073.25   1-0.85667 0.65438 0.01713 0.47477 0.51557-0.58853
  -1   6  -160362.39 1066.51   1 0.22579-0.42832 0.50916-0.01728 0.83052-0.90345
  -1   6  -162392.54 1241.06   1-0.02054-0.18163 0.41892 0.07282 0.90778-0.98066
  -1   6  -214144.25  897.79   1 0.65959-0.86376 0.67613-0.17066 0.32830-0.47411
  -1   6  -215945.30  995.52   1-0.12666-0.07751 0.50937-0.00368 0.85117-0.99698
  -1   6  -3337025.915099.87   1 0.63004-0.83612 0.71957-0.20017 0.29199-0.51071
  -1   6  -3330500.4 6527.41   1-0.22548 0.01932 0.58515-0.06551 0.77894-0.99766
   1  -6   4 1676.12  457.56   1-0.59747 0.80601-0.76027 0.22696-0.25494 0.54664
  -1   6  -4 1406.18  240.66   1-0.31421 0.10617 0.64541-0.11185 0.69621-0.98803
   1  -6   5159368.4 2889.59   1-0.56356 0.77407-0.79703 0.24983-0.21708 0.58171
  -1   6  -5148762.8 2571.35   1-0.39127 0.18127 0.69067-0.14321 0.60816-0.97294
   1  -6   623976.79 1045.89   1-0.52765 0.74012-0.83047 0.26938-0.17860 0.61615
  -1   6  -622194.46 1492.80   1-0.45726 0.24546 0.72286-0.16147 0.51804-0.95586
   1  -6   715310.87  972.84   1-0.48977 0.70421-0.86061 0.28563-0.13951 0.64999
  -1   6  -713731.10 1311.46   1-0.51274 0.29899 0.74399-0.16870 0.42844-0.93922
   1  -6   832280.29 1401.83   1-0.44956 0.66586-0.88761 0.29901-0.10018 0.68353
  -1   6  -827517.91 2493.09   1-0.55901 0.34309 0.75597-0.16662 0.34059-0.92440
   1  -6   912028.85 1399.49   1-0.40773 0.62599-0.91113 0.30863-0.05988 0.71615
  -1   6  -9 7679.91 1418.33   1-0.59748 0.37963 0.76027-0.15703 0.25492-0.91171
   1  -5 -1221240.54 3042.00   1-0.72953 0.88888-0.47789 0.24741-0.48928-0.38556
  -1   5  1227721.16 2508.04   1 0.61940-0.77844-0.36936 0.60071 0.69275 0.18211
   1  -5 -1117781.96 2183.80   1-0.75177 0.91304-0.47023 0.22577-0.46229-0.33965
  -1   5  1120479.96 1383.29   1 0.61970-0.78068-0.36994 0.61520 0.69217 0.10978
  -1   5  1034948.05 1135.89   1 0.61735-0.78027-0.36542 0.62459 0.69665 0.03239
   1  -5  -983870.56 3776.30   1-0.78777 0.95289-0.45565 0.18323-0.41446-0.24167
  -1   5   970827.29 2382.03   1 0.61176-0.77662-0.35483 0.62790 0.70699-0.05084
  -1   5   8 1036.21   99.83   1 0.77437-0.94138-0.04729 0.33399 0.63095-0.04737
   1  -5  -8 2051.30  334.02   1-0.80143 0.96847-0.44929 0.16289-0.39476-0.18847
  -1   5   8  525.41  387.60   1 0.60201-0.76882-0.33680 0.62378 0.72397-0.14072
  -1   5   7155407.3 3056.76   1 0.78471-0.95364 0.02009 0.28053 0.61953-0.10890
   1  -5  -7159562.2 3124.72   1-0.17545 0.34417-0.97388 0.67307 0.14409-0.65460
   1  -5  -7180866.2 3834.41   1-0.81190 0.98086-0.44406 0.14367-0.37897-0.13135
  -1   5   7171793.4 3551.18   1 0.58673-0.75547-0.30955 0.61044 0.74827-0.23793
  -1   5   6 1135.33  203.98   1 0.79248-0.96299 0.10057 0.21394 0.60154-0.16391
   1  -5  -6  390.33   61.44   1 0.08513 0.08558-0.93612 0.62140 0.34119-0.77880
   1  -5  -6 2019.43  314.48   1-0.81872 0.98960-0.44046 0.12610-0.36834-0.06907
  -1   5   6 1758.09  386.62   1 0.56375-0.73436-0.27098 0.58568 0.78022-0.34305
  -1   5   592310.19 1660.14   1 0.79441-0.96693 0.18798 0.14045 0.57755-0.21285
   1  -5  -590345.32 1599.19   1 0.34373-0.17119-0.79181 0.46322 0.50485-0.86955
   1  -5  -5110392.8 2127.65   1-0.82102 0.99383-0.43922 0.11087-0.36469 0.00017
  -1   5   597391.82 1857.78   1 0.53060-0.70317-0.21792 0.54652 0.81912-0.45481
  -1   5   434614.00 1380.29   1 0.78968-0.96421 0.27532 0.06702 0.54825-0.25650
   1  -5  -432693.57 1286.26   1 0.54901-0.37441-0.57601 0.23353 0.60563-0.89736
   1  -5  -439564.11 1645.32   1-0.81721 0.99194-0.44127 0.09894-0.37072 0.07911
  -1   5   435517.74 1462.43   1 0.48370-0.65821-0.14788 0.49038 0.86265-0.57120
  -1   5   3 1433.33  191.48   1 0.77886-0.95549 0.35967-0.00353 0.51380-0.29499
   1  -5  -3 1269.71  124.86   1 0.68136-0.50486-0.34723-0.00919 0.64434-0.86314
   1  -5  -3 2561.26  411.73   1-0.80417 0.98082-0.44795 0.09164-0.39068 0.17197
  -1   5   3 1660.18  255.60   1 0.41922-0.59565-0.05914 0.41549 0.90595-0.68742
  -1   5   266422.39 2292.63   1 0.76223-0.94083 0.43625-0.06620 0.47820-0.33232
   1  -5  -266497.13 2265.07   1 0.75210-0.57353-0.14734-0.22293 0.64236-0.78825
   1  -5  -266017.14 2347.38   1-0.77545 0.95403-0.46098 0.09068-0.43146 0.28565
  -1   5   261907.92 2140.08   1-0.96610 0.78749-0.24295 0.61352 0.08722 0.05871
  -1   5   1  715.96  147.45   1 0.74115-0.92173 0.50616-0.12220 0.44099-0.36805
   1  -5  -1  912.54  121.00   1 0.78319-0.60270 0.00846-0.39266 0.62171-0.69466
   1  -5  -1  868.71  128.43   1-0.71614 0.89664-0.48207 0.09779-0.50472 0.43181
  -1   5   1  761.73  118.84   1-0.96666 0.78611-0.23263 0.61714 0.10699-0.03402
  -1   5   1  895.77  288.93   1 0.23093-0.41130 0.16795 0.21625 0.95836-0.88547
  -1   5   0 9525.23  845.35   1 0.71594-0.89834 0.56890-0.17090 0.40467-0.40467
   1  -5   0 6268.11  266.37   1-0.58639 0.76893-0.50969 0.11130-0.62956 0.62956
  -1   5   0 5914.49  257.54   1-0.96548 0.78297-0.20120 0.59965 0.16539-0.16539
  -1   5   0 5517.58  302.00   1 0.11272-0.29504 0.29243 0.10571 0.94961-0.94961
  -1   5  -1  360.53  141.06   1 0.68834-0.87265 0.62638-0.21444 0.36582-0.43873
  -1   5  -1  156.69   39.08   1-0.93945 0.75503-0.10871 0.52110 0.32496-0.39795
  -1   5  -1  268.62  103.08   1 0.25169-0.43631 0.51201-0.09985 0.82127-0.89423
  -1   5  -1  188.90  188.50   1-0.01078-0.17347 0.41014 0.00197 0.91195-0.98483
  -1   5  -262809.12 1434.93   1 0.65824-0.84446 0.67826-0.25240 0.32660-0.47241
  -1   5  -261823.49 1338.50   1-0.13025-0.05601 0.51227-0.08621 0.84888-0.99470
  -1   5  -341674.99  998.77   1 0.62595-0.81408 0.72507-0.28528 0.28712-0.50583
  -1   5  -337661.72  817.23   1-0.23840 0.05016 0.59440-0.15440 0.76801-0.98673
   1  -5   4 1880.79  332.88   1-0.59086 0.78141-0.76788 0.31420-0.24743 0.53913
  -1   5  -4  482.91  146.14   1-0.33229 0.14215 0.65666-0.20276 0.67702-0.96885
   1  -5   5 3135.98  386.50   1-0.55471 0.74722-0.80576 0.33819-0.20745 0.57208
  -1   5  -5 3097.60  324.06   1-0.41110 0.21901 0.70108-0.23326 0.58264-0.94742
   1  -5   640911.71 1476.66   1-0.51680 0.71128-0.83960 0.35814-0.16726 0.60481
  -1   5  -642078.67 2726.03   1-0.47658 0.28268 0.73093-0.24920 0.48846-0.92627
   1  -5   7 2304.29  422.84   1-0.47718 0.67362-0.86960 0.37425-0.12682 0.63730
  -1   5  -7  792.80  200.72   1-0.53022 0.33437 0.74921-0.25358 0.39690-0.90768
   1  -5   824614.80 1016.75   1-0.43542 0.63373-0.89606 0.38704-0.08641 0.66975
  -1   5  -823483.89 1697.90   1-0.57404 0.37606 0.75837-0.24872 0.30877-0.89258
   1  -5   913273.93  654.08   1-0.39228 0.59255-0.91872 0.39579-0.04531 0.70158
  -1   5  -910658.69 1414.72   1-0.60982 0.40991 0.76019-0.23664 0.22410-0.88088
   1  -4 -1221165.38 2803.88   1-0.72365 0.86508-0.47976 0.32893-0.49613-0.37871
  -1   4  1227096.16 1277.85   1 0.64447-0.78559-0.42022 0.57193 0.63879 0.23607
   1  -4 -1117985.88 2445.61   1-0.74765 0.89100-0.47172 0.30692-0.46742-0.33451
   1  -4 -10 9479.07 1274.37   1-0.76877 0.91405-0.46371 0.28492-0.44039-0.28864
  -1   4  1010795.12  832.50   1 0.64639-0.79139-0.42436 0.60388 0.63410 0.09495
  -1   4   9129843.3 2116.21   1 0.65321-0.80030-0.40592 0.59934 0.63916 0.01724
  -1   4   9139606.3 2533.41   1 0.64372-0.79066-0.41862 0.61204 0.64060 0.01554
  -1   4   8 4387.42  247.90   1 0.68226-0.83126-0.34521 0.55252 0.64447-0.06099
   1  -4  -8 3935.23  222.86   1-0.54504 0.69401-0.81491 0.60752-0.19705-0.38635
   1  -4  -8 6189.77  591.49   1-0.80237 0.95149-0.44884 0.24208-0.39336-0.18986
  -1   4   8 4355.55  428.16   1 0.63772-0.78660-0.40598 0.61331 0.65458-0.07133
  -1   4   7114728.7 2491.20   1 0.71997-0.87089-0.25093 0.47213 0.64704-0.13650
   1  -4  -7110161.8 2389.50   1-0.38856 0.53952-0.92047 0.69952-0.04182-0.46859
   1  -4  -7115826.8 2989.45   1-0.81455 0.96560-0.44268 0.22194-0.37487-0.13545
  -1   4   7117650.7 2710.28   1 0.62712-0.77794-0.38446 0.60570 0.67742-0.16708
  -1   4   636517.62  684.84   1 0.75783-0.91074-0.12486 0.35979 0.64038-0.20270
   1  -4  -637062.74  685.84   1-0.15436 0.30711-0.97477 0.73968 0.16121-0.59879
   1  -4  -641413.44 1411.08   1-0.82317 0.97614-0.43803 0.20332-0.36125-0.07617
  -1   4   636803.58  895.48   1 0.60986-0.76262-0.35127 0.58641 0.71040-0.27297
  -1   4   521320.24  852.47   1 0.78471-0.93955 0.02013 0.22873 0.61952-0.25479
   1  -4  -519980.09  794.18   1 0.15002 0.00458-0.91062 0.66172 0.38504-0.74972
   1  -4  -523046.31 1229.37   1-0.82742 0.98231-0.43565 0.18695-0.35435-0.01016
  -1   4   522411.87  989.44   1 0.58272-0.73743-0.30260 0.55165 0.75422-0.38969
  -1   4   4182642.3 2755.59   1 0.79453-0.95109 0.16435 0.09839 0.58455-0.29279
   1  -4  -4179450.1 2690.26   1 0.44965-0.29308-0.69493 0.43206 0.56113-0.85289
   1  -4  -4201437.3 3195.57   1-0.82577 0.98258-0.43659 0.17391-0.35705 0.06543
  -1   4   4190451.1 2957.46   1 0.54083-0.69742-0.23393 0.49681 0.80794-0.51649
  -1   4   373757.14 1170.32   1 0.78781-0.94638 0.29363-0.01697 0.54141-0.32259
   1  -4  -371992.39 1119.95   1 0.65629-0.49771-0.40000 0.12320 0.63974-0.85854
   1  -4  -378379.55 1350.43   1-0.81514 0.97387-0.44237 0.16571-0.37396 0.15524
  -1   4   368635.78 2708.26   1-0.95883 0.80009-0.28389 0.56081 0.00599 0.21291
  -1   4   375203.73 1260.62   1 0.47846-0.63701-0.14036 0.41714 0.86681-0.64823
  -1   4   2141550.7 1455.88   1 0.76999-0.93062 0.40410-0.11362 0.49376-0.34789
   1  -4  -2142286.2 1421.73   1 0.75658-0.59597-0.12990-0.16074 0.64086-0.78675
   1  -4  -2147373.8 1716.52   1-0.78884 0.94950-0.45517 0.16453-0.41295 0.26714
  -1   4   1147729.2 1540.05   1 0.74489-0.90749 0.49513-0.19073 0.44719-0.37425
   1  -4  -1148045.8 1496.55   1 0.79007-0.62753 0.07142-0.37600 0.60882-0.68177
  -1   4   1138667.7 1471.10   1-0.95406 0.79145-0.29859 0.60341-0.02440 0.09737
   1  -4   0135192.6 1412.33   1 0.79391-0.62932 0.20866-0.52705 0.57110-0.57110
   1  -4   0141758.4 1399.41   1-0.59405 0.75863-0.50862 0.18991-0.62322 0.62322
  -1   4   0135492.1 1383.37   1-0.95641 0.79186-0.29183 0.61060-0.01033 0.01033
   1  -4   0127649.5 1331.30   1 0.37849-0.21407-0.00627-0.31220 0.92558-0.92558
  -1   4  -167194.48 1534.69   1 0.68296-0.84932 0.63635-0.30402 0.35861-0.43152
  -1   4  -170153.17 1439.25   1-0.96527 0.79880-0.25145 0.58417 0.07074-0.14371
  -1   4  -170578.33 1437.53   1 0.21895-0.38555 0.50834-0.17578 0.83285-0.90578
  -1   4  -2 7239.88  378.57   1 0.64888-0.81715 0.69266-0.34639 0.31491-0.46072
  -1   4  -2 7621.87  380.45   1-0.14724-0.02110 0.52585-0.17943 0.83773-0.98354
  -1   4  -3422342.6 6356.03   1-0.26547 0.09520 0.61327-0.25293 0.74391-0.96278
   1  -4   470273.68 1567.68   1-0.57513 0.74769-0.78510 0.41105-0.22982 0.52152
  -1   4  -460938.36 1320.94   1-0.36274 0.19051 0.67477-0.30052 0.64272-0.93455
   1  -4   550214.80 1320.19   1-0.53655 0.71107-0.82265 0.43471-0.18800 0.55262
  -1   4  -547476.42 1211.22   1-0.44121 0.26715 0.71565-0.32748 0.54145-0.90630
   1  -4   6 3152.04  448.74   1-0.49662 0.67310-0.85551 0.45368-0.14647 0.58403
   1  -4   6 2261.48  132.16   1-0.12824 0.30479 0.43525-0.83761 0.89112-0.45332
   1  -4   6 2642.25  154.34   1 0.38246-0.20603 0.52049-0.92276 0.76341-0.32565
  -1   4  -6 3194.74  407.74   1-0.50368 0.32767 0.74100-0.33892 0.44408-0.88190
   1  -4   7 1113.20  450.97   1-0.45531 0.63376-0.88410 0.46838-0.10511 0.61559
   1  -4   7  326.59   82.16   1 0.45955-0.28117 0.52040-0.93662 0.71971-0.20899
  -1   4  -7  594.57  247.77   1-0.55346 0.37536 0.75488-0.33882 0.35189-0.86272
   1  -4   812741.64  539.76   1-0.41214 0.59247-0.90886 0.47939-0.06406 0.64741
  -1   4  -812680.08 1246.70   1-0.59337 0.41334 0.76012-0.33017 0.26479-0.84860
   1  -4   9  599.10  296.35   1-0.36787 0.55016-0.92960 0.48623-0.02262 0.67889
  -1   4  -9  462.97  222.53   1-0.62529 0.44334 0.75876-0.31491 0.18242-0.83921
   1  -4  10 2436.15  403.46   1-0.32195 0.50620-0.94656 0.48929 0.01901 0.71017
   1  -3 -12  370.27  149.49   1-0.71133 0.83484-0.48349 0.41232-0.51013-0.36471
  -1   3  12 1652.56  493.30   1 0.66605-0.78876-0.46775 0.53946 0.58100 0.29467
   1  -3 -1114433.38 1787.45   1-0.73722 0.86266-0.47535 0.39019-0.48014-0.32180
  -1   3  1115073.33  743.88   1 0.66940-0.79410-0.47597 0.56162 0.57038 0.23232
   1  -3 -10 9339.67 1251.72   1-0.76014 0.88750-0.46710 0.36796-0.45165-0.27738
  -1   3  10 9882.79  566.64   1 0.67112-0.79781-0.48028 0.57988 0.56472 0.16500
   1  -3  -915730.64 1570.99   1-0.78010 0.90938-0.45901 0.34589-0.42512-0.23100
  -1   3   915873.09  887.92   1 0.67097-0.79965-0.47989 0.59344 0.56523 0.09152
  -1   3   868101.30 1373.35   1 0.64905-0.78027 0.69240-0.56504 0.31512 0.26812
  -1   3   869302.80 1403.58   1 0.47447-0.60542-0.66813 0.79583 0.57312 0.01038
   1  -3  -877267.11 1866.40   1-0.79706 0.92827-0.45138 0.32428-0.40116-0.18207
  -1   3   873118.45 1687.54   1 0.66844-0.79912-0.47359 0.60107 0.57348 0.01030
  -1   3   723195.56 1039.10   1 0.52853-0.66154-0.60328 0.74487 0.59724-0.08670
   1  -3  -722397.10 1002.91   1-0.56482 0.69776-0.79576 0.65410-0.21846-0.29201
  -1   3   723952.73 1157.83   1 0.66195-0.79485-0.45968 0.60127 0.59204-0.08170
  -1   3   6451541.019620.87   1 0.60968-0.74461-0.48447 0.63995 0.62734-0.18974
   1  -3  -6446473.519400.84   1-0.42873 0.56367-0.89988 0.74459-0.07995-0.35755
   1  -3  -6483359.621075.05   1-0.82096 0.95601-0.43925 0.28418-0.36479-0.07263
  -1   3   6467157.020350.39   1 0.65104-0.78588-0.43458 0.59008 0.62231-0.18488
  -1   3   554583.67 1844.22   1 0.70528-0.84212-0.29022 0.45959 0.64679-0.28211
   1  -3  -553758.87 1815.64   1-0.18723 0.32400-0.97307 0.80369 0.13444-0.49908
   1  -3  -559142.60 2099.02   1-0.82667 0.96364-0.43608 0.26703-0.35558-0.00893
  -1   3   558204.64 2057.66   1 0.63186-0.76865-0.39397 0.56337 0.66747-0.30295
  -1   3   4134126.9 1304.86   1 0.77597-0.91478-0.03829 0.22146 0.62960-0.33781
   1  -3  -4129454.1 1248.74   1 0.19472-0.05608-0.88900 0.70581 0.41442-0.70617
   1  -3  -4146166.6 1696.04   1-0.82636 0.96525-0.43625 0.25323-0.35609 0.06447
  -1   3   4134301.1 1451.21   1 0.59879-0.73752-0.33096 0.51428 0.72931-0.43769
  -1   3   3369949.5 3489.49   1 0.79418-0.93478 0.19945-0.00239 0.57401-0.35519
   1  -3  -3359954.3 3373.44   1 0.57151-0.43082-0.54409 0.34694 0.61427-0.83307
   1  -3  -3377877.2 3743.72   1-0.81670 0.95752-0.44154 0.24453-0.37151 0.15280
  -1   3   3374485.2 3619.49   1 0.54256-0.68319-0.23667 0.43383 0.80598-0.58740
  -1   3   2112614.5 2308.78   1 0.77525-0.91791 0.37904-0.16814 0.50527-0.35939
   1  -3  -2114385.3 2325.11   1 0.75466-0.61199-0.13750-0.07352 0.64154-0.78743
  -1   3   2100301.4 2113.02   1-0.93169 0.78896-0.34275 0.55381-0.12025 0.26613
  -1   3   2101604.3 2113.98   1 0.45168-0.59426-0.10275 0.31381 0.88624-0.74051
  -1   3   1119847.9 1234.18   1 0.74171-0.88634 0.50456-0.27975 0.44190-0.36896
   1  -3  -1125094.7 1253.91   1 0.79435-0.64973 0.14907-0.37395 0.58887-0.66181
   1  -3  -1125400.4 1307.43   1-0.72696 0.87162-0.47872 0.25374-0.49229 0.41939
  -1   3   1113472.7 2345.20   1-0.91622 0.77156-0.36361 0.58863-0.16829 0.24124
   1  -3  -1119979.2 1231.08   1 0.48004-0.33551-0.14263-0.08233 0.86556-0.93843
   1  -3   0344834.9 3304.54   1 0.78489-0.63826 0.31752-0.55632 0.53209-0.53209
   1  -3   0368271.5 3460.71   1-0.56678 0.71341-0.51217 0.27313-0.64531 0.64531
  -1   3   0331029.1 3158.59   1-0.89614 0.74956-0.38520 0.62418-0.22031 0.22031
   1  -3   0349580.2 3344.97   1 0.33862-0.19212 0.04332-0.28219 0.93992-0.93992
  -1   3  -1464527.7 4487.62   1 0.66490-0.81331 0.66755-0.41482 0.33506-0.40796
  -1   3  -1432086.0 4047.40   1-0.86670 0.71821-0.41013 0.66307-0.28391 0.21096
  -1   3  -1454300.3 4226.17   1 0.10322-0.25185 0.49080-0.23789 0.86513-0.93806
   1  -3   1436231.9 4150.23   1 0.19305-0.04463 0.20921-0.46204 0.95862-0.88573
  -1   3  -3 -133.98   31.79   1-0.91053 0.75820-0.37023 0.65108-0.18398-0.03485
   1  -3   483953.70 1459.10   1-0.54555 0.70012-0.81444 0.52001-0.19759 0.48930
  -1   3  -486145.39 1350.46   1-0.85477 0.70052-0.41866 0.71347-0.30672 0.01494
   1  -3   478760.30 1191.11   1-0.30809 0.46266 0.37306-0.66776 0.87515-0.58312
  -1   3  -484568.83 1404.56   1-0.40811 0.25380 0.69954-0.40495 0.58658-0.87840
   1  -3   586285.19 1884.14   1-0.50492 0.66145-0.84913 0.54081-0.15498 0.51961
  -1   3  -585453.97 1713.17   1-0.81781 0.66162-0.44095 0.74981-0.36977 0.00525
  -1   3  -585486.18 1814.66   1-0.48199 0.32582 0.73306-0.42455 0.47989-0.84474
   1  -3   687451.05 2077.96   1-0.46347 0.62197-0.87885 0.55664-0.11317 0.55072
  -1   3  -687066.29 1921.30   1-0.78283 0.62471-0.45783 0.78068-0.42136-0.01605
   1  -3   679809.29 1756.01   1-0.62892 0.78751 0.20926-0.53201 0.74877-0.31110
  -1   3  -688523.39 2046.65   1-0.53836 0.38025 0.75137-0.42895 0.38157-0.81939
   1  -3   7 2176.46  403.44   1-0.42060 0.58100-0.90436 0.56836-0.07214 0.58257
  -1   3  -7 2255.09  217.83   1-0.74638 0.58634-0.47218 0.80900-0.46899-0.04133
   1  -3   7 1766.01  148.37   1-0.66639 0.82696 0.18409-0.52078 0.72251-0.21190
  -1   3  -7 3277.89  382.67   1-0.58198 0.42183 0.75929-0.42293 0.29115-0.80198
   1  -3   852610.95 1157.69   1-0.37703 0.53938-0.92567 0.57577-0.03109 0.61444
  -1   3  -851884.66  977.98   1-0.70714 0.54518-0.48471 0.83551-0.51478-0.06844
  -1   3  -853978.17 1147.50   1-0.61617 0.45409 0.75980-0.40954 0.20743-0.79124
   1  -3   9 4062.34  462.67   1-0.33217 0.49648-0.94316 0.57936 0.00985 0.64640
  -1   3  -9 2726.22  401.32   1-0.66420 0.50026-0.49581 0.86039-0.55946-0.09725
  -1   3  -9 4079.89  498.91   1-0.64307 0.47906 0.75481-0.39066 0.12926-0.78604
   1  -3  10 8785.38  728.02   1-0.28585 0.45212-0.95692 0.57921 0.05088 0.67829
  -1   3 -10 6380.13  884.18   1-0.66428 0.49824 0.74541-0.36748 0.05550-0.78531
   1  -3  11 7396.59  899.39   1-0.23785 0.40594-0.96691 0.57536 0.09217 0.71004
  -1   3 -11 5511.84  917.21   1-0.68064 0.51265 0.73246-0.34064-0.01466-0.78812
   1  -2 -12 2923.91  631.89   1-0.69121 0.79680-0.48907 0.49754-0.53200-0.34284
  -1   2  12 3365.83  392.37   1 0.68290-0.78766-0.51187 0.50390 0.52117 0.35450
   1  -2 -11  684.20  330.05   1-0.71914 0.82666-0.48116 0.47565-0.50131-0.30063
  -1   2  11  319.46  328.51   1 0.68694-0.79369-0.52379 0.52977 0.50372 0.29898
  -1   2  1012721.73  308.92   1 0.21929-0.32846-0.87571 0.89586 0.43015 0.29922
   1  -2 -1014252.80 1462.58   1-0.74391 0.85336-0.47304 0.45356-0.47202-0.25701
  -1   2  1013806.52  612.28   1 0.68975-0.79849-0.53253 0.55245 0.49056 0.23917
  -1   2   9  485.65   98.78   1 0.20101-0.31211-0.88569 0.91975 0.41848 0.23795
   1  -2  -9  994.31  222.07   1-0.76558 0.87694-0.46499 0.43152-0.44459-0.21154
  -1   2   9  455.94  330.58   1 0.69129-0.80203-0.53753 0.57140 0.48286 0.17389
  -1   2   864923.28 1323.87   1 0.70884-0.82212 0.58481-0.53705 0.39435 0.18888
  -1   2   867622.60 1390.57   1 0.19683-0.30987-0.88790 0.93586 0.41578 0.16771
   1  -2  -878457.67 1882.79   1-0.78407 0.89736-0.45729 0.40984-0.41964-0.16359
  -1   2   874606.67 1698.40   1 0.69141-0.80413-0.53790 0.58571 0.48229 0.10149
  -1   2   7 2426.29  309.44   1 0.67212-0.78731 0.65548-0.59378 0.34436 0.16597
  -1   2   7 2282.44  171.70   1 0.21368-0.32864-0.87884 0.94071 0.42658 0.08397
   1  -2  -7 3396.02  489.69   1-0.79918 0.91439-0.45037 0.38894-0.39806-0.11226
  -1   2   7 2314.16  349.80   1 0.68961-0.80433-0.53209 0.59384 0.49122 0.01959
  -1   2   6113752.9 1739.46   1 0.26505-0.38195-0.84816 0.92394 0.45865-0.02102
   1  -2  -6123175.0 2050.95   1-0.81043 0.92756-0.44481 0.36940-0.38121-0.05620
  -1   2   6115565.0 1910.45   1 0.68483-0.80154-0.51748 0.59318 0.51303-0.07519
  -1   2   5198198.2 2957.93   1 0.37782-0.49666-0.76346 0.85323 0.52380-0.15911
   1  -2  -5187123.4 2797.92   1-0.53082 0.64969-0.82772 0.73791-0.18193-0.18269
   1  -2  -5212082.8 3324.95   1-0.81690 0.93595-0.44144 0.35204-0.37120 0.00668
  -1   2   5201123.3 3122.55   1 0.67468-0.79339-0.48942 0.57906 0.55250-0.18763
  -1   2   4163847.0 1552.26   1 0.58217-0.70302-0.52818 0.63183 0.61814-0.32640
   1  -2  -4167543.0 1590.45   1-0.33770 0.45857-0.94124 0.83771 0.00487-0.29655
  -1   2   4153136.3 1648.99   1-0.94131 0.82039-0.32674 0.43033-0.08464 0.37652
  -1   2   4166855.8 1725.05   1 0.65335-0.77415-0.43975 0.54341 0.61623-0.32460
   1  -2  -3658093.7 6090.95   1 0.18585-0.06316-0.89355 0.77606 0.40867-0.62748
   1  -2  -3667110.9 6372.09   1-0.80581 0.92871-0.44714 0.32978-0.38823 0.16951
  -1   2   3675928.4 6366.73   1 0.61103-0.73377-0.35345 0.47102 0.70831-0.48959
  -1   2   254317.45 1113.10   1 0.77479-0.89947 0.38137-0.25005 0.50422-0.35835
   1  -2  -256501.55 1150.01   1 0.72531-0.60063-0.23563 0.10418 0.64683-0.79270
   1  -2  -256648.69 1214.42   1-0.77444 0.89926-0.46140 0.33006-0.43282 0.28701
  -1   2   252022.65 1121.57   1-0.89273 0.76793-0.38843 0.51984-0.22833 0.37422
  -1   2   256710.43 1199.29   1 0.52549-0.65016-0.21003 0.34147 0.82446-0.67873
   1  -2  -1686154.5 6382.93   1 0.79051-0.66386 0.26605-0.41133 0.55163-0.62456
  -1   2   1704315.5 6588.90   1 0.37073-0.49733 0.00353 0.14179 0.92873-0.85589
  -1   2   0225504.6 2194.33   1 0.66456-0.79311 0.66811-0.50891 0.33462-0.33462
  -1   2   0225768.4 2143.28   1-0.74721 0.61854-0.47188 0.63118-0.46797 0.46797
  -1   2   0226745.7 2144.92   1 0.48015-0.60887 0.51965-0.36037 0.70668-0.70668
   1  -2   0225386.4 2171.02   1 0.28912-0.16056 0.10188-0.26114 0.95185-0.95185
  -1   2  -1 2536.73  125.36   1-0.11626-0.01442 0.43879-0.26551 0.89103-0.96399
  -1   2  -1 2313.76  167.70   1-0.07453-0.05600 0.46604-0.29283 0.88161-0.95452
   1  -2   1 2362.06  146.66   1 0.09044 0.04006 0.31457-0.48780 0.94491-0.87203
   1  -2   2999998.633403.20   1-0.05952 0.19197 0.45322-0.64041 0.88940-0.74364
   1  -2   3 3341.56  280.48   1 0.69635-0.56207 0.61085-0.81184 0.37676-0.15804
   1  -2   3 3480.61  236.69   1-0.53427 0.66888-0.82468 0.62376-0.18558 0.40436
  -1   2  -3 4360.84  185.66   1-0.96556 0.83115-0.20202 0.40321 0.16389-0.38287
   1  -2   3 4144.29  173.45   1-0.50915 0.64382 0.27977-0.48097 0.81393-0.59510
  -1   2  -3 3580.07  209.09   1-0.38128 0.24683 0.68523-0.48419 0.62054-0.83941
   1  -2   3 5574.39  250.85   1-0.15742 0.29190 0.53387-0.73496 0.83078-0.61206
  -1   2  -4141021.8 2145.54   1-0.95179 0.81539-0.30451 0.51970-0.03684-0.25504
   1  -2   4140240.7 2119.50   1-0.69103 0.82766 0.16648-0.38159 0.70338-0.41153
   1  -2   5130803.5 2136.88   1-0.45263 0.59112-0.88570 0.65707-0.10319 0.46778
  -1   2  -5126908.6 1964.63   1-0.92003 0.78179-0.35889 0.58800-0.15724-0.20747
   1  -2   5129914.4 1995.51   1-0.76025 0.89889 0.11202-0.34107 0.63989-0.27506
  -1   2  -5135044.3 2175.20   1-0.53288 0.39460 0.74993-0.52109 0.39195-0.75680
   1  -2   6307356.1 5438.44   1-0.41145 0.55190-0.90922 0.66668-0.06341 0.50092
  -1   2  -6300870.7 5255.99   1-0.88562 0.74546-0.39485 0.63792-0.24445-0.19321
   1  -2   6288003.5 4994.63   1-0.78673 0.92737 0.08869-0.33167 0.61088-0.17309
  -1   2  -6303080.5 5373.89   1-0.57909 0.43882 0.75898-0.51622 0.29763-0.73548
   1  -2   714826.71  989.23   1-0.36947 0.51188-0.92892 0.67249-0.02410 0.53453
  -1   2  -713805.96 1055.06   1-0.84988 0.70780-0.42194 0.67897-0.31567-0.19493
   1  -2   710926.06  663.01   1-0.79345 0.93609 0.08249-0.33942 0.60301-0.09225
  -1   2  -714694.41 1322.04   1-0.61405 0.47185 0.75996-0.50330 0.21307-0.72390
   1  -2   8255144.4 9049.17   1-0.32645 0.47082-0.94509 0.67475 0.01499 0.56835
  -1   2  -8253236.6 8927.43   1-0.81247 0.66843-0.44376 0.71492-0.37809-0.20513
  -1   2  -8237253.5 7404.44   1-0.64096 0.49683 0.75543-0.48488 0.13594-0.71975
   1  -2   937987.96 1342.44   1-0.28219 0.42852-0.95783 0.67359 0.05407 0.60219
  -1   2  -939551.28 1537.00   1-0.77267 0.62671-0.46213 0.74727-0.43520-0.22093
  -1   2  -937465.67 2580.95   1-0.66195 0.51578 0.74677-0.46241 0.06437-0.72120
   1  -2  1013472.75  923.33   1-0.23642 0.38463-0.96715 0.66908 0.09338 0.63591
  -1   2 -10 9627.64 1307.58   1-0.72990 0.58201-0.47777 0.77689-0.48884-0.24019
  -1   2 -1013664.17 1463.88   1-0.67816 0.53004 0.73490-0.43666-0.00291-0.72689
   1  -2  1135539.13 1149.75   1-0.18912 0.33928-0.97292 0.66096 0.13288 0.66933
  -1   2 -1137574.67 1209.96   1-0.69049 0.54042 0.72023-0.40809-0.06699-0.73579
   1  -1 -12  824.70  284.89   1-0.66112 0.74876-0.49649 0.58421-0.56249-0.31312
  -1   1  12  305.24  299.20   1 0.69545-0.78226-0.55183 0.46418 0.46023 0.41544
  -1   1  1115351.20  593.49   1 0.07186-0.16108-0.94057 0.86763 0.33189 0.47038
   1  -1 -1113773.31 1940.79   1-0.69134 0.78094-0.48903 0.56318-0.53186-0.27008
  -1   1  1116016.99  730.64   1 0.69944-0.78824-0.56708 0.49337 0.43495 0.36774
  -1   1  1011790.34  344.77   1 0.02535-0.11652-0.95402 0.89494 0.29865 0.43068
   1  -1 -1012197.14 1096.41   1-0.71799 0.80951-0.48151 0.54167-0.50261-0.22642
  -1   1  1012240.44  489.86   1 0.70238-0.79318-0.57982 0.52005 0.41287 0.31686
   1  -1  -929127.72 1830.90   1-0.74125 0.83469-0.47397 0.52015-0.47527-0.18086
  -1   1   930346.67 1132.58   1 0.70441-0.79720-0.58978 0.54397 0.39490 0.26185
  -1   1   8 2056.02  240.12   1 0.74557-0.84042 0.49305-0.52480 0.44834 0.13517
  -1   1   8 3242.21  264.65   1-0.05444-0.04063-0.96939 0.93805 0.23938 0.34409
   1  -1  -8 3264.07  380.83   1-0.76103 0.85639-0.46676 0.49896-0.45051-0.13272
  -1   1   8 4114.57  415.90   1 0.70563-0.80041-0.59649 0.56462 0.38245 0.20133
  -1   1   7  853.74  124.80   1 0.72914-0.82596 0.53886-0.55669 0.42186 0.08870
  -1   1   7 1580.94  196.68   1-0.08664-0.01034-0.97281 0.95521 0.21476 0.29573
   1  -1  -7  951.78  158.16   1-0.77703 0.87432-0.46032 0.47854-0.42932-0.08100
  -1   1   7 1334.73  266.64   1 0.70606-0.80284-0.59905 0.58112 0.37762 0.13318
  -1   1   6 7242.73  488.14   1 0.71014-0.80928 0.58198-0.58596 0.39621 0.04121
  -1   1   6 6746.95  312.05   1-0.10945 0.01050-0.97428 0.97056 0.19696 0.24060
   1  -1  -6 8918.88  796.96   1-0.78863 0.88784-0.45527 0.45951-0.41326-0.02416
  -1   1   6 7234.92  467.38   1 0.70550-0.80427-0.59577 0.59179 0.38380 0.05403
  -1   1   535238.57  759.11   1 0.69252-0.79357 0.61837-0.60842 0.37150-0.00697
  -1   1   536098.29  787.30   1-0.11659 0.01568-0.97457 0.98474 0.19134 0.17330
  -1   1   533033.39  769.50   1-0.68013 0.57918 0.73298-0.72272-0.01220 0.37710
  -1   1   411713.15  422.53   1 0.67734-0.78031 0.64642-0.62254 0.35118-0.05955
  -1   1   413042.63  462.17   1-0.08690-0.01596-0.97283 0.99689 0.21457 0.07714
   1  -1  -412382.70  528.91   1-0.79228 0.89534-0.45361 0.42988-0.40806 0.11644
  -1   1   411227.86  455.20   1-0.92756 0.82453-0.34881 0.37263-0.13400 0.42578
  -1   1   411691.02  485.94   1 0.69625-0.79900-0.55472 0.57862 0.45553-0.16364
  -1   1   3100649.5 2030.71   1 0.67662-0.78149 0.64770-0.60989 0.35023-0.13151
  -1   1   3108169.6 2179.19   1 0.08485-0.18967-0.93622 0.97421 0.34099-0.12219
   1  -1  -3109451.0 2277.75   1-0.77594 0.88092-0.46077 0.42307-0.43079 0.21208
  -1   1   3101844.6 2118.24   1-0.89444 0.78949-0.38682 0.42461-0.22433 0.44317
  -1   1   3101704.3 2102.02   1 0.67629-0.78104-0.49366 0.53151 0.54672-0.32780
   1  -1  -2133393.3 1361.40   1-0.73080 0.83770-0.47747 0.42579-0.48778 0.34197
  -1   1   2138472.3 1390.96   1-0.83640 0.72950-0.43040 0.48209-0.33938 0.48519
  -1   1   2147562.1 1457.26   1 0.61538-0.72214-0.36166 0.41349 0.70035-0.55454
   1  -1  -2143868.0 1406.99   1 0.67594-0.56920-0.49272 0.44093 0.54801-0.69396
   1  -1  -189172.09 1799.21   1 0.71442-0.60573 0.57239-0.63806 0.40244-0.47534
   1  -1  -180268.85 1626.17   1-0.52202 0.63077-0.83526 0.76952-0.17270 0.09977
   1  -1  -189383.89 1825.12   1-0.61354 0.72234-0.50562 0.43989-0.60655 0.53358
  -1   1   188007.99 1795.83   1 0.44346-0.55214-0.09177 0.15747 0.89157-0.81873
  -1   1   0395645.9 3689.55   1 0.28657-0.39731 0.51526-0.43562 0.80769-0.80769
   1  -1   0382460.8 3567.09   1 0.45831-0.34757 0.52043-0.60007 0.72048-0.72048
  -1   1   0397774.6 3726.28   1 0.12074-0.23138 0.28446-0.20483 0.95105-0.95105
  -1   1  -1262827.4 2537.40   1-0.59273 0.48005-0.76575 0.85927-0.24955 0.17662
   1  -1   2743537.424854.98   1-0.46883 0.58348-0.87529 0.76789-0.11849 0.26434
  -1   1  -2770519.625725.44   1-0.84853 0.73389 0.02643 0.08109 0.52848-0.67440
   1  -1   2754747.025213.41   1-0.23137 0.34597 0.58939-0.69690 0.77400-0.62819
   1  -1   3148803.5 1582.42   1-0.43771 0.55430-0.89473 0.77346-0.08863 0.30738
  -1   1  -3154775.5 1518.44   1-0.95619 0.83972-0.15411 0.27561 0.24888-0.46785
   1  -1   3150944.9 1477.43   1-0.75858 0.87527 0.11344-0.23493 0.64162-0.42272
   1  -1   479795.51 1726.99   1-0.40482 0.52337-0.91260 0.77744-0.05712 0.34879
  -1   1  -480102.66 1672.85   1-0.96550 0.84704-0.24947 0.38496 0.07461-0.36650
   1  -1   476822.38 1600.57   1-0.82637 0.94506 0.05026-0.18569 0.56087-0.26901
  -1   1  -477526.17 1662.63   1-0.54498 0.42655 0.75297-0.61769 0.36880-0.66068
   1  -1   468165.62 1451.10   1-0.35252 0.47101 0.66882-0.80411 0.65452-0.36269
   1  -1   5139345.4 2233.31   1-0.37009 0.49060-0.92866 0.77959-0.02468 0.38927
  -1   1  -5135291.9 2109.67   1-0.95002 0.82962-0.30878 0.45822-0.04587-0.31897
   1  -1   5131098.7 2038.83   1-0.85151 0.97210 0.02306-0.17238 0.52382-0.15901
  -1   1  -5138250.9 2194.98   1-0.59006 0.46967 0.75994-0.61077 0.27258-0.63746
   1  -1   652728.73 1209.31   1-0.33366 0.45613-0.94265 0.77968 0.00851 0.42899
  -1   1  -646629.50 1155.68   1-0.92606 0.80383-0.35090 0.51431-0.13879-0.29886
   1  -1   647142.87 1034.76   1-0.85857 0.98116 0.01492-0.17816 0.51246-0.07469
  -1   1  -648211.55 1115.88   1-0.62249 0.50017 0.75914-0.59607 0.19024-0.62810
   1  -1   7118197.7 2226.13   1-0.29557 0.42000-0.95437 0.77750 0.04237 0.46805
  -1   1  -7111769.0 2254.48   1-0.89790 0.77375-0.38349 0.56086-0.21610-0.29450
  -1   1  -7113852.2 2183.79   1-0.64688 0.52254 0.75353-0.57663 0.11718-0.62804
   1  -1   818632.66  969.07   1-0.25569 0.38205-0.96368 0.77299 0.07696 0.50647
  -1   1  -818140.98 1452.81   1-0.86665 0.74059-0.41016 0.60149-0.28401-0.29954
  -1   1  -819376.39 1757.41   1-0.66556 0.53926 0.74463-0.55384 0.05053-0.63438
   1  -1   9137474.8 2443.28   1-0.21424 0.34255-0.97033 0.76575 0.11205 0.54431
  -1   1  -9134561.5 2321.70   1-0.83263 0.70458-0.43264 0.63813-0.34574-0.31039
  -1   1  -9132816.5 2393.24   1-0.68001 0.55177 0.73310-0.52843-0.01161-0.64521
   1  -1  10 9298.55  708.77   1-0.17099 0.30125-0.97413 0.75566 0.14773 0.58155
  -1   1 -10 7972.32  987.31   1-0.79550 0.66554-0.45212 0.67158-0.40342-0.32561
  -1   1 -1011340.76  879.11   1-0.69108 0.56089 0.71932-0.50076-0.07054-0.65926
   1  -1  1145591.11 1751.33   1-0.12581 0.25804-0.97483 0.74248 0.18405 0.61817
  -1   1 -1141707.23 1733.70   1-0.75505 0.62316-0.46902 0.70247-0.45815-0.34379
   1  -1  1222386.99 2019.17   1-0.07854 0.21272-0.97209 0.72586 0.22103 0.65411
   1   0 -12 8251.43 1394.31   1-0.61838 0.68806-0.50481 0.67221-0.60230-0.27331
  -1   0  1213555.17  768.80   1 0.70390-0.77276-0.58716 0.41983 0.39968 0.47599
  -1   0  1115878.06  810.83   1-0.06990-0.00132-0.97122 0.81847 0.22768 0.57454
   1   0 -1114579.82 1107.91   1-0.65070 0.72231-0.49872 0.65217-0.57258-0.23006
  -1   0  1116726.00  952.24   1 0.70655-0.77735-0.60588 0.45237 0.36562 0.43712
  -1   0  1056369.31 1764.21   1-0.12690 0.05372-0.97485 0.83599 0.18318 0.54610
   1   0 -1055837.44 1827.43   1-0.67913 0.75266-0.49230 0.63180-0.54443-0.18525
  -1   0  1053399.06 1778.36   1 0.70850-0.78130-0.62187 0.48231 0.33361 0.39615
  -1   0   928174.36  960.47   1-0.18276 0.10761-0.97340 0.84843 0.13811 0.51824
   1   0  -928922.12 1689.55   1-0.70365 0.77917-0.48570 0.61153-0.51862-0.13751
  -1   0   928671.72 1041.20   1 0.70948-0.78428-0.63583 0.51023 0.30387 0.35292
  -1   0   8248554.8 4915.88   1-0.23829 0.16119-0.96684 0.85575 0.09180 0.49162
   1   0  -8244584.8 4895.09   1-0.72409 0.80154-0.47962 0.59147-0.49561-0.08761
  -1   0   8251069.7 5042.86   1 0.70972-0.78652-0.64767 0.53603 0.27713 0.30668
  -1   0   7104709.1 1889.38   1 0.75955-0.83841 0.44634-0.54374 0.47312 0.03745
  -1   0   7122710.9 2221.37   1-0.29489 0.21586-0.95456 0.85725 0.04297 0.46745
   1   0  -7123236.5 2282.29   1-0.74000 0.81937-0.47440 0.57227-0.47679-0.03353
  -1   0   668886.45 2726.63   1 0.75375-0.83458 0.46682-0.55031 0.46251-0.02488
  -1   0   681923.52 1338.09   1-0.35362 0.27263-0.93533 0.85193-0.00957 0.44708
   1   0  -680881.41 1382.09   1-0.75037 0.83166-0.47074 0.55463-0.46404 0.02661
  -1   0   565335.55 1384.48   1 0.75195-0.83476 0.47284-0.54242 0.45932-0.09463
  -1   0   573522.49 1190.61   1-0.41771 0.33476-0.90592 0.83641-0.06938 0.43397
   1   0  -571669.59 1572.35   1-0.75320 0.83642-0.46971 0.53962-0.46048 0.09596
  -1   0   566115.00 2279.10   1-0.94291 0.85980-0.32375 0.25400-0.07810 0.44295
  -1   0   569068.77 1488.66   1-0.61807 0.53493 0.75963-0.82910 0.20233 0.16254
  -1   0   4149799.4 1486.37   1 0.75790-0.84268 0.45236-0.50802 0.47004-0.17829
  -1   0   4159646.9 1584.81   1-0.49367 0.40881-0.85772 0.80217-0.14348 0.43518
   1   0  -4159339.5 1662.25   1-0.74427 0.82941-0.47292 0.52884-0.47158 0.17996
  -1   0   4148103.4 1548.45   1-0.91453 0.82943-0.36563 0.30979-0.17305 0.46483
  -1   0   4154275.0 1591.84   1-0.64632 0.56125 0.75375-0.80933 0.11880 0.17310
  -1   0   3114899.0 2333.67   1 0.77697-0.86373 0.37009-0.41183 0.50925-0.29044
  -1   0   3119825.7 1183.52   1-0.59371 0.50688-0.76464 0.72297-0.25066 0.46943
  -1   0   3115832.2 2382.13   1-0.86286 0.77584-0.41296 0.37108-0.29141 0.51024
   1   0  -253125.05 1092.81   1 0.74354-0.65480 0.49917-0.47134 0.44493-0.59081
  -1   0   253880.03 1105.29   1 0.79188-0.88069 0.09604-0.12389 0.60307-0.45718
  -1   0   253606.35 1116.74   1-0.76065 0.67167-0.46691 0.43894-0.45100 0.59680
  -1   0   252997.90 1102.48   1 0.70156-0.79036-0.57611 0.54822 0.41939-0.27344
  -1   0   156172.67 1135.02   1 0.49011-0.58088-0.65032 0.63643 0.58040-0.50746
  -1   0   158879.37 1203.31   1-0.53457 0.44373-0.51547 0.50152-0.66971 0.74268
  -1   0   157114.37 1171.55   1 0.43459-0.52538 0.52088-0.53483 0.73471-0.66175
  -1   0   157173.33 1160.96   1 0.57935-0.67014-0.29680 0.28289 0.75911-0.68620
  -1   0   0135745.1 1293.35   1-0.04637-0.04637-0.96828 0.96828 0.24550-0.24550
   1   0   0150271.6 1425.99   1 0.04637 0.04637 0.47965-0.47965 0.87623-0.87623
   1   0   185033.69 1738.67   1-0.17656 0.27128-0.97381 0.95993 0.14318-0.07025
  -1   0  -179262.70 1621.94   1-0.26827 0.17355-0.96106 0.97495 0.06613-0.13906
   1   0   184084.47 1706.74   1-0.50888 0.60365 0.27991-0.29386 0.81405-0.74111
  -1   0  -182797.05 1685.96   1-0.41660 0.32192 0.70376-0.68986 0.57545-0.64842
   1   0   2 2593.68  207.84   1-0.24498 0.34166-0.96569 0.93792 0.08611 0.05974
  -1   0  -2 3312.13  238.31   1-0.37887 0.28221-0.92486 0.95266-0.03280-0.11303
   1   0   2 2345.60  154.30   1-0.76463 0.86138 0.10827-0.13615 0.63529-0.48936
  -1   0  -2 2577.86  267.17   1-0.53434 0.43771 0.75033-0.72252 0.38919-0.53513
   1   0   2 1960.33  190.59   1-0.44364 0.54028 0.71677-0.74458 0.53796-0.39203
   1   0   311882.37  475.21   1-0.26281 0.36144-0.96224 0.92058 0.07085 0.14793
  -1   0  -312391.03  463.49   1-0.95320 0.85468-0.14431 0.18612 0.26565-0.48463
   1   0   311868.56  437.08   1-0.85139 0.95009 0.02320-0.06499 0.52401-0.30512
   1   0   310476.76  403.16   1-0.47607 0.57465 0.73073-0.77244 0.48927-0.27036
  -1   0  -4 9741.29  406.58   1-0.50565 0.40506-0.84856 0.90412-0.15572-0.13597
  -1   0  -412333.60  490.64   1-0.96676 0.86624-0.22505 0.28085 0.12132-0.41321
   1   0   410225.87  400.00   1-0.88241 0.98310-0.01464-0.04108 0.47023-0.17838
  -1   0  -413052.94  808.66   1-0.62246 0.52195 0.75914-0.70357 0.19032-0.48223
   1   0   410630.72  862.36   1-0.48477 0.58530 0.73413-0.78975 0.47543-0.18355
   1   0   5148732.5 2357.16   1-0.24304 0.34559-0.96603 0.89660 0.08776 0.27688
  -1   0  -5132571.5 2090.74   1-0.55039 0.44783-0.80990 0.87934-0.20279-0.16183
  -1   0  -5151528.9 2368.67   1-0.95969 0.85723-0.28078 0.35053 0.01233-0.37718
   1   0   5133448.6 2087.31   1-0.89292 0.99559-0.02891-0.04073 0.44928-0.08446
   1   0   6  460.31  320.79   1-0.22009 0.32459-0.96957 0.88625 0.10715 0.33042
  -1   0  -6  508.79  124.53   1-0.94337 0.83898-0.32285 0.40655-0.07614-0.36167
   1   0   6  444.57  113.16   1-0.89387 0.99853-0.03025-0.05332 0.44729-0.00952
  -1   0  -6  392.58  160.42   1-0.66289 0.55842 0.74623-0.66291 0.06081-0.49869
   1   0   7118887.6 2227.76   1-0.19206 0.29853-0.97267 0.87546 0.13046 0.38004
  -1   0  -7112632.7 2091.71   1-0.92171 0.81550-0.35673 0.45444-0.15223-0.35837
  -1   0  -7112622.6 2289.62   1-0.67636 0.56994 0.73654-0.63933 0.00527-0.51614
   1   0   8 5899.03  484.85   1-0.16013 0.26855-0.97460 0.86351 0.15655 0.42687
  -1   0  -8 5110.74  498.65   1-0.89623 0.78810-0.38511 0.49678-0.22009-0.36345
  -1   0  -8 5793.43  563.51   1-0.68698 0.57861 0.72515-0.61405-0.04706-0.53678
   1   0   934782.08 1193.83   1-0.12492 0.23530-0.97481 0.84983 0.18475 0.47160
  -1   0  -930751.45 1614.20   1-0.86744 0.75739-0.40957 0.53520-0.28245-0.37404
  -1   0  -934602.53 1253.53   1-0.69526 0.58494 0.71214-0.58716-0.09729-0.55953
   1   0  1038096.92 1310.57   1-0.08679 0.19912-0.97282 0.83396 0.21465 0.51463
  -1   0 -1039297.44 1324.92   1-0.83559 0.72355-0.43088 0.57070-0.34074-0.38829
   1   0  11 3383.28  415.58   1-0.04548 0.15967-0.96815 0.81562 0.24617 0.55610
  -1   0 -11 2943.35  499.96   1-0.80036 0.68639-0.44981 0.60361-0.39634-0.40560
   1   0  1239544.30 1634.95   1-0.00181 0.11796-0.96034 0.79395 0.27879 0.59642
  -1   0 -1237448.58 1863.61   1-0.76160 0.64571-0.46654 0.63432-0.44977-0.42507
   1   1 -1222610.72 1252.60   1-0.55823 0.60995-0.51314 0.76021-0.65196-0.22365
  -1  -1  1222656.71 1309.20   1 0.70814-0.75901-0.61835 0.37119 0.34082 0.53489
  -1  -1  11 2686.95  371.86   1-0.17713 0.12384-0.97378 0.74143 0.14272 0.65949
   1   1 -11 2640.52  325.51   1-0.59267 0.64632-0.50882 0.74194-0.62437-0.17827
  -1  -1  11 2952.51  421.25   1 0.70958-0.76245-0.63837 0.40516 0.29826 0.50448
  -1  -1  10105864.5 3074.61   1-0.23831 0.18306-0.96684 0.74837 0.09178 0.63750
   1   1 -10108750.513572.80   1-0.62243 0.67800-0.50411 0.72329-0.59870-0.13097
  -1  -1  10107788.013462.32   1 0.70948-0.76434-0.65659 0.43734 0.25595 0.47381
  -1  -1   9 4026.83  304.58   1-0.29924 0.24210-0.95337 0.74869 0.03914 0.61711
   1   1  -9 4245.60  482.21   1-0.64744 0.70493-0.49940 0.70462-0.57569-0.08102
  -1  -1   834179.23  829.97   1-0.36028 0.30119-0.93270 0.74193-0.01566 0.59900
   1   1  -834552.62  889.56   1-0.66729 0.72672-0.49511 0.68638-0.55639-0.02735
  -1  -1   772938.96 1416.62   1-0.42258 0.36153-0.90329 0.72642-0.07404 0.58446
   1   1  -771503.07 1475.08   1-0.68110 0.74245-0.49182 0.66915-0.54240 0.03162
  -1  -1   6200829.9 3996.56   1 0.77550-0.83836 0.37776-0.54082 0.50585-0.06821
  -1  -1   6224801.5 4475.70   1-0.48784 0.42490-0.86202 0.69906-0.13756 0.57511
   1   1  -6224271.8 4563.43   1-0.68679 0.75017-0.49021 0.65375-0.53665 0.09922
  -1  -1   6210460.7 4200.36   1-0.95941 0.89618-0.28181 0.11842 0.01024 0.42758
   1   1  -6236143.3 4721.81   1-0.69384 0.75699 0.71474-0.55173-0.08782-0.35005
  -1  -1   562643.00 2146.30   1 0.77670-0.84153 0.37151-0.52067 0.50862-0.14393
  -1  -1   566832.93 2292.22   1-0.55634 0.49144-0.80417 0.65510-0.20922 0.57385
   1   1  -567965.32 2658.02   1-0.68148 0.74667-0.49173 0.64115-0.54201 0.17717
  -1  -1   565142.72 2237.74   1-0.94175 0.87659-0.32592 0.17648-0.08284 0.44769
   1   1  -573222.56 1235.96   1-0.68653 0.75163 0.72572-0.57660-0.04463-0.32027
  -1  -1   561766.91 2162.27   1-0.51095 0.44586 0.74342-0.89260 0.43156-0.06672
   1   1  -494508.66 1963.66   1 0.63121-0.56414 0.71797-0.58265 0.29339-0.58501
  -1  -1   486224.78 1799.13   1 0.78203-0.84884 0.34069-0.47593 0.52187-0.23011
   1   1  -492377.25 1993.52   1-0.65651 0.72363-0.49750 0.63297-0.56698 0.27511
  -1  -1   489458.85 1868.14   1-0.90522 0.83805-0.37603 0.24054-0.19792 0.48969
   1   1  -493772.78 1969.46   1-0.67749 0.74454 0.73552-0.60028 0.00014-0.29206
  -1  -1   486926.17 1818.94   1-0.52241 0.45537 0.74698-0.88226 0.41121-0.11934
   1   1  -3438318.2 4157.39   1 0.70877-0.63980 0.58497-0.46358 0.39425-0.61297
  -1  -1   3419688.5 3977.85   1 0.79033-0.85908 0.26817-0.38950 0.55086-0.33204
   1   1  -3444347.8 4192.96   1-0.59350 0.66254-0.50870 0.63022-0.62367 0.40477
  -1  -1   3424710.5 4037.96   1-0.83026 0.76113-0.43402 0.31242-0.34967 0.56839
   1   1  -3426353.7 4059.01   1-0.66603 0.73503 0.74433-0.62298 0.04867-0.26761
  -1  -1   3412849.5 3914.53   1-0.52703 0.45804 0.74832-0.86969 0.40280-0.18389
   1   1  -234285.95  741.12   1-0.64947 0.72042 0.75258-0.64512 0.10861-0.25457
  -1  -1   232424.14  709.25   1-0.51274 0.44180 0.74399-0.85147 0.42843-0.28249
  -1  -1   1192449.4 1830.08   1 0.74303-0.81589-0.17975 0.08622 0.64466-0.57172
  -1  -1   1184526.2 1750.75   1 0.10280-0.17562 0.49072-0.58431 0.86522-0.79229
   1   1   1158214.6 1524.34   1-0.69872 0.77552 0.16082-0.09508 0.69707-0.62410
  -1  -1  -1162504.0 1571.31   1-0.68571 0.60892 0.72675-0.79255-0.04026-0.03271
   1   1   244205.27  941.12   1 0.12112-0.04241-0.92268 0.97454 0.36602-0.22015
  -1  -1  -240047.51  852.79   1-0.91109 0.83231-0.05607 0.00426 0.40836-0.55429
   1   1   240202.85  855.75   1-0.83883 0.91761 0.03711 0.01469 0.54312-0.39719
  -1  -1  -241134.71  896.05   1-0.67744 0.59869 0.73557-0.78749 0.00039-0.14635
   1   1   3 8644.53  363.52   1 0.01234 0.06830-0.95719 0.99517 0.28919-0.07038
  -1  -1  -3 8879.04  353.84   1-0.20774 0.12704-0.97110 0.93316 0.11747-0.33625
  -1  -1  -3 9582.17  378.51   1-0.95590 0.87532-0.15310 0.11522 0.25062-0.46960
   1   1   3 7704.17  305.99   1-0.88807 0.96884-0.02221 0.06008 0.45916-0.24027
  -1  -1  -3 9070.35  393.15   1-0.67863 0.59793 0.73446-0.77249-0.00509-0.21384
   1   1   476057.23 1612.29   1-0.04043 0.12303-0.96740 0.99152 0.24999 0.04174
  -1  -1  -475407.70 1583.17   1-0.32942 0.24683-0.94410 0.92013 0.01232-0.30399
   1   1   471718.09 1538.71   1-0.59380 0.67636 0.76014-0.73602 0.26376 0.02813
   1   1   5 7750.69  398.53   1-0.06166 0.14622-0.97031 0.98056 0.23386 0.13080
  -1  -1  -5 7040.62  329.53   1-0.41856 0.33401-0.90547 0.89541-0.07018-0.29440
  -1  -1  -5 8205.12  392.89   1-0.96264 0.87813-0.26808 0.25813 0.03794-0.40279
   1   1   5 7860.61  355.94   1-0.91211 0.99685-0.05771 0.06773 0.40584-0.04103
  -1  -1  -5 8154.53  398.27   1-0.68809 0.60350 0.72366-0.73391-0.05322-0.31168
   1   1   6  713.48  183.62   1-0.06407 0.15058-0.97059 0.96698 0.23202 0.20558
  -1  -1  -6 1313.26  153.58   1-0.48834 0.40181-0.86165 0.86536-0.13807-0.29948
  -1  -1  -6  842.57  302.67   1-0.95068 0.86423-0.30722 0.31122-0.04256-0.39526
  -1  -1  -6 1089.90  216.43   1-0.69333 0.60679 0.71563-0.71200-0.08454-0.35333
   1   1   710351.37  582.06   1-0.05433 0.14279-0.96938 0.95190 0.23946 0.27108
  -1  -1  -710882.16  821.81   1-0.93353 0.84525-0.33991 0.35796-0.11386-0.39674
   1   1   823923.70 1436.32   1-0.03611 0.12652-0.96672 0.93538 0.25324 0.33022
  -1  -1  -824735.96 1671.71   1-0.91246 0.82225-0.36804 0.40005-0.17877-0.40478
   1   1   923120.70 1207.82   1-0.01154 0.10390-0.96233 0.91712 0.27160 0.38480
  -1  -1  -924547.47 1449.41   1-0.88797 0.79584-0.39278 0.43875-0.23922-0.41727
   1   1  1019252.38  540.83   1 0.01811 0.07619-0.95581 0.89674 0.29340 0.43594
  -1  -1 -1017594.38 1562.31   1-0.86026 0.76621-0.41483 0.47475-0.29641-0.43302
   1   1  11 2486.39  307.96   1 0.05212 0.04413-0.94668 0.87374 0.31790 0.48437
  -1  -1 -11 2622.32  454.36   1-0.82948 0.73343-0.43447 0.50862-0.35097-0.45097
   1   1  11 3558.01  402.38   1 0.70963-0.61280-0.65284 0.57902 0.26497 0.53777
   1   1  12 8500.71  530.70   1 0.09007 0.00814-0.93440 0.84759 0.34463 0.53057
  -1  -1 -12 5639.83 1026.51   1-0.79521 0.69724-0.45225 0.54038-0.40385-0.47099
   1   1  12 9729.13  644.72   1 0.70948-0.61065-0.63575 0.54797 0.30404 0.57168
  -1  -2  11  188.61  209.00   1-0.25618 0.22082-0.96359 0.65164 0.07654 0.72567
  -1  -2  1014515.00  851.27   1-0.31780 0.28060-0.94788 0.64974 0.02272 0.70646
   1   2 -1015412.39  878.80   1-0.53994 0.57756-0.51498 0.81384-0.66577-0.06391
  -1  -2   947165.00 1595.48   1-0.37841 0.33926-0.92506 0.64083-0.03238 0.68864
   1   2  -946652.57 1533.90   1-0.56380 0.60335-0.51252 0.79742-0.64764-0.00906
  -1  -2   8 9288.61  542.65   1-0.43864 0.39753-0.89418 0.62385-0.08953 0.67288
   1   2  -8 9273.19  511.13   1-0.58045 0.62191-0.51048 0.78144-0.63441 0.05066
   1   2  -810445.40  625.25   1-0.69130 0.73263 0.71897-0.44850-0.07189-0.51194
  -1  -2   765228.03 1544.39   1-0.49940 0.45643-0.85339 0.59692-0.14932 0.65980
   1   2  -766613.69 1542.29   1-0.58806 0.63145-0.50946 0.76647-0.62819 0.11741
   1   2  -767736.67 1617.71   1-0.67988 0.72316 0.73323-0.47664-0.01102-0.49984
  -1  -2   621941.09  962.64   1-0.55990 0.51495-0.80069 0.55810-0.21308 0.65064
   1   2  -620420.25  860.21   1-0.58307 0.62839-0.51014 0.75319-0.63228 0.19447
  -1  -2   619638.49  818.51   1-0.96296 0.91768-0.26645 0.02336 0.04119 0.39663
   1   2  -620515.66  892.83   1-0.66413 0.70936 0.74550-0.50280 0.05606-0.49395
   1   2  -5176317.2 2742.83   1 0.62170-0.57449 0.73069-0.50184 0.28207-0.64660
   1   2  -5181323.8 2763.97   1-0.55828 0.60552-0.51313 0.74224-0.65192 0.28708
  -1  -2   5168659.1 2596.92   1-0.94609 0.89887-0.31741 0.08828-0.06436 0.42921
   1   2  -5179380.5 2917.15   1-0.64179 0.68903 0.75519-0.52632 0.13332-0.49820
  -1  -2   5157838.5 2439.72   1-0.36917 0.32203 0.67845-0.90730 0.63514-0.27036
   1   2  -4296898.2 2932.78   1 0.68146-0.63235 0.63908-0.42416 0.35661-0.64823
  -1  -2   4272139.0 2694.76   1 0.79094-0.83971 0.26094-0.47579 0.55345-0.26170
  -1  -2   4274380.3 2670.01   1-0.90380 0.85457-0.37752 0.16236-0.20151 0.49329
   1   2  -4292408.4 2856.07   1-0.60823 0.65740 0.76025-0.54527 0.22818-0.52009
  -1  -2   4279047.1 2713.56   1-0.34682 0.29772 0.66545-0.88039 0.66097-0.36914
   1   2  -3120885.9 1264.33   1 0.73824-0.68743 0.51447-0.31357 0.43624-0.65506
  -1  -2   3118162.7 3989.13   1 0.79420-0.84498 0.19862-0.39955 0.57427-0.35545
  -1  -2   3120074.7 1196.40   1-0.80269 0.75147-0.44868 0.24743-0.39289 0.61160
  -1  -2   3119831.7 1189.28   1 0.36734-0.41826 0.52004-0.72118 0.77110-0.55222
   1   2  -3120238.2 1222.26   1-0.55117 0.60227 0.75440-0.55332 0.35648-0.57540
  -1  -2   3118836.5 3996.14   1-0.29157 0.24051 0.63079-0.83182 0.71908-0.50021
  -1  -2   2394891.1 3769.74   1 0.79180-0.84459 0.08986-0.27688 0.60413-0.45825
  -1  -2   2408241.9 3812.06   1-0.55166 0.49865-0.51383 0.32658-0.65698 0.80292
  -1  -2   2402147.3 3763.26   1 0.09745-0.15031 0.48974-0.67692 0.86640-0.72053
   1   2  -2404832.7 3800.93   1-0.43319 0.48623 0.71188-0.52475 0.55278-0.69871
  -1  -2   2408760.7 3833.80   1-0.15749 0.10454 0.53392-0.72108 0.83073-0.68491
  -1  -2   1454139.3 4278.40   1 0.76684-0.82168-0.08557-0.08761 0.63610-0.56316
   1   2  -1445275.9 4149.01   1 0.02166 0.03318 0.47429-0.30105 0.88009-0.95303
   1   2  -1465403.6 4332.08   1-0.12628 0.18121 0.50906-0.33585 0.85141-0.92431
  -1  -2   1444217.7 4134.64   1 0.16400-0.21895 0.23998-0.41318 0.95682-0.88393
   1   2   1552268.8 5165.71   1 0.62115-0.56237-0.46500 0.61032 0.63082-0.55788
  -1  -2  -1559097.4 5235.50   1-0.86971 0.81084 0.00153-0.14693 0.49354-0.56650
  -1  -2  -1536461.6 5008.27   1 0.70404-0.76292-0.58790 0.44249 0.39834-0.47131
  -1  -2  -391047.71 1871.81   1 0.07437-0.13710-0.93975 0.82218 0.33366-0.55246
   1   2   394549.27 1970.17   1-0.90143 0.96427-0.04119 0.15873 0.43094-0.21205
  -1  -2  -4142398.9 1435.52   1-0.10744 0.04271-0.97418 0.87052 0.19854-0.49026
   1   2   4133008.4 1417.52   1-0.91549 0.98032-0.06325 0.16686 0.39732-0.10547
   1   2   5193009.6 2966.03   1 0.16143-0.09483-0.90541 0.99510 0.39263-0.02794
  -1  -2  -5171955.1 2625.15   1-0.24805 0.18137-0.96514 0.87536 0.08349-0.44814
   1   2   6 3445.60  270.15   1 0.12768-0.05911-0.92001 0.99599 0.37048 0.06712
  -1  -2  -6 3111.30  226.25   1-0.35744 0.28892-0.93384 0.85811-0.01306-0.42444
  -1  -2  -6 3604.55  306.80   1-0.95313 0.88462-0.30108 0.22540-0.02962-0.40820
   1   2   7107126.1 2001.43   1 0.11354-0.04301-0.92568 0.98779 0.36084 0.14969
  -1  -2  -7105620.5 2024.28   1-0.93881 0.86836-0.33121 0.26948-0.09448-0.41631
   1   2   8 3926.65  390.39   1 0.11333-0.04085-0.92577 0.97401 0.36069 0.22277
  -1  -2  -8 3302.37  356.73   1-0.92081 0.84854-0.35789 0.31024-0.15493-0.42861
   1   2   8 2978.78  354.29   1 0.70960-0.63670-0.65357 0.70130 0.26324 0.32057
   1   2   9  598.30  262.92   1 0.12343-0.04901-0.92175 0.95613 0.36760 0.28881
  -1  -2  -9  906.37  283.27   1-0.89957 0.82538-0.38184 0.34814-0.21205-0.44444
   1   2   9  621.41  359.89   1 0.70971-0.63481-0.64394 0.67772 0.28572 0.37107
   1   2  1023794.72  893.86   1 0.14154-0.06516-0.91415 0.93466 0.37984 0.34950
  -1  -2 -1024648.78 2024.75   1-0.87521 0.79910-0.40355 0.38382-0.26672-0.46272
   1   2  1024071.79  927.87   1 0.70930-0.63240-0.63226 0.65209 0.31164 0.41813
   1   2  11  519.23  263.95   1 0.16625-0.08806-0.90315 0.90939 0.39582 0.40649
  -1  -2 -11  477.88  140.96   1-0.84775 0.76972-0.42334 0.41757-0.31952-0.48286
   1   2  11 1326.92  342.83   1 0.70817-0.62928-0.61866 0.62453 0.34019 0.46255
   1   2  12 5134.42  524.96   1 0.19649-0.11637-0.88808 0.88042 0.41556 0.45968
  -1  -2 -12 4477.27  650.11   1-0.81728 0.73722-0.44124 0.44971-0.37061-0.50423
   1   2  12 4362.58  511.86   1 0.70614-0.62525-0.60318 0.59510 0.37083 0.50489
  -1  -3  11 4720.68  479.83   1-0.31338 0.29613-0.94925 0.55764 0.02664 0.77545
  -1  -3  10 5628.43  601.73   1-0.37316 0.35395-0.92735 0.54965-0.02751 0.75670
  -1  -3  10 5035.15  463.73   1 0.41766-0.43688 0.52095-0.89939 0.74441-0.01481
  -1  -3   913592.78  473.20   1-0.43148 0.41030-0.89833 0.53453-0.08260 0.73886
  -1  -3   912576.00  373.13   1 0.43745-0.45863 0.52085-0.88533 0.73304-0.07639
   1   3  -913604.18  552.00   1-0.68763 0.70909 0.72428-0.36023-0.05067-0.60615
  -1  -3   8 4772.49  386.75   1-0.48903 0.46601-0.86115 0.51116-0.13876 0.72217
  -1  -3   8 4090.81  327.19   1 0.44601-0.46915 0.52071-0.87125 0.72795-0.14427
   1   3  -8 4761.85  520.05   1-0.67326 0.69666 0.73915-0.38899 0.01892-0.60277
  -1  -3   779779.61 1733.03   1-0.54484 0.51985-0.81510 0.47901-0.19683 0.70731
  -1  -3   774395.17 1541.55   1-0.96290 0.93736-0.18295-0.15365 0.19833 0.31261
  -1  -3   780954.00 1671.62   1 0.43967-0.46477 0.52082-0.85740 0.73173-0.22100
   1   3  -783915.26 1796.00   1-0.65341 0.67876 0.75099-0.41471 0.09517-0.60603
  -1  -3   6 5405.79  358.45   1-0.59926 0.57230-0.75818 0.43597-0.25698 0.69454
  -1  -3   6 5561.20  303.72   1-0.96665 0.93931-0.23274-0.09002 0.10678 0.33104
  -1  -3   6 5697.14  338.92   1 0.41131-0.43837 0.52093-0.84356 0.74795-0.31019
   1   3  -6 6859.76  589.73   1-0.62575 0.65312 0.75869-0.43623 0.18112-0.61897
   1   3  -514524.44  682.58   1 0.65269-0.62344 0.68688-0.37843 0.31965-0.68418
  -1  -3   512618.11  530.46   1-0.95663 0.92735-0.29114-0.01768-0.00890 0.37376
  -1  -3   513647.41  582.50   1 0.34690-0.37592 0.51921-0.82788 0.78107-0.41627
   1   3  -513844.02  969.82   1-0.58631 0.61560 0.75967-0.45111 0.28128-0.64616
   1   3  -4215783.1 3322.04   1 0.70185-0.67069 0.59967-0.30515 0.38442-0.67605
  -1  -3   4198462.9 2993.23   1-0.91571 0.88441-0.36422 0.06940-0.16973 0.46151
  -1  -3   4216896.6 3248.62   1 0.21846-0.24940 0.50828-0.80299 0.83301-0.54128
   1   3  -4216294.0 3288.02   1-0.52713 0.55838 0.74835-0.45375 0.40261-0.69449
  -1  -3   3181757.7 1755.79   1-0.78937 0.75607-0.45493 0.17404-0.41220 0.63091
  -1  -3   3182521.2 1751.45   1-0.01978-0.01314 0.46465-0.74550 0.88526-0.66637
   1   3  -3183160.9 1818.99   1-0.43189 0.46509 0.71126-0.43056 0.55458-0.77349
  -1  -3   3179706.0 1775.83   1-0.07635 0.04329 0.46759-0.74832 0.88063-0.66191
  -1  -3   2276613.5 2708.10   1 0.78868-0.82365 0.05590-0.32264 0.61224-0.46635
  -1  -3   2281985.1 2655.01   1-0.37722 0.34228 0.34418-0.61103 0.85979-0.71377
   1   3  -2277803.1 2606.01   1 0.43387-0.39898 0.52089-0.25406 0.73513-0.88105
   1   3  -2291197.8 2779.56   1-0.26938 0.30449 0.61594-0.34916 0.74029-0.88620
  -1  -3   2269822.7 2575.26   1 0.07600-0.11109 0.32872-0.59553 0.94136-0.79560
  -1  -3   1554486.3 5240.87   1 0.77023-0.80713-0.06910-0.18370 0.63400-0.56106
  -1  -3   1571650.6 5326.96   1-0.69487 0.65796 0.16367-0.41663 0.70026-0.62729
   1   3  -1558157.8 5194.07   1-0.17218 0.20910 0.42162-0.16867 0.89027-0.96323
   1   3  -1577495.5 5397.38   1-0.00386 0.04091 0.40387-0.15102 0.91480-0.98768
  -1  -3   1556002.2 5196.39   1 0.29938-0.33637 0.09031-0.34308 0.94984-0.87700
   1   3   0178776.7 1777.32   1 0.78138-0.74256-0.00440 0.24328 0.62402-0.62402
  -1  -3   0177587.6 1720.39   1-0.85680 0.81785 0.01698-0.25597 0.51535-0.51535
   1   3   0173364.2 1671.37   1-0.60932 0.64820 0.22177 0.01724 0.76127-0.76127
   1   3   0173018.5 1673.32   1 0.31557-0.27661 0.07113 0.16773 0.94622-0.94622
  -1  -3   0169614.9 1638.16   1 0.52426-0.56323-0.20814-0.03072 0.82572-0.82572
   1   3   1142981.5 1440.38   1 0.73231-0.69144-0.21455 0.43953 0.64627-0.57334
  -1  -3  -1136752.2 1365.96   1 0.63077-0.67164-0.44804 0.22311 0.63354-0.70648
   1   3   1140763.9 1400.66   1-0.79720 0.83812 0.07899 0.14609 0.59851-0.52555
   1   3   1138001.9 1363.36   1 0.53975-0.49883-0.23224 0.45721 0.80915-0.73628
  -1  -3  -1136281.0 1350.54   1 0.65561-0.69651-0.44487 0.21984 0.61012-0.68303
   1   3   2354949.7 3383.75   1 0.64974-0.60695-0.41269 0.62373 0.63836-0.49249
  -1  -3  -2341110.2 3241.82   1 0.48370-0.52658-0.65770 0.44666 0.57744-0.72332
  -1  -3  -2360034.4 3464.60   1-0.95414 0.91138-0.14729-0.06390 0.26058-0.40657
   1   3   3406373.4 3867.29   1 0.55118-0.50647-0.57303 0.77018 0.60649-0.38769
  -1  -3  -3388926.5 3689.64   1 0.29918-0.34403-0.82515 0.62805 0.47917-0.69799
  -1  -3  -3419477.0 4053.14   1-0.96507 0.92039-0.19757 0.00031 0.17200-0.39098
   1   3   3414621.6 3987.47   1 0.68248-0.63756-0.51068 0.70788 0.52289-0.30397
   1   3   434737.37  797.03   1 0.45766-0.41092-0.68647 0.86973 0.56506-0.27330
  -1  -3  -432391.32  716.29   1 0.10927-0.15601-0.92733 0.74404 0.35791-0.64965
  -1  -3  -436093.85  875.90   1-0.96643 0.91973-0.23796 0.05468 0.09682-0.38870
   1   3   5443936.9 6635.56   1 0.38269-0.33402-0.75920 0.92858 0.52644-0.16175
  -1  -3  -5413330.2 6163.83   1-0.06143 0.01275-0.97028 0.80085 0.23404-0.59871
  -1  -3  -5449198.4 6800.80   1-0.96177 0.91313-0.27225 0.10292 0.02958-0.39444
   1   3   5433480.4 6552.33   1 0.70359-0.65469-0.58563 0.75495 0.40246-0.03759
   1   3   619144.77  809.99   1 0.32887-0.27822-0.80332 0.95870 0.49649-0.05887
  -1  -3  -616989.73  705.93   1-0.20518 0.15448-0.97138 0.81589 0.11959-0.55717
   1   3   620444.07  962.53   1 0.70589-0.65499-0.59801 0.75338 0.37960 0.05823
   1   3   733283.48 1924.69   1 0.29498-0.24240-0.82810 0.96958 0.47668 0.03388
  -1  -3  -732761.66 1958.75   1-0.93998 0.88748-0.32915 0.18772-0.08992-0.42087
   1   3   731180.22 1861.44   1 0.70610-0.65313-0.60290 0.74428 0.37138 0.13945
   1   3   8212252.1 4230.40   1 0.27722-0.22271-0.84020 0.96778 0.46604 0.11746
  -1  -3  -8220175.9 4481.07   1-0.92408 0.86975-0.35360 0.22629-0.14500-0.43854
   1   3   8220027.0 4483.53   1 0.70643-0.65155-0.60132 0.72881 0.37329 0.21049
   1   3   9 1197.12  183.94   1 0.27238-0.21594-0.84340 0.95707 0.46310 0.19333
  -1  -3  -9 1867.06  373.25   1-0.90520 0.84895-0.37604 0.26269-0.19794-0.45855
   1   3   9 1425.02  343.63   1 0.70561-0.64873-0.59639 0.70993 0.38265 0.27410
   1   3  1018435.38  445.27   1 0.27791-0.21954-0.83974 0.93950 0.46646 0.26291
  -1  -3 -1018609.42 1309.16   1-0.88341 0.82524-0.39676 0.29737-0.24929-0.48014
   1   3  1019173.10  635.66   1 0.70413-0.64526-0.58835 0.68795 0.39753 0.33219
   1   3  11 1732.93  296.01   1 0.29199-0.23169-0.83018 0.91603 0.47490 0.32740
  -1  -3 -11 2927.52  407.81   1-0.85869 0.79859-0.41594 0.33050-0.29939-0.50299
   1   3  11 4190.00  588.67   1 0.70191-0.64105-0.57767 0.66333 0.41665 0.38605
  -1  -3 -1222847.90 2713.67   1-0.83114 0.76900-0.43351 0.36234-0.34822-0.52662
   1   3  1225781.43 1255.67   1 0.69883-0.63598-0.56463 0.63634 0.43910 0.43657
  -1  -4  1011642.76  599.81   1-0.41104 0.40981-0.90943 0.45216-0.06302 0.79221
   1   4 -1011924.22  599.33   1-0.68870 0.69027 0.72283-0.26520-0.05662-0.67318
  -1  -4   9  241.78  266.82   1-0.46685 0.46379-0.87662 0.43312-0.11651 0.77285
   1   4  -9   13.39  202.33   1-0.67366 0.67718 0.73883-0.29510 0.01721-0.67404
  -1  -4   8  832.94  272.45   1-0.52018 0.51516-0.83680 0.40718-0.17078 0.75419
  -1  -4   8  328.13  130.31   1 0.23247-0.23754 0.50993-0.94004 0.82820-0.24473
   1   4  -8  473.85  271.82   1-0.65296 0.65844 0.75118-0.32133 0.09674-0.68058
  -1  -4   717031.01  960.66   1-0.57147 0.56447-0.78895 0.37323-0.22576 0.73624
   1   4  -715641.21 1323.14   1-0.62473 0.63221 0.75884-0.34278 0.18400-0.69483
   1   4  -620041.59 1237.95   1 0.62137-0.61198 0.73112-0.32914 0.28168-0.71912
  -1  -4   617852.94 1035.56   1-0.95864 0.94913-0.16318-0.23918 0.23318 0.20477
  -1  -4   618506.21 1071.22   1 0.12276-0.13179 0.49425-0.89649 0.86060-0.42300
   1   4  -620117.51 1662.97   1-0.58625 0.59566 0.75967-0.35751 0.28142-0.71928
   1   4  -514355.45 1025.51   1 0.66730-0.65600 0.66360-0.27555 0.33813-0.70266
  -1  -4   512698.41  586.16   1-0.96677 0.95535-0.22701-0.16141 0.11749 0.24747
  -1  -4   513251.39  608.87   1-0.01513 0.00414 0.46578-0.85419 0.88476-0.51993
   1   4  -514007.17 1044.85   1-0.53279 0.54420 0.74991-0.36175 0.39210-0.75695
   1   4  -4 1301.39  179.22   1 0.70930-0.69609 0.58381-0.20969 0.39501-0.68664
  -1  -4   4 1020.57   93.83   1-0.94640 0.93313-0.31677-0.05779-0.06297 0.35485
  -1  -4   4  874.60   80.53   1-0.24503 0.23205 0.39677-0.77124 0.88460-0.59273
   1   4  -4  788.61  115.55   1-0.45639 0.46975 0.72248-0.34822 0.51933-0.81121
  -1  -4   4  887.50  119.33   1-0.01031-0.00297 0.40971-0.78408 0.91215-0.62064
   1   4  -311261.92  690.92   1 0.74669-0.73183 0.48962-0.12957 0.45023-0.66905
  -1  -4   312585.12  444.81   1-0.80782 0.79244-0.44614 0.08558-0.38519 0.60390
  -1  -4   310140.26  364.57   1-0.54724 0.53228 0.25880-0.61935 0.79595-0.57712
   1   4  -310142.48  418.46   1-0.34492 0.36016 0.66431-0.30397 0.66310-0.88197
  -1  -4   3 9661.78  388.62   1 0.08310-0.09833 0.32178-0.68219 0.94315-0.72452
   1   4  -223078.85  853.15   1 0.77518-0.75834 0.37938-0.03324 0.50512-0.65100
  -1  -4   222227.20  752.49   1-0.78123 0.76426 0.09367-0.44025 0.61717-0.47124
   1   4  -221741.70  731.70   1 0.33747-0.32057 0.51873-0.17227 0.78550-0.93142
   1   4  -223266.41  816.51   1-0.18464 0.20176 0.55487-0.20845 0.81118-0.95699
  -1  -4   221847.01  760.50   1 0.21201-0.22918 0.18872-0.53512 0.95887-0.81309
   1   4  -176218.60 1625.13   1 0.79163-0.77276 0.25192 0.08038 0.55664-0.62958
  -1  -4   179967.74 1639.47   1-0.88915 0.87011-0.02368-0.30889 0.45699-0.38403
   1   4  -177096.78 1574.90   1-0.28009 0.29905 0.38395-0.05135 0.87984-0.95285
   1   4  -177155.47 1604.25   1 0.02609-0.00696 0.37627-0.04379 0.92613-0.99901
  -1  -4   177075.07 1601.69   1 0.36714-0.38621 0.00803-0.34043 0.93012-0.85728
   1   4   0 8526.44  756.22   1 0.79289-0.77201 0.10789 0.21050 0.59973-0.59973
  -1  -4   0 6530.11  275.31   1-0.93469 0.91370-0.09850-0.22025 0.34151-0.34151
   1   4   0 6684.27  268.00   1-0.63998 0.66089 0.20201 0.11668 0.74135-0.74135
   1   4   0 6955.97  300.87   1 0.25306-0.23200 0.14322 0.17529 0.95678-0.95678
  -1  -4   0 6925.60  294.19   1 0.51496-0.53601-0.19398-0.12451 0.83497-0.83497
   1   4   182192.07 1725.21   1 0.77439-0.75158-0.04720 0.35179 0.63094-0.55799
  -1  -4  -184691.52 1772.37   1-0.95530 0.93239-0.15106-0.15375 0.25411-0.32711
   1   4   181336.63 1688.58   1-0.79735 0.82033 0.07884 0.22591 0.59833-0.52536
   1   4   181114.76 1685.05   1 0.43866-0.41565-0.08523 0.38980 0.89459-0.82175
  -1  -4  -178346.50 1627.18   1 0.62157-0.64455-0.37357 0.06888 0.68853-0.76144
  -1  -4  -230093.01  681.02   1 0.57375-0.59862-0.54079 0.25014 0.61510-0.76097
  -1  -4  -232813.43  771.07   1-0.96436 0.93954-0.19212-0.09876 0.18188-0.32787
   1   4   236483.94  812.95   1-0.86574 0.89074 0.00638 0.28441 0.50043-0.35451
   1   4   230973.85  707.04   1 0.55719-0.53223-0.26020 0.55089 0.78856-0.64284
  -1  -4  -230300.82  681.96   1 0.68111-0.70608-0.50679 0.21595 0.52844-0.67438
   1   4   3201567.9 2013.94   1 0.68058-0.65378-0.34896 0.62576 0.64422-0.42542
  -1  -4  -3185750.5 1839.55   1 0.43739-0.46430-0.70754 0.43078 0.55503-0.77385
   1   4   410690.32  434.38   1 0.61742-0.58871-0.47142 0.73428 0.62971-0.33798
  -1  -4  -4 8984.71  361.59   1 0.27543-0.30433-0.84139 0.57859 0.46496-0.75671
  -1  -4  -411104.48  507.06   1-0.96459 0.93583-0.25669-0.00626 0.06048-0.35236
   1   4   4 9771.37  466.69   1 0.65728-0.62848-0.44872 0.71168 0.60549-0.31387
   1   4   5206087.9 3151.03   1 0.55613-0.52550-0.56614 0.81512 0.60843-0.24376
  -1  -4  -5190066.2 2885.96   1 0.10678-0.13753-0.92828 0.67927 0.35620-0.72087
  -1  -4  -5208893.5 3290.01   1-0.95880 0.92811-0.28399 0.03497 0.00578-0.37064
   1   4   6132829.1 2685.20   1 0.50343-0.47072-0.63454 0.86964 0.58643-0.14880
  -1  -4  -6119780.2 2404.94   1-0.05181 0.01911-0.96904 0.73390 0.24137-0.67898
  -1  -4  -6131861.6 2764.28   1-0.94989 0.91727-0.30907 0.07400-0.04650-0.39132
   1   4   6132934.2 2776.09   1 0.68543-0.65248-0.51926 0.75431 0.51043-0.07259
   1   4   721771.71 1296.82   1 0.46324-0.42860-0.68047 0.90168 0.56776-0.05719
  -1  -4  -719260.20 1223.99   1-0.93813 0.90357-0.33238 0.11126-0.09706-0.41373
   1   4   719724.65 1237.16   1 0.69019-0.65525-0.53396 0.75507 0.48837 0.02244
   1   4   881716.85 1722.08   1 0.43595-0.39937-0.70900 0.91632 0.55430 0.02920
  -1  -4  -887859.98 2680.24   1-0.92364 0.88724-0.35420 0.14722-0.14637-0.43718
   1   4   874235.60 1713.76   1 0.69226-0.65532-0.54072 0.74789 0.47790 0.10588
   1   4   948626.41  970.95   1 0.42069-0.38218-0.72410 0.91752 0.54653 0.10991
  -1  -4  -952867.57 1190.88   1-0.90648 0.86816-0.37468 0.18167-0.19466-0.46183
   1   4   953281.42 1262.97   1 0.69256-0.65363-0.54175 0.73497 0.47629 0.18046
   1   4  1068228.46 2096.89   1 0.41610-0.37566-0.72852 0.90805 0.54416 0.18522
  -1  -4 -1076412.25 3943.31   1-0.88664 0.84640-0.39396 0.21490-0.24218-0.48725
   1   4  1073857.04 2386.96   1 0.69156-0.65063-0.53840 0.71767 0.48152 0.24820
   1   4  1130749.40 1487.52   1 0.42085-0.37848-0.72393 0.88958 0.54661 0.25570
  -1  -4 -1134330.50 2103.05   1-0.86406 0.82190-0.41208 0.24699-0.28909-0.51329
   1   4  1133964.40 1718.06   1 0.68942-0.64651-0.53149 0.69683 0.49214 0.31056
  -1  -4 -12 1192.99  279.63   1-0.83885 0.79463-0.42891 0.27809-0.33520-0.53964
   1   4  12  776.64  367.18   1 0.68620-0.64129-0.52155 0.67294 0.50705 0.36862
  -1  -5  10 9680.40 1096.95   1-0.43604 0.45279-0.89570 0.35887-0.08701 0.81620
   1   5 -10 6146.21 1082.46   1-0.67909 0.66274 0.73401-0.19670-0.00725-0.72255
  -1  -5   930583.17 1263.54   1-0.48883 0.50376-0.86130 0.33817-0.13856 0.79489
   1   5  -933678.07 1363.91   1-0.65950 0.64510 0.74810-0.22467 0.07348-0.73031
  -1  -5   8 1739.27  444.53   1-0.53872 0.55168-0.82070 0.31147-0.19030 0.77371
   1   5  -8  403.76  243.59   1-0.63301 0.62061 0.75739-0.24774 0.16013-0.74394
  -1  -5   778124.00 2553.06   1-0.58607 0.59706-0.77326 0.27791-0.24202 0.75250
   1   5  -781169.77 2693.02   1-0.59786 0.58739 0.76028-0.26453 0.25401-0.76484
   1   5  -6 4771.94  444.07   1 0.63150-0.64006 0.71757-0.23599 0.29374-0.73118
  -1  -5   6 3084.79  159.25   1-0.84114 0.85012 0.03460-0.51661 0.53970-0.10191
  -1  -5   6 3429.21  176.45   1-0.43468 0.44359 0.31783-0.79970 0.84263-0.40458
   1   5  -6 3374.38  391.37   1-0.55102 0.54249 0.75437-0.27251 0.35677-0.79463
   1   5  -541713.00 1098.34   1 0.67269-0.67934 0.65451-0.18686 0.34509-0.70963
   1   5  -540120.83 1038.71   1-0.48847 0.48199 0.73554-0.26771 0.46942-0.83427
   1   5  -422532.81 1497.01   1 0.70991-0.71465 0.58247-0.12875 0.39589-0.68752
   1   5  -419299.50  904.10   1-0.40386 0.39923 0.69734-0.24344 0.59211-0.88393
  -1  -5   3 1410.97   66.16   1-0.91780 0.92053-0.36168-0.07862-0.16375 0.38266
  -1  -5   3 1385.27   70.61   1-0.96102 0.96372-0.17336-0.26688 0.21534 0.00363
   1   5  -3 1327.97  177.17   1-0.29120 0.28852 0.63055-0.19055 0.71944-0.93831
  -1  -5   3  943.31  107.75   1 0.19847-0.19577 0.20339-0.64336 0.95876-0.74010
   1   5  -2107379.7 1841.40   1 0.76902-0.77015 0.40839 0.01731 0.49174-0.63762
  -1  -5   2108533.2 1643.93   1-0.95658 0.95736-0.15548-0.27082 0.24651-0.10052
   1   5  -298104.08 1470.66   1 0.28703-0.28810 0.51529-0.08919 0.80751-0.95343
   1   5  -2105174.3 1660.39   1-0.14582 0.14502 0.52473-0.09867 0.83868-0.98449
  -1  -5   297700.39 1545.08   1 0.30185-0.30102 0.08740-0.51334 0.94933-0.80365
   1   5  -1 1647.37  276.44   1 0.78640-0.78549 0.30572 0.10617 0.53674-0.60968
  -1  -5   1 1606.60  121.63   1-0.96055 0.95942-0.17122-0.24115 0.21910-0.14611
   1   5  -1 1496.57  107.98   1-0.32089 0.32191 0.36793 0.04434 0.87272-0.94573
   1   5  -1 1536.15  186.70   1 0.02617-0.02496 0.37620 0.03590 0.92616-0.99904
   1   5   023698.12  897.78   1 0.79432-0.79141 0.19319 0.20480 0.57595-0.57595
  -1  -5   024751.90  886.34   1-0.96433 0.96128-0.19185-0.20659 0.18236-0.18236
   1   5   021558.99  757.57   1-0.63715 0.64008 0.20388 0.19448 0.74328-0.74328
   1   5   022637.94  824.71   1 0.20395-0.20081 0.19747 0.20067 0.95885-0.95885
  -1  -5   020745.14  744.61   1 0.52101-0.52414-0.20317-0.19495 0.82901-0.82901
   1   5   1  369.48  204.88   1 0.79025-0.78540 0.07357 0.31063 0.60834-0.53539
  -1  -5  -1  817.27  216.42   1-0.96646 0.96150-0.21375-0.17075 0.14230-0.21529
   1   5   1  431.88   80.06   1-0.78247 0.78751 0.09255 0.29188 0.61575-0.54279
   1   5   1  922.38  215.30   1 0.35967-0.35457 0.01738 0.36679 0.93291-0.86007
  -1  -5  -1  506.89  149.33   1 0.60555-0.61061-0.34327-0.04104 0.71795-0.79086
   1   5   210419.62  455.64   1 0.77408-0.76729-0.04892 0.41921 0.63119-0.48529
  -1  -5  -2 9823.21  390.47   1 0.61623-0.62319-0.47345 0.10319 0.62936-0.77522
  -1  -5  -210923.12  468.32   1-0.96654 0.95959-0.23576-0.13480 0.10103-0.24698
   1   5   2 9251.40  391.86   1-0.85101 0.85808 0.02363 0.34682 0.52461-0.37868
   1   5   2 9606.70  437.11   1 0.47609-0.46905-0.13697 0.50729 0.86866-0.72293
  -1  -5  -2 9161.43  368.88   1 0.66190-0.66891-0.45958 0.08916 0.59216-0.73797
   1   5   3  372.09  127.71   1 0.74628-0.73739-0.16844 0.52487 0.64395-0.42515
  -1  -5  -3  465.12  131.98   1 0.51436-0.52324-0.62124 0.26488 0.59117-0.80997
  -1  -5  -3  602.77  164.23   1-0.96446 0.95558-0.25761-0.09899 0.05868-0.27759
   1   5   3  369.16  186.56   1 0.55385-0.54486-0.25477 0.61118 0.79267-0.57409
   1   5   4109139.8 1741.50   1 0.71008-0.69927-0.27779 0.62032 0.64699-0.35525
   1   5   4105907.6 1726.59   1 0.60293-0.59205-0.33848 0.68108 0.72242-0.43080
   1   5   5 8512.26  423.92   1 0.66996-0.65724-0.37198 0.70061 0.64247-0.27779
  -1  -5  -510320.27  581.11   1-0.95357 0.94082-0.29992-0.02878-0.02718-0.33767
   1   5   5 9412.01  504.04   1 0.63282-0.62000-0.39590 0.72461 0.66542-0.30089
   1   5   672058.68 1373.77   1 0.63062-0.61599-0.44831 0.76300 0.63350-0.19590
  -1  -5  -672826.46 1504.86   1-0.94472 0.93003-0.32021 0.00545-0.07040-0.36741
   1   5   7124855.0 2774.81   1 0.59635-0.57980-0.50614 0.80695 0.62303-0.11249
  -1  -5  -7123909.7 3140.41   1-0.93357 0.91702-0.33985 0.03926-0.11372-0.39688
   1   5   853622.03  925.51   1 0.56950-0.55103-0.54702 0.83393 0.61353-0.03006
  -1  -5  -857387.72 2496.15   1-0.92009 0.90162-0.35882 0.07219-0.15709-0.42646
   1   5   854502.23 1104.63   1 0.66841-0.64942-0.47351 0.76035 0.57359 0.01019
   1   5   910383.71  623.94   1 0.55121-0.53082-0.57298 0.84601 0.60650 0.04990
   1   5   912454.08  862.05   1 0.67139-0.65041-0.48096 0.75387 0.56382 0.09294
   1   5  1010098.92  635.85   1 0.54166-0.51935-0.58598 0.84511 0.60267 0.12666
  -1  -5 -1012256.20 1429.90   1-0.88588 0.86357-0.39463 0.13591-0.24388-0.48556
   1   5  1013120.15  917.29   1 0.67212-0.64915-0.48282 0.74178 0.56135 0.16837
  -1  -5 -1175203.14 3023.90   1-0.86499 0.84076-0.41140 0.16664-0.28727-0.51511
   1   5  1171835.14 2745.18   1 0.67109-0.64612-0.48020 0.72521 0.56483 0.23787
   1   5  12 1180.18  554.35   1 0.66854-0.64157-0.47382 0.70489 0.57318 0.30249
  -1  -6   917143.77  921.88   1-0.50142 0.53435-0.85185 0.24909-0.15139 0.80772
   1   6  -910694.44 1647.04   1-0.64663 0.61436 0.75364-0.15040 0.11777-0.77455
  -1  -6   821961.64 1201.01   1-0.54836 0.57931-0.81182 0.22295-0.20060 0.78401
   1   6  -821882.96 1976.31   1-0.61562 0.58528 0.75984-0.17049 0.20889-0.79270
  -1  -6   734564.82 1215.65   1-0.59250 0.62149-0.76602 0.19105-0.24928 0.75976
   1   6  -732979.96 1775.32   1-0.57524 0.54682 0.75852-0.18307 0.30615-0.81698
   1   6  -644521.71 1615.21   1 0.63449-0.66099 0.71344-0.15226 0.29733-0.73477
   1   6  -639911.47 2036.49   1-0.52312 0.49678 0.74719-0.18580 0.40993-0.84774
   1   6  -529244.07 1538.33   1 0.67224-0.69684 0.65528-0.10803 0.34451-0.70904
   1   6  -526294.76 1308.47   1-0.45580 0.43142 0.72222-0.17474 0.52021-0.88506
   1   6  -4145088.9 2919.55   1-0.36949 0.34695 0.67863-0.14507 0.63477-0.92659
   1   6  -311512.82 1375.50   1 0.73667-0.75775 0.51884 0.00036 0.43372-0.65253
   1   6  -3 9647.97  613.23   1-0.26174 0.24116 0.61072-0.09107 0.74733-0.96620
   1   6  -246867.76 1032.45   1 0.76117-0.78027 0.44031 0.06497 0.47617-0.62204
  -1  -6   243041.42  772.68   1-0.93020 0.94894-0.34498-0.16106-0.12528 0.27122
   1   6  -244261.27  777.81   1 0.30437-0.32342 0.51665-0.01090 0.80026-0.94618
   1   6  -245743.90  913.61   1-0.13209 0.11337 0.51375-0.00806 0.84770-0.99351
   1   6  -135756.95 1475.68   1 0.77965-0.79678 0.35513 0.13624 0.51576-0.58870
  -1  -6   133794.67 1342.57   1-0.95895 0.97575-0.28347-0.20863 0.00686 0.06611
   1   6  -131676.49 1239.78   1-0.31438 0.29744 0.37055 0.12138 0.87398-0.94699
   1   6  -133109.83 1329.42   1 0.01287-0.02958 0.38853 0.10320 0.92134-0.99421
   1   6   026503.88 1111.14   1 0.79069-0.80574 0.26395 0.21364 0.55238-0.55238
  -1  -6   029156.50 1195.33   1-0.96241 0.97728-0.26922-0.20892 0.03564-0.03564
   1   6   024291.48  967.30   1-0.61215 0.59711 0.22000 0.25803 0.75952-0.75952
   1   6   025036.84 1033.92   1 0.16009-0.17487 0.24406 0.23370 0.95645-0.95645
   1   6   169741.75 1686.06   1 0.79454-0.80759 0.16834 0.29533 0.58339-0.51045
  -1  -6  -173034.60 1553.95   1-0.96222 0.97515-0.27013-0.19406 0.03382-0.10679
   1   6   164619.65 1334.63   1-0.75596 0.74306 0.11565 0.34845 0.64430-0.57134
   1   6   167502.14 1428.58   1 0.29402-0.30686 0.09659 0.36721 0.95090-0.87806
   1   6   2  512.08  189.44   1 0.79003-0.80120 0.07088 0.37901 0.60894-0.46305
  -1  -6  -2 1093.64  192.39   1-0.96038 0.97137-0.27811-0.17213 0.01774-0.16369
   1   6   2  383.58   89.31   1-0.82857 0.81767 0.04798 0.40219 0.55781-0.41188
   1   6   2  595.17  152.56   1 0.40294-0.41380-0.03772 0.48761 0.91444-0.76876
   1   6   393294.93 1936.77   1 0.77812-0.78736-0.02551 0.46149 0.62758-0.40874
  -1  -6  -3100279.3 2144.27   1-0.95704 0.96610-0.28987-0.14642-0.00629-0.21261
   1   6   392769.21 1938.26   1 0.48464-0.49357-0.14924 0.58527 0.86188-0.64330
   1   6   4  383.86  161.91   1 0.75972-0.76703-0.11708 0.53914 0.63962-0.34783
  -1  -6  -4  631.41  324.80   1-0.95208 0.95921-0.30377-0.11857-0.03527-0.25660
   1   6   4  505.37  355.83   1 0.54218-0.54915-0.23607 0.65820 0.80641-0.51497
   1   6   511074.97  563.64   1 0.73680-0.74199-0.20040 0.60865 0.64572-0.28104
  -1  -6  -511401.49  716.26   1-0.94538 0.95057-0.31888-0.08951-0.06753-0.29731
   1   6   511487.97  655.49   1 0.58157-0.58667-0.30061 0.70896 0.75590-0.39137
   1   6   612129.62  778.61   1 0.71222-0.71550-0.27212 0.66647 0.64705-0.20944
  -1  -6  -610399.03  752.29   1-0.93679 0.94005-0.33464-0.05980-0.10208-0.33574
   1   6   611093.60  785.75   1 0.60774-0.61090-0.34733 0.74177 0.71414-0.27671
   1   6   7 2562.39  265.71   1 0.68861-0.68996-0.33073 0.71118 0.64531-0.13476
  -1  -6  -7 3356.99  433.78   1-0.92623 0.92761-0.35067-0.02958-0.13825-0.37235
   1   6   7 3356.98  429.13   1 0.62490-0.62612-0.38007 0.76061 0.68193-0.17159
   1   6   8  355.81  213.91   1 0.66827-0.66771-0.37554 0.74210 0.64216-0.05868
  -1  -6  -8  366.87  262.86   1-0.91358 0.91304-0.36674 0.00045-0.17569-0.40786
   1   6   929395.52  991.79   1 0.65272-0.65025-0.40688 0.75951 0.63905 0.01735
  -1  -6  -927450.95 1352.90   1-0.89874 0.89628-0.38266 0.03032-0.21406-0.44243
   1   6   930362.59 1221.77   1 0.64239-0.63972-0.41578 0.76850 0.64378 0.01236
   1   6  10  747.66  158.01   1 0.64334-0.63894-0.42492 0.76366 0.63682 0.09251
  -1  -6 -10  623.26  279.19   1-0.88163 0.87725-0.39828 0.05991-0.25317-0.47627
   1   6  10 1000.23  474.69   1 0.64573-0.64112-0.42292 0.76174 0.63573 0.09331
  -1  -6 -11 2007.90  482.01   1-0.86212 0.85582-0.41350 0.08908-0.29285-0.50953
   1   6  11 1571.81  557.26   1 0.64658-0.64003-0.42477 0.74968 0.63363 0.16832
  -1  -7   840730.32 1764.79   1-0.55141 0.60036-0.80893 0.14044-0.20389 0.78729
   1   7  -838563.28 1601.24   1-0.60199 0.55369 0.76034-0.09129 0.24388-0.82769
   1   7  -7 6242.12  850.35   1-0.55815 0.51179 0.75581-0.10065 0.34235-0.85319
   1   7  -651675.83 1517.52   1 0.63238-0.67684 0.71636-0.07558 0.29480-0.73223
   1   7  -646320.15 2021.48   1-0.50311 0.45889 0.74080-0.09975 0.44505-0.88287
   1   7  -517907.07 1574.53   1 0.66763-0.71018 0.66305-0.03620 0.33855-0.70308
   1   7  -515594.07 1400.24   1-0.43438 0.39211 0.71245-0.08530 0.55110-0.91595
   1   7  -432581.61 2331.82   1 0.69935-0.73999 0.60480 0.00812 0.38093-0.67255
   1   7  -429966.75 1015.02   1-0.34983 0.30938 0.66723-0.05402 0.65757-0.94940
   1   7  -396498.02 1793.94   1 0.72803-0.76709 0.54167 0.05710 0.42017-0.63898
   1   7  -397250.00 1514.52   1-0.24881 0.21020 0.60175-0.00248 0.75893-0.97765
   1   7  -217530.70 1236.46   1 0.75164-0.78871 0.47387 0.11098 0.45877-0.60465
  -1  -7   216940.08  869.89   1-0.71295 0.74941-0.48302-0.10250-0.50831 0.65411
   1   7  -218703.12 1050.77   1-0.13318 0.09654 0.51463 0.07069 0.84700-0.99281
   1   7  -1192133.9 4500.34   1 0.77050-0.80560 0.40179 0.16915 0.49485-0.56779
  -1  -7   1178377.9 3865.87   1-0.91056 0.94523-0.37020-0.20137-0.18391 0.25685
   1   7  -1174224.7 3746.69   1-0.27050 0.23561 0.38757 0.18404 0.88125-0.95426
   1   7  -1199132.2 4357.65   1-0.00774-0.02687 0.40739 0.16398 0.91321-0.98609
   1   7   0 9001.19 1035.34   1 0.78371-0.81673 0.32601 0.23118 0.52867-0.52867
  -1  -7   0 7138.35  482.94   1-0.93660 0.96941-0.33496-0.22287-0.10279 0.10279
   1   7   0 6901.72  424.65   1-0.56918 0.53617 0.24614 0.31156 0.78450-0.78450
   1   7   0 7413.31  517.72   1 0.11860-0.15130 0.28661 0.27078 0.95067-0.95067
   1   7   1179917.2 3400.84   1 0.79192-0.82293 0.24769 0.29559 0.55811-0.48518
  -1  -7  -1181791.1 3281.39   1-0.94408 0.97495-0.32148-0.22240-0.07317 0.00020
   1   7   1154205.1 2715.50   1-0.71874 0.68790 0.14567 0.39811 0.67983-0.60687
   1   7   1175203.3 3125.16   1 0.23599-0.26674 0.16234 0.38112 0.95809-0.88520
   1   7   2105698.1 1993.31   1 0.79454-0.82355 0.16834 0.36102 0.58339-0.43751
  -1  -7  -2111052.2 2117.66   1-0.94538 0.97432-0.31888-0.21106-0.06752-0.07841
   1   7   2101664.7 1896.10   1 0.33710-0.36588 0.04518 0.48433 0.94038-0.79470
   1   7   326296.18 1555.59   1 0.79180-0.81879 0.08989 0.42556 0.60412-0.38530
  -1  -7  -328002.33 1666.60   1-0.94355 0.97055-0.32252-0.19347-0.07541-0.14349
   1   7   326518.18 1556.38   1 0.41812-0.44493-0.05767 0.57327 0.90655-0.68803
   1   7   490358.90 2062.78   1 0.78405-0.80931 0.01490 0.48677 0.62051-0.32873
  -1  -7  -494569.63 2243.77   1-0.93949 0.96456-0.33001-0.17202-0.09182-0.20005
   1   7   491834.07 2121.90   1 0.48013-0.50503-0.14276 0.64452 0.86549-0.57404
   1   7   564973.46 1429.28   1 0.77298-0.79632-0.05485 0.54260 0.63204-0.26731
  -1  -7  -563465.62 1966.29   1-0.93352 0.95667-0.33994-0.14788-0.11392-0.25079
   1   7   564906.69 1471.55   1 0.52568-0.54862-0.21032 0.69817 0.82427-0.45996
   1   7   610745.50  575.89   1 0.75975-0.78116-0.11695 0.59077 0.63960-0.20192
  -1  -7  -612225.15  975.47   1-0.92562 0.94685-0.35151-0.12235-0.14019-0.29746
   1   7   612286.73  741.76   1 0.55840-0.57939-0.26218 0.73613 0.78704-0.34987
   1   7   722747.07  557.07   1 0.74591-0.76518-0.16974 0.62981 0.64404-0.13349
  -1  -7  -725203.42 2284.60   1-0.91580 0.93512-0.36411-0.09579-0.16947-0.34113
   1   7   721055.52  654.14   1 0.58158-0.60072-0.30063 0.76081 0.75589-0.24555
   1   7   871934.23 2213.47   1 0.73328-0.75063-0.21156 0.65773 0.64617-0.06269
  -1  -7  -874616.51 2422.98   1-0.90399 0.92139-0.37732-0.06863-0.20103-0.38252
   1   7   871943.46 2303.93   1 0.59741-0.61461-0.32848 0.77475 0.73156-0.14832
   1   7   9 2448.84  393.75   1 0.72319-0.73863-0.24176 0.67404 0.64694 0.00947
  -1  -7  -9 3001.44  651.25   1-0.89011 0.90559-0.39084-0.04114-0.23435-0.42213
  -1  -7 -10   51.13  231.00   1-0.87407 0.88762-0.40446-0.01356-0.26908-0.46036
   1   7  10  502.67  391.65   1 0.61429-0.62761-0.35960 0.77806 0.70236 0.02668
  -1  -7 -11 4504.42  618.21   1-0.85574 0.86737-0.41799 0.01392-0.30493-0.49745
   1   7  11 5598.32  576.07   1 0.61751-0.62888-0.36573 0.77028 0.69635 0.10560
  -1  -8   7 1727.44  391.20   1-0.58892 0.65390-0.77007 0.03584-0.24524 0.75572
   1   8  -7  933.24  196.43   1-0.54712 0.48305 0.75346-0.01885 0.36460-0.87538
   1   8  -6 6415.74  661.35   1 0.62632-0.68873 0.72458-0.00419 0.28756-0.72499
   1   8  -6 3770.10  682.98   1-0.49091 0.42879 0.73645-0.01573 0.46545-0.90326
   1   8  -521023.90 1714.05   1-0.42281 0.36264 0.70685-0.00004 0.56708-0.93192
   1   8  -4 6436.41  685.02   1 0.68989-0.74848 0.62344 0.06908 0.36792-0.65954
   1   8  -4 5346.90  451.93   1-0.34168 0.28332 0.66237 0.03049 0.66671-0.95853
   1   8  -349965.74 1738.19   1 0.71655-0.77324 0.56748 0.11110 0.40558-0.62430
   1   8  -346921.79 1543.28   1-0.24794 0.19141 0.60114 0.07776 0.75970-0.97842
   1   8  -2 7664.57  918.50   1 0.74038-0.79543 0.50839 0.15604 0.43972-0.58560
   1   8  -2 6181.89  397.03   1-0.14379 0.08923 0.52311 0.14185 0.84004-0.98585
   1   8  -1108662.1 3444.02   1 0.75951-0.81258 0.44651 0.20400 0.47303-0.54597
  -1  -8   1101797.9 3076.58   1-0.82207 0.87452-0.43864-0.21254-0.36302 0.43592
   1   8  -1110159.9 3398.57   1-0.03302-0.01951 0.43003 0.22097 0.90220-0.97508
   1   8   016469.87 1151.47   1 0.77456-0.82566 0.38252 0.25408 0.50371-0.50371
  -1  -8   015516.93  767.02   1-0.88950 0.94019-0.39140-0.24587-0.23575 0.23575
   1   8   013206.91  626.71   1-0.50862 0.45764 0.28005 0.35733 0.81417-0.81417
   1   8   015416.00  776.44   1 0.07804-0.12864 0.32673 0.31031 0.94188-0.94188
   1   8   113693.34 1332.47   1 0.78495-0.83393 0.31702 0.30586 0.53229-0.45935
  -1  -8  -112248.68  998.99   1-0.91229 0.96105-0.36823-0.25508-0.17923 0.10628
   1   8   112141.73  672.83   1 0.18303-0.23169 0.21991 0.40317 0.95819-0.88530
   1   8   2152970.7 2329.80   1 0.79166-0.83863 0.25143 0.35752 0.55681-0.41093
  -1  -8  -2154776.6 2366.67   1-0.92093 0.96778-0.35774-0.25162-0.15457 0.00868
   1   8   2150127.8 2239.22   1 0.27632-0.32304 0.11671 0.49244 0.95395-0.80817
   1   8   3 5991.17  763.39   1 0.79443-0.83938 0.18699 0.40806 0.57785-0.35903
  -1  -8  -3 6230.27  838.62   1-0.92312 0.96805-0.35488-0.24051-0.14796-0.07087
   1   8   3 4777.04  409.32   1 0.35515-0.39988 0.02299 0.57221 0.93452-0.71600
   1   8   4112027.6 1763.76   1 0.79368-0.83663 0.12518 0.45595 0.59531-0.30355
  -1  -8  -4113860.8 1902.17   1-0.92151 0.96452-0.35699-0.22445-0.15283-0.13894
   1   8   4109873.6 1765.93   1 0.41855-0.46130-0.05824 0.63954 0.90632-0.61495
   1   8   548870.77 1601.98   1 0.78979-0.83107 0.06801 0.49935 0.60959-0.24485
  -1  -8  -552114.49 2494.13   1-0.91718 0.95827-0.36244-0.20504-0.16555-0.19917
   1   8   551005.83 1699.49   1 0.46811-0.50897-0.12567 0.69315 0.87468-0.51037
   1   8   630736.03  719.96   1 0.78425-0.82360 0.01647 0.53697 0.62022-0.18254
  -1  -8  -635204.04 1556.33   1-0.91056 0.94973-0.37020-0.18332-0.18390-0.25376
   1   8   633664.61  899.50   1 0.50564-0.54455-0.18001 0.73358 0.84374-0.40657
   1   8   737274.75 1225.81   1 0.77777-0.81520-0.02764 0.56716 0.62793-0.11730
  -1  -8  -742221.05 2106.06   1-0.90183 0.93908-0.37955-0.16001-0.20645-0.30415
   1   8   739084.36 1367.42   1 0.53355-0.57051-0.22251 0.76217 0.81596-0.30593
   1   8   8 2900.12  468.47   1 0.77144-0.80694-0.06294 0.58854 0.63317-0.04960
  -1  -8  -8 2632.06  547.04   1-0.89105 0.92637-0.38999-0.13561-0.23223-0.35132
   1   8   8 2025.94  485.64   1 0.55385-0.58885-0.25477 0.78053 0.79267-0.20978
   1   8   921821.64 1086.78   1 0.76628-0.79985-0.08819 0.59985 0.63642 0.02009
  -1  -8  -922476.98 2777.89   1-0.87817 0.91158-0.40115-0.11049-0.26052-0.39597
   1   8   923769.68 1336.59   1 0.56818-0.60123-0.27836 0.79021 0.77439-0.11863
  -1  -8 -10 6970.77 1055.82   1-0.86316 0.89465-0.41274-0.08495-0.29083-0.43860
   1   8  10 8865.40  607.70   1 0.57789-0.60913-0.29430 0.79241 0.76119-0.03213
   1   9  -6 1926.36  445.29   1-0.48579 0.40578 0.73452 0.06584 0.47378-0.91159
   1   9  -5  586.40  447.31   1 0.64906-0.72751 0.69239 0.09366 0.31514-0.67967
   1   9  -5  820.88  219.95   1-0.41953 0.34146 0.70522 0.08123 0.57153-0.93637
   1   9  -4 4436.31  554.44   1 0.67807-0.75461 0.64514 0.12698 0.35213-0.64376
   1   9  -4 5038.10  470.49   1-0.34248 0.26620 0.66285 0.10966 0.66583-0.95765
   1   9  -3  236.84  143.76   1 0.70393-0.77856 0.59534 0.16284 0.38735-0.60607
   1   9  -3  548.60  242.00   1-0.25581 0.18149 0.60662 0.15198 0.75270-0.97157
   1   9  -222154.34 1678.71   1 0.72733-0.80036 0.54344 0.20056 0.41909-0.56497
   1   9  -223741.05  827.22   1-0.16096 0.08849 0.53664 0.20795 0.82831-0.97412
   1   9  -1 1768.69  328.17   1 0.74664-0.81769 0.48977 0.24032 0.45015-0.52309
   1   9  -1 1767.14  216.60   1-0.06159-0.00886 0.45501 0.27561 0.88834-0.96122
   1   9   060558.01 2646.63   1 0.76257-0.83163 0.43496 0.28122 0.47884-0.47884
  -1  -9   058409.84 1887.81   1-0.81966 0.88810-0.43996-0.27690-0.36686 0.36686
   1   9   061247.87 1978.08   1 0.03787-0.10638 0.36523 0.35144 0.93014-0.93014
   1   9   1 3658.49  531.93   1 0.77511-0.84221 0.37973 0.32253 0.50496-0.43202
  -1  -9  -1 2909.38  394.10   1-0.86567 0.93237-0.41090-0.29207-0.28595 0.21301
   1   9   1 4016.55  378.24   1 0.13298-0.19956 0.27204 0.43068 0.95305-0.88016
   1   9   251226.08 1933.78   1 0.78391-0.84884 0.32459 0.36397 0.52925-0.38337
  -1  -9  -250545.75 1684.46   1-0.88586 0.95064-0.39464-0.29437-0.24391 0.09802
   1   9   250373.17 1688.00   1 0.21951-0.28415 0.18053 0.50824 0.95876-0.81298
   1   9   3  316.23  211.91   1 0.79007-0.85299 0.27111 0.40354 0.54979-0.33097
  -1  -9  -3 1438.21  343.18   1-0.89463 0.95749-0.38665-0.28841-0.22390 0.00507
   1   9   3 1637.97  385.93   1 0.29516-0.35781 0.09526 0.57957 0.95068-0.73216
   1   9   438555.92 1414.18   1 0.79346-0.85438 0.22021 0.44052 0.56737-0.27561
  -1  -9  -446181.06 2652.58   1-0.89713 0.95807-0.38424-0.27685-0.21796-0.07381
   1   9   440865.08 1411.32   1 0.35844-0.41912 0.01891 0.64201 0.93335-0.64199
   1   9   5 8673.47 1139.82   1 0.79454-0.85345 0.17313 0.47370 0.58199-0.21730
  -1  -9  -5 9104.42  936.63   1-0.89556 0.95458-0.38576-0.26138-0.22171-0.14301
   1   9   5 7959.48  444.60   1 0.40994-0.46864-0.04688 0.69389 0.91090-0.54669
   1   9   6 2945.30  418.53   1 0.79389-0.85079 0.13114 0.50177 0.59374-0.15610
  -1  -9  -6 2426.60  421.22   1-0.89094 0.94804-0.39009-0.24309-0.23246-0.20519
   1   9   6 3171.22  409.56   1 0.45091-0.50774-0.10169 0.73489 0.88675-0.44958
   1   9   761436.85 2115.30   1 0.79217-0.84707 0.09558 0.52342 0.60275-0.09218
  -1  -9  -767062.96 2823.47   1-0.88378 0.93896-0.39645-0.22278-0.24849-0.26211
   1   9   764781.92 2294.82   1 0.48261-0.53748-0.14631 0.76560 0.86352-0.35349
   1   9   8 6656.26  497.18   1 0.78982-0.84327 0.06835 0.53686 0.60951-0.02594
  -1  -9  -8 5726.99  762.25   1-0.87431 0.92757-0.40427-0.20099-0.26858-0.31496
   1   9   8 7055.16  601.91   1 0.50668-0.55961-0.18156 0.78694 0.84279-0.25990
   1   9   914106.52  880.32   1 0.52451-0.57548-0.20852 0.80000 0.82546-0.16971
   1  10  -4 1417.30  491.09   1 0.66400-0.75849 0.66902 0.18270 0.33391-0.62553
   1  10  -4  450.72  141.49   1-0.35033 0.25614 0.66753 0.18464 0.65701-0.94883
   1  10  -3 9584.25 1002.50   1 0.68929-0.78187 0.62457 0.21321 0.36711-0.58583
   1  10  -3 8515.75  640.58   1-0.26985 0.17762 0.61626 0.22200 0.73986-0.95873
   1  10  -2 2239.72  426.41   1 0.71164-0.80231 0.57865 0.24520 0.39839-0.54420
   1  10  -2 1196.09  253.28   1-0.18299 0.09260 0.55362 0.27061 0.81241-0.95822
   1  10  -1 7517.15 1255.54   1 0.73184-0.82085 0.53186 0.27781 0.42606-0.49900
   1  10  -1 8213.69  739.15   1-0.09285 0.00443 0.48153 0.32876 0.87149-0.94440
   1  10   0  358.36  182.63   1 0.74834-0.83538 0.48449 0.31126 0.45304-0.45304
   1  10   0  912.25  329.97   1-0.00244-0.08398 0.40257 0.39372 0.91538-0.91538
   1  10   1 2432.48  449.59   1 0.76196-0.84703 0.43729 0.34455 0.47768-0.40474
   1  10   1 2050.45  376.50   1 0.08455-0.16904 0.32037 0.46197 0.94351-0.87063
   1  10   2  -90.19  205.85   1 0.77283-0.85592 0.39098 0.37695 0.49986-0.35398
  -1 -10  -2  180.31  118.10   1-0.83853 0.92125-0.42915-0.33952-0.33567 0.18978
   1  10   2   41.93  232.43   1 0.16525-0.24781 0.23867 0.52973 0.95693-0.81115
   1  10   315101.08 1138.06   1 0.78112-0.86223 0.34639 0.40762 0.51948-0.30066
  -1 -10  -313469.29 1816.18   1-0.85678 0.93757-0.41727-0.33744-0.30298 0.08415
   1  10   315198.29  888.32   1 0.23727-0.31788 0.16091 0.59355 0.95802-0.73935
   1  10   4  400.29  274.39   1 0.78663-0.86551 0.30386 0.43647 0.53747-0.24571
  -1 -10  -4  561.68  281.31   1-0.86525 0.94412-0.41121-0.32955-0.28678-0.00499
   1  10   4  802.12  392.61   1 0.29974-0.37834 0.08989 0.65065 0.94977-0.65841
   1  10   515485.47  894.14   1 0.79057-0.86744 0.26543 0.46099 0.55184-0.18715
  -1 -10  -515272.96 1991.95   1-0.86770 0.94466-0.40938-0.31742-0.28193-0.08278
   1  10   514394.13 1020.09   1 0.35207-0.42869 0.02681 0.69981 0.93558-0.57138
   1  10   6 2587.04  480.30   1 0.79290-0.86776 0.23176 0.48075 0.56355-0.12591
  -1 -10  -6 1928.29  489.66   1-0.86597 0.94100-0.41067-0.30217-0.28536-0.15230
   1  10   6 1137.08  464.88   1 0.39502-0.46967-0.02744 0.74016 0.91826-0.48121
   1  10   7 5048.69  842.32   1 0.79405-0.86691 0.20402 0.49458 0.57257-0.06200
  -1 -10  -7 5099.54  676.50   1-0.86098 0.93410-0.41431-0.28457-0.29503-0.21557
   1  10   7 4788.91  616.48   1 0.42953-0.50221-0.07289 0.77169 0.90010-0.39021
  -1 -10  -8 9504.06 1436.81   1-0.85324 0.92443-0.41970-0.26522-0.30956-0.27399
   1  10   8 9062.10 1059.47   1 0.45676-0.52760-0.10978 0.79479 0.88278-0.29989
   1  11  -217338.57 2713.32   1 0.69475-0.80338 0.61401 0.28945 0.37456-0.52038
   1  11  -218245.94 1633.00   1-0.20885 0.10054 0.57300 0.33086 0.79249-0.93830
   1  11  -1 1431.84  335.16   1 0.71424-0.82095 0.57280 0.31673 0.40218-0.47508
   1  11  -1  828.85  245.35   1-0.12618 0.01984 0.50898 0.38094 0.85147-0.92438
   1  11   019471.35 2307.19   1 0.73187-0.83688 0.53177 0.34356 0.42611-0.42611
   1  11   022499.78 1008.89   1-0.04323-0.06112 0.43903 0.43690 0.89742-0.89742
   1  11   1  539.35  271.94   1 0.74619-0.84923 0.49116 0.37025 0.44938-0.37644
   1  11   1  268.24  257.80   1 0.03712-0.13952 0.36594 0.49603 0.92989-0.85701
   1  11   232940.54 1080.24   1 0.75807-0.85913 0.45177 0.39573 0.47035-0.32447
   1  11   230325.89  945.82   1 0.11255-0.21301 0.29260 0.55540 0.94958-0.80383
   1  11   3 3905.49  587.11   1 0.76765-0.86674 0.41431 0.41928 0.48892-0.27010
  -1 -11  -3 3757.50  740.22   1-0.80795 0.90647-0.44607-0.38814-0.38500 0.16629
   1  11   3 3552.68  422.39   1 0.18128-0.27981 0.22177 0.61232 0.95809-0.73942
   1  11   4 5552.86  744.69   1 0.77514-0.87225 0.37958 0.44009 0.50503-0.21327
  -1 -11  -4 5350.39  837.41   1-0.82468 0.92128-0.43719-0.38304-0.35881 0.06719
   1  11   4 6574.39  680.92   1 0.24201-0.33859 0.15563 0.66452 0.95771-0.66615
   1  11   5  239.88  141.17   1 0.78077-0.87590 0.34849 0.45727 0.51859-0.15389
  -1 -11  -5  528.51  193.86   1-0.83270 0.92737-0.43260-0.37365-0.34562-0.01889
   1  11   5 1047.66  311.00   1 0.29456-0.38911 0.09597 0.71027 0.95080-0.58659
   1  11   6 1413.17  358.07   1 0.78439-0.87723 0.32114 0.47097 0.53064-0.09301
  -1 -11  -6 2243.53  538.48   1-0.83491 0.92766-0.43129-0.36098-0.34190-0.09551
   1  11   6 2151.87  513.70   1 0.33869-0.43127 0.04324 0.74909 0.93990-0.50285
   2 -10  -612440.27 1658.33   1-0.60957 0.96310-0.50626-0.20681-0.61001 0.17220
  -2  10   615321.57 1704.04   1 0.26900-0.62197 0.12511 0.58753 0.95497-0.51763
   2 -10  -5 1059.03  225.72   1-0.58346 0.93892-0.51008-0.21694-0.63196 0.26711
  -2  10   5 1944.91  405.47   1 0.22751-0.58242 0.17172 0.55485 0.95851-0.59406
  -2  10   444051.55 1347.85   1 0.64202-0.99918 0.70276 0.03751 0.30647-0.01485
   2 -10  -440712.73 1181.84   1-0.54299 0.90038-0.51469-0.22628-0.66350 0.37163
  -2  10   438303.06 1208.26   1 0.17996-0.53681 0.22317 0.51735 0.95802-0.66646
  -2  10   3 3461.02  540.55   1 0.63665-0.99573 0.71041 0.04379 0.29995-0.08123
  -2  10   3 1281.78  194.58   1 0.48196-0.84141 0.51957 0.23497 0.70551-0.48663
  -2  10   3 2388.16  393.44   1 0.12661-0.48541 0.27852 0.47594 0.95204-0.73337
  -2  10   2  851.25  302.41   1 0.62765-0.98863 0.72280 0.04533 0.28913-0.14332
  -2  10   2 2462.16  494.40   1 0.06801-0.42876 0.33646 0.43191 0.93923-0.79348
  -2  10   134681.79 1135.18   1 0.00527-0.36796 0.39552 0.38681 0.91843-0.84556
   2 -10   013442.70  659.18   1-0.60002 0.96539-0.75727-0.03898-0.25786 0.25786
  -2  10   011387.58  557.18   1-0.06039-0.30423 0.45398 0.34232 0.88896-0.88896
   2 -10   133790.80 1560.64   1-0.58251 0.94984-0.77718-0.03296-0.23804 0.31096
  -2  10  -132826.02 1424.05   1-0.12762-0.23898 0.51015 0.30014 0.85056-0.92346
   2 -10   212166.72 1422.78   1-0.56257 0.93187-0.79803-0.02600-0.21600 0.36185
  -2  10  -210078.60 1135.30   1-0.19473-0.17385 0.56249 0.26173 0.80353-0.94935
   2  -9  -8  477.84  168.86   1-0.66204 0.99377-0.49629-0.10921-0.56159-0.02214
  -2   9   8  313.90  401.82   1 0.38039-0.71137-0.00869 0.61395 0.92478-0.34205
   2  -9  -7  -50.32  282.16   1-0.65730 0.99096-0.49733-0.12212-0.56622 0.05544
  -2   9   7  663.12  379.29   1 0.35153-0.68448 0.02748 0.59169 0.93577-0.42588
   2  -9  -6 2721.18  606.82   1-0.64556 0.98114-0.49978-0.13362-0.57746 0.13965
  -2   9   6 1397.35  358.38   1 0.31632-0.65124 0.07024 0.56284 0.94604-0.50900
  -2   9   5 1831.30  221.31   1 0.66180-0.99910 0.67259-0.02584 0.33110 0.03342
   2  -9  -5 1902.07  320.25   1-0.62456 0.96206-0.50374-0.14361-0.59679 0.23195
  -2   9   4 1646.23  339.43   1 0.65998-0.99919 0.67550-0.01482 0.32880-0.03717
   2  -9  -4 1655.03  309.33   1-0.59073 0.93016-0.50909-0.15221-0.62598 0.33411
  -2   9   4 1932.37  427.85   1 0.22520-0.56414 0.17427 0.48662 0.95859-0.66703
  -2   9   389577.67 2360.11   1 0.65359-0.99471 0.68550-0.01089 0.32077-0.10205
   2  -9  -387591.01 2193.41   1-0.53812 0.87947-0.51515-0.16010-0.66711 0.44820
  -2   9   385930.69 2255.30   1 0.16940-0.51028 0.23432 0.44051 0.95728-0.73861
  -2   9   2 4934.75  703.56   1 0.64358-0.98662 0.70048-0.01194 0.30839-0.16258
  -2   9   2 5613.88  376.96   1 0.45690-0.80033 0.52047 0.16839 0.72134-0.57542
  -2   9   2 4155.83  620.29   1 0.10734-0.45017 0.29781 0.39093 0.94856-0.80281
  -2   9   125751.37  912.52   1 0.63050-0.97544 0.71895-0.01647 0.29254-0.21963
  -2   9   124117.60 1565.45   1 0.04030-0.38507 0.36294 0.33977 0.93093-0.85806
  -2   9   017656.06 1048.04   1-0.03024-0.31647 0.42757 0.28910 0.90347-0.90347
   2  -9   111758.03  964.75   1-0.59558 0.94492-0.76247 0.03195-0.25279 0.32571
  -2   9  -110396.05  747.42   1-0.10256-0.24613 0.48962 0.24103 0.86588-0.93878
   2  -9   235515.30 1801.65   1-0.57471 0.92602-0.78555 0.04113-0.22936 0.37521
  -2   9  -233719.28 1708.08   1-0.17461-0.17605 0.54721 0.19738 0.81857-0.96438
   2  -9   312058.46  630.97   1-0.55153 0.90481-0.80881 0.05051-0.20402 0.42280
  -2   9  -311469.67  610.57   1-0.24471-0.10792 0.59887 0.15966 0.76253-0.98125
   2  -9   412888.06  860.32   1-0.52611 0.88135-0.83179 0.05960-0.17698 0.46868
  -2   9  -412580.56  804.35   1-0.31160-0.04292 0.64375 0.12876 0.69892-0.99074
  -2   8   9 9608.16  656.97   1 0.44721-0.75829-0.09690 0.60862 0.88916-0.23359
   2  -8  -8 5077.14  896.51   1-0.68460 0.99837-0.49094-0.03487-0.53878-0.04496
  -2   8   8 4773.85  813.27   1 0.42569-0.73874-0.06775 0.59339 0.90232-0.31960
   2  -8  -7 5676.67  771.34   1-0.68267 0.99838-0.49143-0.04834-0.54078 0.03000
  -2   8   7 5452.50  506.14   1 0.39803-0.71306-0.03134 0.57090 0.91683-0.40694
  -2   8   617989.41  990.23   1 0.67329-0.99073 0.65348-0.10026 0.34587 0.09156
   2  -8  -619767.29 1503.37   1-0.67430 0.99193-0.49347-0.06025-0.54935 0.11154
  -2   8   619028.89 1168.60   1 0.36345-0.68045 0.01266 0.54080 0.93152-0.49447
  -2   8   5 6175.63  407.66   1 0.67741-0.99677 0.64630-0.07915 0.35127 0.01325
   2  -8  -5 4774.97  759.69   1-0.65746 0.97701-0.49729-0.07037-0.56607 0.20123
  -2   8   5 4605.97  392.30   1 0.32123-0.64020 0.06436 0.50302 0.94481-0.58060
  -2   8   443077.25 1674.33   1 0.67470-0.99597 0.65104-0.06996 0.34771-0.05609
   2  -8  -438166.05 1358.89   1-0.62889 0.95037-0.50296-0.07866-0.59288 0.30101
  -2   8   3  931.78  170.55   1 0.66729-0.99047 0.66361-0.06859 0.33812-0.11940
   2  -8  -3  582.57  227.67   1-0.58318 0.90658-0.51012-0.08545-0.63219 0.41328
  -2   8   3  814.82  422.48   1 0.21235-0.53532 0.18835 0.40685 0.95886-0.74019
  -2   8   2  280.90  240.13   1 0.65622-0.98131 0.68142-0.07248 0.32407-0.17825
   2  -8  -2  300.47  135.91   1-0.51085 0.83617-0.51731-0.09221-0.68659 0.54066
  -2   8   2  175.63  282.57   1 0.14642-0.47134 0.25824 0.35090 0.95491-0.80913
  -2   8   1  864.32  384.35   1 0.64205-0.96904 0.70271-0.07984 0.30651-0.23361
  -2   8   1  804.84  129.41   1 0.39496-0.72236 0.52075 0.10242 0.75684-0.68388
  -2   8   1  873.74  412.71   1 0.07424-0.40109 0.33043 0.29265 0.94090-0.86802
  -2   8   020077.08 1205.07   1 0.62511-0.95401 0.72620-0.08939 0.28611-0.28611
  -2   8   020014.03 1072.72   1 0.19725-0.52650 0.50559 0.13165 0.83991-0.83991
  -2   8   020985.31  876.00   1-0.00211-0.32668 0.40228 0.23476 0.91551-0.91551
   2  -8   1 8989.99  543.54   1-0.60497 0.93631-0.75136 0.10047-0.26354 0.33647
  -2   8  -1 7970.81  450.92   1-0.08048-0.25029 0.47110 0.17992 0.87839-0.95130
   2  -8   2 8961.10  708.28   1-0.58302 0.91634-0.77662 0.11183-0.23861 0.38446
  -2   8  -2 8407.52  649.68   1-0.15829-0.17445 0.53455 0.13041 0.83017-0.97599
   2  -8   3 1865.49  523.59   1-0.55879 0.89407-0.80177 0.12310-0.21188 0.43066
  -2   8  -3 1633.38  334.72   1-0.23345-0.10126 0.59088 0.08802 0.77223-0.99095
   2  -8   411680.33  911.79   1-0.53236 0.86960-0.82637 0.13381-0.18356 0.47526
  -2   8  -4 9754.51  854.10   1-0.30446-0.03215 0.63918 0.05368 0.70621-0.99804
   2  -8   5 5461.22  619.13   1-0.50377 0.84298-0.85003 0.14358-0.15379 0.51842
  -2   8  -5 5935.73  596.58   1-0.36985 0.03127 0.67883 0.02793 0.63433-0.99912
   2  -8   6 1420.45  632.02   1-0.47305 0.81423-0.87244 0.15210-0.12269 0.56025
  -2   8  -6 1799.19  366.52   1-0.42932 0.08900 0.71002 0.01068 0.55815-0.99597
   2  -7 -1034581.23 2177.87   1-0.68657 0.97854-0.49044 0.07219-0.53672-0.19295
  -2   7  1034281.99 1609.66   1 0.50358-0.79495-0.17695 0.59527 0.84562-0.11701
   2  -7  -917347.34 1488.45   1-0.69621 0.99000-0.48774 0.05601-0.52667-0.12946
  -2   7   918360.47 1226.03   1 0.48950-0.78281-0.15627 0.58850 0.85788-0.20212
   2  -7  -862427.92 3046.66   1-0.70152 0.99723-0.48629 0.04058-0.52094-0.06229
  -2   7   857622.35 1637.94   1 0.47000-0.76527-0.12834 0.57447 0.87328-0.29038
   2  -7  -744117.95 2478.60   1-0.70196 0.99959-0.48617 0.02648-0.52045 0.01012
  -2   7   734303.52 1281.79   1 0.44405-0.74116-0.09258 0.55251 0.89120-0.38131
  -2   7   694567.09 2935.38   1 0.68473-0.98423 0.63310-0.15948 0.36098 0.07645
   2  -7  -695925.63 3192.57   1-0.69637 0.99592-0.48770 0.01403-0.52650 0.08908
  -2   7   6102411.4 3302.16   1 0.41063-0.70971-0.04778 0.52163 0.91054-0.47350
  -2   7   546601.82 1525.01   1 0.68911-0.99051 0.62492-0.13737 0.36686-0.00233
   2  -7  -547208.71 1806.18   1-0.68282 0.98442-0.49139 0.00339-0.54062 0.17578
  -2   7   541986.62 1436.16   1 0.36861-0.66967 0.00619 0.48157 0.92955-0.56535
  -2   7   441308.15 1349.28   1 0.68570-0.98901 0.63133-0.12984 0.36226-0.07064
   2  -7  -436896.41 1479.88   1-0.65840 0.96192-0.49709-0.00485-0.56515 0.27328
  -2   7   438330.65 1311.34   1 0.31717-0.62020 0.06922 0.43245 0.94583-0.65447
  -2   7   363690.06 1219.19   1 0.67726-0.98248 0.64658-0.13116 0.35106-0.13234
   2  -7  -363883.19 1175.71   1-0.61789 0.92333-0.50489-0.01100-0.60273 0.38382
  -2   7   364120.24 1147.45   1 0.25583-0.56088 0.14009 0.37548 0.95651-0.73784
  -2   7   234262.60  865.15   1 0.66501-0.97215 0.66737-0.13803 0.33520-0.18939
   2  -7  -234998.36  645.39   1-0.55233 0.85970-0.51377-0.01607-0.65648 0.51054
  -2   7   165547.06 1231.48   1 0.64960-0.95864 0.69157-0.14830 0.31581-0.24290
  -2   7   163050.24 1000.33   1 0.44571-0.75512 0.52072 0.02281 0.72813-0.65517
  -2   7   165554.66 1149.06   1 0.10706-0.41600 0.29809 0.24535 0.94851-0.87563
  -2   7   013854.27  825.45   1 0.63139-0.94234 0.71772-0.16051 0.29361-0.29361
  -2   7   011671.01  564.74   1-0.96027 0.64910-0.16996 0.72779 0.22132-0.22132
  -2   7   013422.61  647.11   1 0.26417-0.57555 0.51325 0.04423 0.81656-0.81656
  -2   7   012317.23  709.73   1 0.02362-0.33451 0.37857 0.17883 0.92526-0.92526
   2  -7   112404.33  777.86   1-0.60999 0.92335-0.74521 0.17394-0.26936 0.34228
  -2   7  -111711.90  563.70   1-0.06881-0.24442 0.45210 0.11952 0.88930-0.96227
  -2   7  -112165.39  736.88   1-0.06196-0.25086 0.45533 0.11604 0.88816-0.96104
   2  -7   2 1885.60  443.19   1-0.58680 0.90212-0.77245 0.18729-0.24285 0.38870
  -2   7  -2 1921.45  423.24   1-0.14666-0.16816 0.52539 0.05993 0.83812-0.98393
   2  -7   3 6240.75  629.62   1-0.56136 0.87865-0.79923 0.20018-0.21468 0.43346
  -2   7  -3 5192.11  508.29   1-0.22756-0.08924 0.58665 0.01261 0.77721-0.99592
   2  -7   426454.46 1026.77   1-0.53378 0.85303-0.82512 0.21218-0.18506 0.47676
  -2   7  -424343.48  907.88   1-0.30296-0.01574 0.63821-0.02500 0.70773-0.99956
  -2   7  -563993.33 1734.78   1-0.37135 0.05069 0.67968-0.05256 0.63254-0.99732
   2  -7   6 3183.89  560.26   1-0.47239 0.79558-0.87289 0.23218-0.12203 0.55959
  -2   7  -6 3624.11  636.17   1-0.43261 0.11019 0.71160-0.07055 0.55358-0.99140
   2  -7   7 8185.57  742.27   1-0.43832 0.76338-0.89437 0.24012-0.08922 0.59965
  -2   7  -7 5116.35  723.28   1-0.48642 0.16204 0.73476-0.07981 0.47276-0.98354
   2  -6 -11 1788.29  441.96   1-0.67928 0.95138-0.49227 0.16764-0.54427-0.25837
  -2   6  11 1775.46  618.27   1 0.54896-0.82046-0.24689 0.57169 0.79854 0.00293
   2  -6 -1028139.08 2858.91   1-0.69422 0.96816-0.48827 0.15018-0.52880-0.20023
  -2   6  1028745.26 1311.89   1 0.54167-0.81511-0.23526 0.57396 0.80699-0.07837
   2  -6  -9 1741.28  492.97   1-0.70537 0.98124-0.48521 0.13313-0.51672-0.13941
  -2   6   9 2792.10  580.02   1 0.52999-0.80539-0.21698 0.56958 0.81976-0.16401
   2  -6  -822586.04 1521.98   1-0.71254 0.99032-0.48314 0.11708-0.50878-0.07445
  -2   6   822627.73 1062.63   1 0.51300-0.79035-0.19102 0.55753 0.83686-0.25397
   2  -6  -784833.46 1707.13   1-0.71502 0.99473-0.48240 0.10236-0.50598-0.00434
  -2   6   781114.18 1612.52   1 0.48946-0.76876-0.15621 0.53663 0.85791-0.34788
   2  -6  -626266.21 2248.21   1-0.71174 0.99337-0.48337 0.08935-0.50967 0.07224
  -2   6   620852.21 1079.73   1 0.45792-0.73918-0.11139 0.50571 0.88198-0.44481
  -2   6   5168411.2 3338.40   1 0.69521-0.97867 0.61310-0.20515 0.37519-0.01066
   2  -6  -5152022.6 2983.10   1 0.49746-0.21432-0.64168 0.23348 0.58375-0.94844
   2  -6  -5170898.3 3525.42   1-0.70090 0.98446-0.48646 0.07846-0.52161 0.15709
  -2   6   5172537.7 3532.92   1 0.41670-0.69983-0.05580 0.46394 0.90732-0.54312
  -2   6   471575.10 1657.92   1 0.69163-0.97699 0.62010-0.19822 0.37028-0.07866
   2  -6  -463742.80 1423.71   1 0.65135-0.36613-0.40957-0.01250 0.63873-0.93047
   2  -6  -466836.30 1596.24   1-0.67961 0.96518-0.49219 0.06992-0.54393 0.25206
  -2   6   472346.20 1738.29   1 0.36451-0.64962 0.01133 0.41072 0.93112-0.63976
  -2   6   3137024.0 3062.76   1 0.68223-0.96950 0.63769-0.20187 0.35763-0.13892
   2  -6  -3141779.1 3175.89   1-0.64281 0.93030-0.50032 0.06410-0.58005 0.36115
  -2   6   3145589.0 3262.62   1 0.30041-0.58749 0.08910 0.34687 0.94963-0.73111
  -2   6   2103845.8 1960.72   1 0.66871-0.95790 0.66124-0.21150 0.33995-0.19414
   2  -6  -2109656.2 2000.79   1-0.58161 0.87103-0.51033 0.06016-0.63346 0.48753
  -2   6   2111432.8 2096.18   1 0.22449-0.51356 0.17506 0.27483 0.95862-0.81284
  -2   6   144754.55  981.45   1 0.65190-0.94299 0.68809-0.22442 0.31866-0.24575
  -2   6   138536.34  803.80   1-0.96071 0.66944-0.27680 0.74100 0.02041 0.05255
  -2   6   144293.47  868.66   1 0.48005-0.77149 0.51966-0.05576 0.70674-0.63378
  -2   6   0136428.7 3100.88   1 0.63225-0.92525 0.71655-0.23894 0.29464-0.29464
  -2   6   0121440.0 2670.08   1-0.96376 0.67056-0.26201 0.74016 0.05000-0.05000
  -2   6   0131115.3 2856.50   1 0.30580-0.59919 0.51675-0.03890 0.79965-0.79965
  -2   6   0134974.4 3029.76   1 0.04640-0.33937 0.35716 0.12061 0.93288-0.93288
   2  -6   125008.43 1540.14   1-0.60942 0.90478-0.74592 0.25428-0.26869 0.34161
  -2   6  -123445.66 1340.71   1-0.96672 0.67158-0.22067 0.71274 0.12942-0.20241
  -2   6  -123393.78 1333.79   1-0.00448-0.29080 0.46829 0.02357 0.88355-0.95649
  -2   6  -125442.93 1506.28   1-0.04823-0.24667 0.44341 0.04832 0.89501-0.96789
   2  -6   261330.04 1468.70   1-0.58483 0.88216-0.77463 0.26910-0.24063 0.38648
  -2   6  -251620.63 1009.33   1-0.91083 0.61381-0.05565 0.56150 0.40900-0.55492
  -2   6  -257436.91 1333.72   1-0.14106-0.15584 0.52094-0.01525 0.84185-0.98766
   2  -6   3 5473.96  522.39   1-0.55807 0.85736-0.80249 0.28307-0.21109 0.42987
  -2   6  -3 4058.97  346.23   1-0.22840-0.07047 0.58726-0.06762 0.77649-0.99521
  -2   6  -433023.58 1202.15   1-0.30832 0.00752 0.64166-0.10810 0.70228-0.99411
   2  -6   526254.74 1066.88   1-0.49843 0.80166-0.85414 0.30694-0.14832 0.51295
  -2   6  -526409.35  991.68   1-0.37939 0.07663 0.68418-0.13671 0.62285-0.98764
   2  -6   6 2367.75  487.22   1-0.46567 0.77086-0.87740 0.31631-0.11534 0.55290
  -2   6  -6 2206.21  440.18   1-0.44182 0.13729 0.71593-0.15454 0.54058-0.97840
   2  -6   7 2136.77  405.42   1-0.43063 0.73771-0.89881 0.32411-0.08178 0.59221
  -2   6  -7 2865.41  493.41   1-0.49569 0.18921 0.73819-0.16290 0.45754-0.96832
   2  -6   8  679.17  398.31   1-0.39401 0.70305-0.91790 0.32930-0.04694 0.63029
  -2   6  -8  446.89  198.34   1-0.54187 0.23343 0.75223-0.16303 0.37485-0.95860
   2  -5 -11 1429.27  297.89   1-0.67963 0.93377-0.49218 0.24724-0.54392-0.25872
  -2   5  11  872.80  261.21   1 0.58217-0.83587-0.30164 0.54690 0.75503 0.04692
   2  -5 -10 8123.25  823.27   1-0.69608 0.95210-0.48778 0.22933-0.52681-0.20222
  -2   5  10 8739.63  779.70   1 0.57727-0.83291-0.29324 0.55240 0.76207-0.03302
   2  -5  -926813.76 1614.76   1-0.70881 0.96676-0.48423 0.21180-0.51293-0.14320
  -2   5   927546.35 1101.79   1 0.56825-0.82573-0.27847 0.55146 0.77429-0.11854
   2  -5  -8  624.03  310.47   1-0.71760 0.97747-0.48162 0.19522-0.50306-0.08017
  -2   5   8  585.29  369.81   1 0.55425-0.81368-0.25543 0.54231 0.79218-0.20928
   2  -5  -775813.47 1404.72   1-0.72181 0.98360-0.48034 0.17995-0.49825-0.01207
  -2   5   771924.41 1325.73   1 0.53379-0.79518-0.22289 0.52368 0.81570-0.30567
  -2   5   6 1174.82  130.85   1 0.67091-0.93450 0.65755-0.34313 0.34278 0.09465
   2  -5  -6  725.88   66.89   1-0.00352 0.26698-0.96070 0.64598 0.27753-0.71514
   2  -5  -6 1683.53  298.27   1-0.72036 0.98407-0.48078 0.16642-0.49992 0.06249
  -2   5   6 1261.83  284.28   1 0.50503-0.76837-0.17910 0.49379 0.84431-0.40714
  -2   5   563118.28 1403.57   1 0.69005-0.95555 0.62313-0.29478 0.36814-0.00360
   2  -5  -560462.23 1325.28   1 0.39745-0.13220-0.74597 0.41738 0.53436-0.89906
   2  -5  -566524.98 1722.29   1-0.71150 0.97713-0.48344 0.15509-0.50994 0.14542
  -2   5   566248.82 1597.68   1 0.46573-0.73102-0.12232 0.45092 0.87642-0.51212
  -2   5   434176.73  694.49   1 0.68864-0.95605 0.62581-0.28353 0.36622-0.07460
   2  -5  -432169.54 1824.61   1 0.63146-0.36416-0.44679 0.10432 0.63373-0.92547
   2  -5  -434989.67  816.44   1-0.69229 0.95984-0.48878 0.14645-0.53086 0.23924
  -2   5   436569.29  832.71   1 0.41344-0.68062-0.05149 0.39393 0.90907-0.61770
  -2   5   383036.52 1793.98   1 0.67901-0.94833 0.64347-0.28726 0.35337-0.13465
   2  -5  -382090.86 1656.55   1 0.74229-0.47311-0.18225-0.17417 0.64480-0.86361
   2  -5  -389121.78 1870.22   1-0.65776 0.92729-0.49723 0.14069-0.56577 0.34687
  -2   5   389836.51 1896.60   1 0.34650-0.61565 0.03368 0.32267 0.93744-0.71892
  -2   5   264053.17 1381.89   1 0.66445-0.93568 0.66829-0.29815 0.33448-0.18866
   2  -5  -259025.62 1220.47   1 0.78431-0.51307 0.01696-0.38724 0.62012-0.76602
   2  -5  -263583.90 1356.91   1-0.59852 0.86998-0.50796 0.13747-0.61946 0.47352
  -2   5   265518.39 1432.99   1 0.26431-0.53547 0.13046 0.23980 0.95557-0.80979
  -2   5   1201727.6 4065.19   1 0.64628-0.91942 0.69652-0.31245 0.31170-0.23880
  -2   5   1165795.6 3334.06   1-0.93146 0.65815-0.34311 0.72745-0.12106 0.19400
  -2   5   1206995.7 4153.00   1 0.16908-0.44218 0.23466 0.14954 0.95725-0.88436
  -2   5   0177327.4 3610.25   1 0.62519-0.90024 0.72609-0.32809 0.28620-0.28620
  -2   5   0140719.6 2823.30   1-0.92856 0.65334-0.34738 0.74568-0.13075 0.13075
  -2   5   0172330.3 3405.83   1 0.32325-0.59867 0.51792-0.11971 0.79199-0.79199
   2  -5   154676.39 1271.05   1-0.60093 0.87830-0.75620 0.34418-0.25890 0.33183
  -2   5  -146158.33  978.12   1-0.93236 0.65516-0.34173 0.75414-0.11792 0.04495
  -2   5  -149683.51 1015.17   1 0.01732-0.29464 0.47332-0.06110 0.88071-0.95365
   2  -5   2348273.119609.23   1-0.57497 0.85431-0.78528 0.35937-0.22964 0.37549
  -2   5  -2323988.218184.72   1-0.95051 0.67138-0.30762 0.73398-0.04341-0.10252
  -2   5  -2336579.918887.12   1-0.48948 0.21020 0.29054 0.13565 0.82218-0.96820
  -2   5  -2349667.319661.65   1-0.14352-0.13547 0.52290-0.09684 0.84022-0.98603
   2  -5   3287553.7 6329.09   1-0.54694 0.82824-0.81315 0.37335-0.19908 0.41786
  -2   5  -3282847.9 6167.97   1-0.23795-0.04301 0.59408-0.15408 0.76840-0.98712
   2  -5   4 1391.11  234.76   1-0.51695 0.80022-0.83947 0.38579-0.16742 0.45912
  -2   5  -4 2414.47  317.19   1-0.32215 0.03926 0.65039-0.19649 0.68789-0.97971
   2  -5   5173595.3 5388.40   1-0.48510 0.77033-0.86400 0.39643-0.13479 0.49941
  -2   5  -5204727.5 6255.28   1-0.39510 0.11026 0.69273-0.22491 0.60333-0.96811
   2  -5   616398.68 1092.78   1-0.45104 0.73818-0.88669 0.40546-0.10163 0.53914
  -2   5  -614933.89 1353.28   1-0.45767 0.17103 0.72304-0.24131 0.51744-0.95525
   2  -5   771361.01 2245.08   1-0.41554 0.70464-0.90708 0.41195-0.06730 0.57773
  -2   5  -768580.75 2206.90   1-0.51053 0.22194 0.74328-0.24764 0.43230-0.94308
   2  -5   815669.37  967.14   1-0.37822 0.66928-0.92515 0.41612-0.03220 0.61555
  -2   5  -814870.75 1184.85   1-0.55495 0.26419 0.75518-0.24553 0.34888-0.93269
   2  -5   913783.37  783.47   1-0.33905 0.63207-0.94075 0.41782 0.00365 0.65261
  -2   5  -910965.80 1365.72   1-0.59222 0.29952 0.76007-0.23652 0.26752-0.92430
   2  -4 -12  666.24  266.88   1-0.65265 0.88691-0.49832 0.34700-0.57071-0.30490
  -2   4  12 1320.90  554.38   1 0.61180-0.84565-0.35491 0.50662 0.70691 0.16795
   2  -4 -11  746.59  242.80   1-0.67390 0.91009-0.49357 0.32830-0.54976-0.25288
  -2   4  11  486.46  380.12   1 0.61221-0.84799-0.35566 0.52128 0.70618 0.09577
   2  -4 -1020479.48 2238.73   1-0.69181 0.92991-0.48891 0.31012-0.53136-0.19767
  -2   4  1019342.50 1200.65   1 0.60973-0.84745-0.35102 0.53054 0.71063 0.01841
  -2   4   9 1507.79  496.38   1 0.60372-0.84339-0.33993 0.53335 0.72108-0.06493
   2  -4  -8 1726.95  252.67   1-0.71619 0.95814-0.48205 0.27530-0.50466-0.07856
  -2   4   8 2089.41  401.43   1 0.59319-0.83479-0.32093 0.52826 0.73832-0.15508
   2  -4  -7  313.37  144.86   1-0.72176 0.96563-0.48035 0.25961-0.49831-0.01201
  -2   4   7  386.74  328.65   1 0.57659-0.82014-0.29208 0.51333 0.76303-0.25269
   2  -4  -610928.08 1435.04   1-0.72163 0.96742-0.48039 0.24567-0.49846 0.06103
  -2   4   6 8347.75  514.16   1 0.55161-0.79703-0.25115 0.48622 0.79538-0.35821
  -2   4   520064.26  786.54   1 0.63939-0.88695 0.70653-0.45777 0.30328 0.06124
   2  -4  -520106.66  785.29   1 0.10229 0.14518-0.92997 0.68096 0.35310-0.71778
   2  -4  -521214.84  957.91   1-0.71400 0.96171-0.48271 0.23401-0.50714 0.14261
  -2   4   520882.60  916.13   1 0.51553-0.76290-0.19483 0.44381 0.83442-0.47011
  -2   4   467152.30 2273.44   1 0.66181-0.91127 0.67257-0.40989 0.33112-0.03949
   2  -4  -463796.13 2148.69   1 0.56381-0.31443-0.55526 0.29239 0.61139-0.90312
   2  -4  -473008.84 1382.21   1-0.69578 0.94542-0.48786 0.22518-0.52713 0.23552
  -2   4   466996.39 2330.46   1 0.46459-0.71391-0.12071 0.38359 0.87725-0.58581
  -2   4   338700.51 1359.40   1 0.65779-0.90917 0.67896-0.40235 0.32604-0.10732
   2  -4  -339192.39 1337.38   1 0.74544-0.49416-0.17142-0.10537 0.64415-0.86295
   2  -4  -340074.22 1424.61   1-0.66176 0.91334-0.49635 0.21949-0.56187 0.34296
  -2   4   339844.58 1423.34   1 0.39515-0.64639-0.02762 0.30435 0.91819-0.69967
  -2   4   2 3643.30  208.63   1 0.64472-0.89800 0.69882-0.40828 0.30979-0.16397
   2  -4  -2 4379.25  473.03   1 0.79218-0.53887 0.09568-0.38625 0.60273-0.74861
   2  -4  -2 5459.77  596.52   1-0.60168 0.85519-0.50749 0.21668-0.61678 0.47084
  -2   4   2 2965.77  405.99   1-0.89842 0.64497-0.38298 0.67370-0.21484 0.36073
  -2   4   2 4094.00  268.28   1 0.30562-0.55883 0.08295 0.20769 0.94853-0.80284
  -2   4   1102652.4 1665.40   1 0.62663-0.88182 0.72417-0.41970 0.28792-0.21501
   2  -4  -1100013.6 1567.05   1 0.79080-0.53548 0.26265-0.56713 0.55285-0.62578
  -2   4   197943.98 1565.01   1-0.87612 0.62075-0.40282 0.70750-0.26483 0.33777
  -2   4   190205.41 1485.40   1 0.19776-0.45294 0.20415 0.10041 0.95875-0.88586
   2  -4   0146595.8 2347.49   1-0.60455 0.86196-0.75187 0.43336-0.26306 0.26306
  -2   4   0136576.7 2108.17   1-0.84913 0.59184-0.42244 0.74108-0.31703 0.31703
  -2   4   0148100.0 2252.59   1 0.31438-0.57181 0.51735-0.19878 0.79593-0.79593
  -2   4   0149217.0 2341.62   1 0.07842-0.33555 0.32635-0.00783 0.94198-0.94198
   2  -4   1116545.5 1918.07   1-0.58014 0.83952-0.77975 0.44736-0.23539 0.30831
  -2   4  -1109678.7 1695.67   1-0.81548 0.55623-0.44219 0.77478-0.37342 0.30052
  -2   4  -1111482.5 1698.97   1 0.00055-0.25991 0.46948-0.13692 0.88294-0.95587
  -2   4  -1116798.0 1875.16   1-0.04275-0.21632 0.43861-0.10612 0.89765-0.97053
   2  -4   241239.01 1519.28   1-0.55344 0.81479-0.80698 0.46070-0.20608 0.35194
  -2   4  -237732.57 1285.54   1-0.77121 0.51004-0.46273 0.80930-0.43716 0.29135
  -2   4  -239063.41 1328.00   1-0.46351 0.20219 0.30375 0.04277 0.83239-0.97841
  -2   4  -3314536.813666.54   1-0.70437 0.44127-0.48549 0.84604-0.51783 0.29912
  -2   4  -3323586.914058.80   1-0.88019 0.61705-0.01173 0.37218 0.47446-0.69334
  -2   4  -3334594.714589.58   1-0.25910-0.00391 0.60889-0.24855 0.74974-0.96860
   2  -4   4118253.2 2297.38   1-0.49407 0.75935-0.85743 0.48337-0.14388 0.43558
  -2   4  -4111498.0 1917.89   1-0.58067 0.31562-0.51045 0.88496-0.63422 0.34235
  -2   4  -4119002.2 2213.24   1-0.34641 0.08143 0.66520-0.29095 0.66143-0.95326
   2  -4   5249817.2 5550.47   1-0.46164 0.72888-0.88005 0.49210-0.11135 0.47598
   2  -4   5230163.6 4916.17   1 0.36903-0.10180 0.52010-0.90842 0.77026-0.40546
  -2   4  -5237507.4 5221.78   1-0.41987 0.15308 0.70539-0.31723 0.57106-0.93591
   2  -4   624653.88  781.08   1-0.42707 0.69622-0.90081 0.49915-0.07835 0.51586
  -2   4  -623117.25  372.90   1-0.76791 0.49905-0.46406 0.86656-0.44153 0.00410
   2  -4   621341.60  965.38   1 0.14493 0.12431 0.49793-0.90017 0.85501-0.41741
  -2   4  -624457.24 1359.80   1-0.48075 0.21201 0.73258-0.33051 0.48186-0.91968
   2  -4   757474.43 1972.48   1-0.39116 0.66227-0.91925 0.50369-0.04426 0.55469
  -2   4  -758227.99 1940.01   1-0.53108 0.26039 0.74945-0.33347 0.39529-0.90608
   2  -4   874801.35 2080.91   1-0.35351 0.62659-0.93538 0.50591-0.00947 0.59281
  -2   4  -873990.72 1965.16   1-0.57257 0.29976 0.75817-0.32822 0.31196-0.89577
   2  -4   9 4550.33  710.02   1-0.31410 0.58913-0.94903 0.50566 0.02600 0.63025
  -2   4  -9 3551.34  804.23   1-0.60681 0.33206 0.76029-0.31644 0.23180-0.88859
   2  -4  1030078.79 1693.14   1-0.27285 0.54984-0.96004 0.50277 0.06218 0.66699
  -2   4 -1022704.79 2812.68   1-0.63486 0.35818 0.75699-0.29925 0.15463-0.88439
   2  -3 -1226317.02 2007.50   1-0.63840 0.85471-0.50118 0.42955-0.58416-0.29145
  -2   3  1228473.26 1612.83   1 0.63649-0.85241-0.40342 0.47548 0.65736 0.21750
   2  -3 -11 4955.59  919.42   1-0.66122 0.87945-0.49647 0.41088-0.56239-0.24025
  -2   3  11 6127.23  683.33   1 0.63868-0.85654-0.40796 0.49393 0.65241 0.14954
   2  -3 -1028496.78 1664.51   1-0.68048 0.90064-0.49197 0.39244-0.54304-0.18663
  -2   3  1031085.58 1174.97   1 0.63849-0.85830-0.40758 0.50745 0.65283 0.07621
   2  -3  -937185.57 1779.09   1-0.69599 0.91810-0.48780 0.37468-0.52691-0.12922
  -2   3   935331.60  906.85   1 0.63543-0.85717-0.40123 0.51501 0.65972-0.00357
   2  -3  -815985.59 1277.48   1-0.70733 0.93136-0.48465 0.35755-0.51457-0.06866
  -2   3   813509.25  839.02   1 0.62859-0.85228-0.38739 0.51508 0.67438-0.09113
   2  -3  -7143753.3 3252.96   1-0.71386 0.93981-0.48275 0.34166-0.50729-0.00303
  -2   3   7143363.4 3251.39   1 0.61653-0.84215-0.36385 0.50544 0.69821-0.18787
   2  -3  -619341.64 1651.46   1-0.71443 0.94230-0.48258 0.32751-0.50665 0.06923
  -2   3   616527.56  876.33   1 0.59686-0.82442-0.32748 0.48298 0.73247-0.29503
   2  -3  -5181942.7 2902.23   1-0.70708 0.93688-0.48472 0.31568-0.51484 0.15032
  -2   3   5177359.2 2791.63   1 0.56575-0.79520-0.27430 0.44365 0.77761-0.41330
   2  -3  -387740.59 1782.02   1 0.73562-0.50225-0.20419 0.00701 0.64588-0.86468
   2  -3  -385316.90 1752.45   1-0.57594 0.80946-0.78425 0.58704-0.23071 0.01194
   2  -3  -384362.91 1802.05   1-0.65270 0.88633-0.49831 0.30112-0.57066 0.35176
   2  -3  -210730.00  497.16   1 0.79410-0.55875 0.20239-0.41336 0.57309-0.71897
   2  -3  -210187.50  413.59   1-0.58567 0.82116-0.77370 0.56260-0.24158 0.09572
   2  -3  -211486.71  458.20   1-0.58817 0.82372-0.50945 0.29831-0.62809 0.48216
  -2   3   211271.40  444.11   1-0.84291 0.60740-0.42644 0.63750-0.32808 0.47397
  -2   3   210786.86  445.73   1 0.34943-0.58471 0.03007 0.18095 0.93647-0.79079
   2  -3  -2 9713.28  394.66   1 0.54311-0.30779-0.23754 0.02647 0.80535-0.95108
   2  -3  -1  309.95   73.83   1 0.77019-0.53287 0.40320-0.62802 0.49419-0.56712
   2  -3  -1 1183.53  175.69   1-0.57683 0.81428-0.78331 0.55832-0.23170 0.15877
  -2   3   1  664.68   86.69   1-0.79185 0.55437-0.45381 0.67878-0.40868 0.48158
  -2   3   1  405.90  186.13   1 0.47426-0.71175 0.51990-0.29493 0.71047-0.63751
  -2   3   1  432.74  228.18   1 0.22425-0.46152 0.17532 0.04962 0.95863-0.88574
   2  -3  -1  736.89  158.44   1 0.43527-0.19802-0.08064-0.14430 0.89667-0.96951
   2  -3   026409.02  931.62   1 0.74180-0.50251 0.50428-0.74300 0.44206-0.44206
   2  -3   026778.32  987.82   1-0.55994 0.79936-0.80064 0.56176-0.21313 0.21313
  -2   3   025722.83  908.34   1-0.71919 0.47978-0.48114 0.72010-0.50125 0.50125
  -2   3   028305.80  632.27   1 0.27412-0.51357 0.51418-0.27525 0.81269-0.81269
  -2   3   029608.91  700.90   1 0.08277-0.32199 0.32210-0.08321 0.94307-0.94307
   2  -3   126076.58  923.36   1 0.72212-0.48085 0.55628-0.80892 0.41119-0.33825
   2  -3   133203.90  835.86   1-0.53833 0.77972-0.82105 0.56828-0.18989 0.26282
  -2   3  -134128.50  729.42   1-0.61068 0.36936-0.50608 0.75907-0.60904 0.53607
  -2   3  -133533.62  719.07   1-0.05531-0.18609 0.45568-0.20272 0.88842-0.96138
   2  -3   2116304.7 1914.53   1-0.51341 0.75676-0.84237 0.57571-0.16374 0.30959
  -2   3  -2119904.5 1812.91   1-0.48507 0.24170 0.29282-0.02596 0.82398-0.97000
   2  -3   2113977.6 1722.90   1 0.44620-0.20283 0.52071-0.78754 0.72784-0.58192
  -2   3  -2121602.8 1927.95   1-0.18668-0.05648 0.55642-0.28963 0.80965-0.95546
   2  -3   361597.92 2192.52   1-0.48588 0.73120-0.86344 0.58290-0.13557 0.35435
  -2   3  -359935.83 2024.23   1-0.82412 0.57881 0.05258 0.22825 0.56396-0.78286
   2  -3   358379.11 1971.34   1 0.22066 0.02468 0.50855-0.78932 0.83227-0.61347
   2  -3   457466.63 1348.50   1-0.45612 0.70341-0.88358 0.58915-0.10591 0.39761
  -2   3  -463644.03 1282.87   1-0.95457 0.70752-0.14866 0.44347 0.25824-0.55021
   2  -3   460978.08 1224.90   1-0.01882 0.26621 0.46489-0.75968 0.88516-0.59330
  -2   3  -463353.97 1400.16   1-0.38326 0.13619 0.68632-0.39172 0.61812-0.90994
   2  -3   520494.74 1042.61   1-0.42398 0.67319-0.90252 0.59433-0.07538 0.43997
  -2   3  -519186.42  870.44   1-0.96140 0.71234-0.27387 0.58269 0.02632-0.39118
   2  -3   517863.39  806.94   1-0.20995 0.45933 0.40910-0.71784 0.88800-0.52317
  -2   3  -520010.97 1732.89   1-0.45435 0.20545 0.72159-0.41308 0.52236-0.88721
   2  -3   681415.85 1871.86   1-0.39036 0.64153-0.91963 0.59753-0.04351 0.48102
  -2   3  -672400.62 1532.26   1-0.92678 0.67591-0.34990 0.67263-0.13649-0.30116
   2  -3   670501.87 1422.86   1-0.33732 0.58862 0.36121-0.68374 0.86933-0.43129
  -2   3  -679527.25 1998.26   1-0.51127 0.26042 0.74352-0.42111 0.43099-0.86881
   2  -3   7 3196.36  386.27   1-0.35494 0.60807-0.93482 0.59882-0.01077 0.52120
  -2   3  -7 2414.53  285.99   1-0.87992 0.62713-0.39971 0.73640-0.25681-0.25379
  -2   3  -7 3506.50  443.27   1-0.55706 0.30413 0.75560-0.41924 0.34458-0.85541
   2  -3   873263.83 2452.01   1-0.31774 0.57284-0.94790 0.59800 0.02276 0.56057
  -2   3  -871212.63 2271.03   1-0.82859 0.57381-0.43498 0.78579-0.35243-0.23079
  -2   3  -874021.42 2429.07   1-0.59418 0.33932 0.76016-0.40991 0.26285-0.84666
   2  -3   9 2723.89  595.76   1-0.27876 0.53581-0.95866 0.59486 0.05706 0.59920
  -2   3  -9 1376.51  304.48   1-0.62426 0.36747 0.75891-0.39476 0.18531-0.84209
   2  -3  1043282.64 1378.18   1-0.23790 0.49680-0.96690 0.58924 0.09212 0.63716
  -2   3 -1033137.32 3250.48   1-0.64867 0.38986 0.75288-0.37495 0.11127-0.84108
   2  -2 -1226018.36 1215.25   1-0.61591 0.81427-0.50522 0.51326-0.60447-0.27114
  -2   2  1226460.89 1256.80   1 0.65753-0.85553-0.44930 0.44171 0.60478 0.27007
   2  -2 -1146872.13 2543.08   1-0.64028 0.84056-0.50082 0.49491-0.58241-0.22023
  -2   2  1150296.30 2426.83   1 0.66116-0.86110-0.45780 0.46412 0.59437 0.20758
   2  -2 -1049922.77 1580.54   1-0.66086 0.86307-0.49655 0.47669-0.56274-0.16693
  -2   2  1050098.46 1647.77   1 0.66350-0.86502-0.46161 0.48153 0.58879 0.14093
  -2   2   954282.01  916.19   1 0.35695-0.56077-0.78111 0.81532 0.51229 0.14415
   2  -2  -962671.46 3183.87   1-0.67744 0.88157-0.49272 0.45891-0.54615-0.11055
  -2   2   959071.45 1261.25   1 0.66250-0.86632-0.46100 0.49513 0.59039 0.06575
  -2   2   821410.24 1158.40   1 0.79239-0.99822 0.10476-0.05694 0.60094-0.01736
  -2   2   818570.40  969.61   1 0.38687-0.59263-0.75551 0.80360 0.52870 0.05480
   2  -2  -822682.86 1841.35   1-0.68950 0.89561-0.48951 0.44206-0.53380-0.04942
  -2   2   819895.19 1167.66   1 0.65928-0.86504-0.45337 0.50141 0.59982-0.01658
  -2   2   7119856.7 2064.08   1 0.78606-0.99381 0.03123 0.03052 0.61735-0.10673
  -2   2   7122977.3 2115.65   1 0.48600-0.69369-0.65507 0.71706 0.57851-0.06794
   2  -2  -7135616.0 2544.14   1-0.69642 0.90445-0.48768 0.42625-0.52645 0.01612
  -2   2   7135368.4 2523.15   1 0.65207-0.85978-0.43688 0.49882 0.61961-0.10927
  -2   2   676960.41 1671.22   1 0.63869-0.84834-0.40799 0.48385 0.65238-0.21494
   2  -2  -511999.29 1237.35   1-0.68849 0.90037-0.48977 0.40038-0.53487 0.17035
  -2   2   510785.81  480.57   1 0.61517-0.82675-0.36126 0.45102 0.70074-0.33622
   2  -2  -426417.01  979.15   1-0.66774 0.88149-0.49501 0.39145-0.55595 0.26408
   2  -2  -423156.48  817.43   1 0.69522-0.48174-0.55098 0.44740 0.46159-0.75349
   2  -2  -327386.20  687.77   1-0.62689 0.84257-0.50332 0.38582-0.59469 0.37578
  -2   2   327378.40  649.94   1 0.50621-0.72165-0.18085 0.29838 0.84323-0.62464
   2  -2  -325702.17  900.86   1 0.64987-0.43440-0.43198 0.31440 0.62534-0.84406
   2  -2  -2477539.9 4452.09   1 0.77120-0.55383 0.39859-0.52992 0.49634-0.64222
   2  -2  -2481066.3 4497.09   1-0.38534 0.60286-0.92195 0.79063-0.03882-0.10701
   2  -2  -2502419.0 4778.30   1-0.55289 0.77049-0.51371 0.38225-0.65605 0.51011
  -2   2   2488151.4 4637.74   1 0.39816-0.61552-0.03151 0.16292 0.91677-0.77108
   2  -2  -115911.22  563.25   1 0.69820-0.47891 0.60714-0.75241 0.37932-0.45223
   2  -2  -115596.10  564.65   1-0.45060 0.67008-0.88697 0.74174-0.10120 0.02828
  -2   2   116386.73  601.00   1-0.67778 0.45826-0.49263 0.63804-0.54581 0.61878
  -2   2   116534.71  599.65   1 0.42161-0.64112 0.52096-0.37562 0.74218-0.66922
  -2   2   116031.81  586.78   1 0.24734-0.46668 0.14966-0.00434 0.95730-0.88441
   2  -2  -115533.43  565.53   1 0.42520-0.20586-0.06709-0.07822 0.90260-0.97544
   2  -2   0188465.1 1869.04   1 0.65721-0.43601 0.67988-0.83908 0.32531-0.32531
   2  -2   0180241.6 1825.09   1-0.46389 0.68532-0.87858 0.71932-0.11358 0.11358
  -2   2   0197954.1 1912.32   1-0.53873 0.31729-0.51509 0.67445-0.66666 0.66666
  -2   2   0197137.1 1916.10   1 0.19553-0.41698 0.50536-0.34605 0.84045-0.84045
  -2   2   0193659.3 1919.17   1 0.07165-0.29295 0.33294-0.17368 0.94021-0.94021
  -2   2  -1382679.0 3609.60   1-0.14916-0.07429 0.42889-0.25560 0.89095-0.96392
  -2   2  -1385471.9 3701.26   1-0.09769-0.12557 0.48557-0.31236 0.86872-0.94162
  -2   2  -2 6991.52  283.90   1-0.53611 0.31063 0.26505-0.07780 0.80145-0.94733
   2  -2   2 7063.04  274.23   1 0.07796 0.14744 0.48604-0.67323 0.87044-0.72458
  -2   2  -2 6364.03  292.56   1-0.23954 0.01430 0.59522-0.40807 0.76702-0.91283
   2  -2   2 6551.96  283.95   1-0.01128 0.23646 0.41058-0.59777 0.91175-0.76599
   2  -2   326462.38 1025.63   1-0.42115 0.64847-0.90407 0.70323-0.07267 0.29142
  -2   2  -326180.84  896.99   1-0.80994 0.58257 0.06676 0.13439 0.58269-0.80158
   2  -2   325447.94  872.42   1-0.17704 0.40448 0.42005-0.62123 0.89005-0.67116
  -2   2  -327255.43  984.36   1-0.35029 0.12310 0.66750-0.46647 0.65705-0.87592
   2  -2   4 5214.74  362.73   1-0.39599 0.62526-0.91695 0.70222-0.04879 0.34046
  -2   2  -4 4823.85  227.26   1-0.93277 0.70349-0.09472 0.30977 0.34778-0.63962
   2  -2   4 4739.55  222.03   1-0.37002 0.59941 0.34732-0.56234 0.86165-0.56962
  -2   2  -4 5181.87  504.86   1-0.43459 0.20553 0.71254-0.49760 0.55082-0.84269
   2  -2   519735.98  937.67   1-0.36770 0.59893-0.92967 0.70103-0.02247 0.38706
  -2   2  -520190.23  824.44   1-0.96606 0.73504-0.20756 0.43661 0.15375-0.51872
   2  -2   518557.19  761.10   1-0.49189 0.72332 0.28887-0.51798 0.82133-0.45661
   2  -2   624146.22 1223.48   1-0.33680 0.56999-0.94155 0.69902 0.00568 0.43182
  -2   2  -624190.32 1116.03   1-0.95848 0.72543-0.28512 0.52821 0.00347-0.44129
   2  -2   622087.89 1009.45   1-0.56338 0.79679 0.24953-0.49259 0.78760-0.34994
  -2   2  -627086.08 1879.31   1-0.54860 0.31565 0.75380-0.51105 0.36168-0.79949
   2  -2   7 6488.02  599.35   1-0.30359 0.53875-0.95214 0.69570 0.03531 0.47511
  -2   2  -7 6668.42  614.25   1-0.93271 0.69785-0.34119 0.59822-0.11675-0.39385
   2  -2   7 5050.15  339.66   1-0.60205 0.83744 0.22631-0.48333 0.76571-0.25510
  -2   2  -7 7253.97  753.41   1-0.58767 0.35269 0.75978-0.50312 0.27813-0.78897
   2  -2   831647.45  879.48   1-0.26820 0.50525-0.96108 0.69079 0.06620 0.51723
  -2   2  -829602.37 1242.28   1-0.89765 0.66087-0.38373 0.65472-0.21670-0.36684
  -2   2  -830241.51 2235.34   1-0.61877 0.38185 0.75956-0.48901 0.20044-0.78425
   2  -2   928593.60 1089.71   1-0.23080 0.46980-0.96803 0.68385 0.09813 0.55822
  -2   2  -923114.83 1348.00   1-0.85670 0.61800-0.41733 0.70227-0.30312-0.35337
  -2   2  -923664.73 1818.49   1-0.64363 0.40478 0.75463-0.47018 0.12747-0.78426
   2  -2  10  402.81  287.15   1-0.19137 0.43233-0.97273 0.67466 0.13103 0.59825
  -2   2 -10  124.64  111.78   1-0.81112 0.57041-0.44446 0.74358-0.38016-0.34887
  -2   2 -10  626.64  300.63   1-0.66357 0.42268 0.74584-0.44759 0.05822-0.78803
   2  -2  1133810.00 1509.84   1-0.14986 0.39278-0.97486 0.66291 0.16483 0.63738
  -2   2 -1134447.06 1522.88   1-0.67925 0.43641 0.73386-0.42173-0.00800-0.79478
  -2   1  12 2021.57  375.32   1 0.67539-0.85498-0.49128 0.40363 0.54998 0.32569
   2  -1 -1117375.01 1876.50   1-0.60919 0.79152-0.50632 0.58009-0.61033-0.19231
  -2   1  1121245.11 1129.41   1 0.67999-0.86157-0.50367 0.42996 0.53284 0.26985
  -2   1  1011309.81  730.79   1 0.07256-0.25647-0.94034 0.88127 0.33238 0.39696
   2  -1 -1010918.96 1530.16   1-0.63089 0.81514-0.50260 0.56242-0.59106-0.13861
  -2   1  1012413.36  923.76   1 0.68312-0.86669-0.51249 0.45273 0.52028 0.20945
  -2   1   933129.14  628.71   1 0.02274-0.20860-0.95468 0.90947 0.29676 0.35964
   2  -1  -938937.29 2160.85   1-0.64819 0.83436-0.49924 0.54511-0.57497-0.08173
  -2   1   937024.97  941.25   1 0.68470-0.87027-0.51711 0.47129 0.51358 0.14317
  -2   1   854914.14 1133.84   1 0.79448-0.98186 0.15787-0.18957 0.58640-0.00289
  -2   1   858663.55 1212.11   1-0.02175-0.16605-0.96427 0.93293 0.26400 0.31947
   2  -1  -860027.23 1421.09   1-0.66055 0.84865-0.49662 0.52854-0.56305-0.02069
  -2   1   862141.12 1421.46   1 0.68446-0.87203-0.51641 0.48453 0.51460 0.06917
  -2   1   721091.35  990.65   1 0.79424-0.98363 0.14378-0.16156 0.59033-0.07976
  -2   1   724018.33 1078.77   1-0.06049-0.12925-0.97013 0.95253 0.23488 0.27561
   2  -1  -725651.95 1691.09   1-0.66705 0.85708-0.49516 0.51313-0.55663 0.04585
  -2   1   724691.51 1188.84   1 0.68171-0.87127-0.50849 0.49056 0.52601-0.01520
  -2   1   6179783.1 3526.85   1 0.79044-0.98218 0.07591-0.07985 0.60780-0.17012
  -2   1   6192514.4 3775.95   1-0.08720-0.10449-0.97285 0.96914 0.21433 0.22324
   2  -1  -6191456.3 3884.84   1-0.66610 0.85804-0.49538 0.49940-0.55758 0.11977
  -2   1   6189845.3 3830.65   1 0.67492-0.86647-0.49005 0.48607 0.55164-0.11380
  -2   1   5115503.4 1726.32   1 0.75865-0.95231-0.12152 0.13151 0.64006-0.27532
  -2   1   5119545.5 1791.18   1-0.08566-0.10800-0.97273 0.98290 0.21552 0.14911
   2  -1  -5120269.9 2017.01   1-0.65492 0.84879-0.49784 0.48791-0.56853 0.20369
  -2   1   5118802.0 1893.33   1 0.66018-0.85385-0.45549 0.46560 0.59722-0.23269
  -2   1   4411536.8 4009.67   1-0.84685 0.65104-0.42393 0.44775-0.32113 0.61291
  -2   1   321962.16  773.32   1-0.78044 0.58264-0.45887 0.49657-0.42466 0.64337
  -2   1   322995.70  809.13   1 0.57244-0.76996-0.28552 0.32343 0.76862-0.55003
   2  -1  -321993.01  764.10   1 0.68613-0.48860-0.52134 0.48349 0.50736-0.72628
   2  -1  -2287129.4 2673.15   1 0.29083-0.09137-0.83098 0.77919 0.47421-0.62008
  -2   1   2296884.7 2775.27   1-0.48017 0.28066-0.86751 0.91936-0.12982 0.27567
   2  -1  -2298800.0 2841.71   1 0.60179-0.40230-0.33640 0.28457 0.72434-0.87015
   2  -1  -1457970.0 4282.61   1-0.12699 0.32849-0.97485 0.90913 0.18311-0.25604
  -2   1   1450510.2 4248.08   1-0.53508 0.33352-0.51542 0.58115-0.66934 0.74231
  -2   1   1457325.4 4304.74   1 0.26388-0.46532 0.13095-0.06526 0.95562-0.88273
   2  -1   037474.96  817.42   1-0.25945 0.46290-0.96293 0.88333 0.07374-0.07374
  -2   1   036916.92  802.13   1 0.02898-0.23236 0.37357-0.29394 0.92714-0.92714
   2  -1   195488.39 1996.49   1-0.30722 0.51264-0.95109 0.85763 0.03210 0.04080
  -2   1  -186127.09 1800.88   1-0.48351 0.27811-0.86514 0.95865-0.13319 0.06026
  -2   1  -194240.20 1930.43   1-0.27402 0.06854 0.38625-0.29266 0.88074-0.95375
   2  -1   191477.95 1871.53   1 0.04408 0.16137 0.47917-0.57276 0.87661-0.80367
  -2   1  -192490.49 1907.91   1-0.17684-0.02850 0.54892-0.45535 0.81694-0.88985
  -2   1  -2418647.3 3948.54   1-0.60374 0.39623 0.22526-0.11768 0.76468-0.91057
   2  -1   2396430.0 3739.62   1-0.23211 0.43960 0.40139-0.50895 0.88600-0.74007
  -2   1  -2423027.1 4043.37   1-0.32586 0.11854 0.65270-0.54523 0.68394-0.82985
   2  -1   393706.57 2002.80   1-0.31825 0.52758-0.94774 0.82647 0.02231 0.19643
  -2   1  -392334.14 1900.83   1-0.81817 0.60874 0.05861 0.06287 0.57197-0.79086
   2  -1   391370.66 1884.06   1-0.44188 0.65133 0.31437-0.43580 0.84018-0.62116
  -2   1  -384820.07 1865.62   1-0.42826 0.21905 0.70951-0.58814 0.55962-0.77852
   2  -1   4142886.8 2307.16   1-0.30528 0.51657-0.95166 0.81649 0.03382 0.25784
  -2   1  -4138301.3 2121.56   1-0.92224 0.71089-0.07484 0.21023 0.37929-0.67114
   2  -1   4134852.6 2068.61   1-0.57288 0.78436 0.24396-0.37944 0.78248-0.49070
  -2   1  -4141013.1 2218.19   1-0.49977 0.28861 0.73964-0.60436 0.45071-0.74259
   2  -1   526697.00 1028.76   1-0.28572 0.49898-0.95695 0.80788 0.05099 0.31359
  -2   1  -524448.01  888.54   1-0.96109 0.74802-0.17369 0.32305 0.21476-0.57973
   2  -1   522785.54  817.89   1-0.64853 0.86199 0.19630-0.34574 0.73543-0.37071
  -2   1  -525003.59 1088.06   1-0.55164 0.33846 0.75450-0.60533 0.35554-0.72042
   2  -1   684053.69 1711.37   1-0.26129 0.47649-0.96255 0.79963 0.07215 0.36541
  -2   1  -678771.54 1475.19   1-0.96579 0.75068-0.24656 0.40996 0.08025-0.51807
   2  -1   7 1184.00  320.06   1-0.23319 0.45035-0.96766 0.79086 0.09611 0.41438
  -2   1  -7  550.25  234.48   1-0.95260 0.73555-0.30247 0.47981-0.03253-0.47826
  -2   1  -7 1217.56  323.53   1-0.62089 0.40385 0.75933-0.58237 0.19467-0.70550
   2  -1   856225.01 1141.95   1-0.20196 0.42108-0.97172 0.78103 0.12227 0.46116
  -2   1  -849433.68 1331.73   1-0.92893 0.71008-0.34684 0.53817-0.12952-0.45402
  -2   1  -853717.30 1063.13   1-0.64465 0.42568 0.75431-0.56345 0.12422-0.70803
   2  -1   928163.25 1133.91   1-0.16796 0.38903-0.97428 0.76970 0.15019 0.50616
  -2   1  -922816.11 1592.96   1-0.89827 0.67751-0.38312 0.58841-0.21519-0.44130
  -2   1  -926550.02 2522.71   1-0.66357 0.44256 0.74583-0.54116 0.05820-0.71503
   2  -1  10  188.27  297.80   1-0.13140 0.35443-0.97492 0.75645 0.17961 0.54968
  -2   1 -10  610.30  164.51   1-0.86219 0.63950-0.41345 0.63269-0.29271-0.43672
  -2   1 -10  558.24  369.27   1-0.67848 0.45552 0.73460-0.51604-0.00441-0.72539
   2  -1  11  735.93  366.47   1-0.09236 0.31735-0.97325 0.74090 0.21032 0.59189
  -2   1 -11  726.21  286.12   1-0.82142 0.59670-0.43900 0.67245-0.36405-0.43788
  -2   1 -11 1281.52  471.11   1-0.69006 0.46515 0.72086-0.48842-0.06449-0.73829
   2   0 -12 1929.66  453.61   1-0.53802 0.70047-0.51516 0.68255-0.66718-0.20843
  -2   0  12 1596.42  470.37   1 0.68889-0.85054-0.52983 0.36250 0.49466 0.38101
   2   0 -11  908.32  344.72   1-0.56523 0.72961-0.51235 0.66580-0.64652-0.15612
  -2   0  11 1186.73  294.34   1 0.69376-0.85740-0.54586 0.39247 0.46980 0.33289
  -2   0  1016224.62  570.55   1-0.12856-0.03738-0.97488 0.83601 0.18186 0.54742
   2   0 -1015310.99  627.82   1-0.58772 0.75401-0.50951 0.64901-0.62847-0.10120
  -2   0  1016278.40  717.93   1 0.69740-0.86303-0.55903 0.41959 0.44845 0.28128
  -2   0   9  122.87  123.85   1-0.19758 0.02967-0.97216 0.84719 0.12590 0.53045
   2   0  -9  107.91  207.55   1-0.60514 0.77336-0.50696 0.63251-0.61383-0.04288
  -2   0   9  612.14  409.27   1 0.69991-0.86753-0.56901 0.44352 0.43166 0.22509
  -2   0   893177.37 1923.56   1 0.79445-0.96386 0.15507-0.26637 0.58719-0.00368
  -2   0   8111890.6 2266.76   1-0.26902 0.09921-0.96090 0.84969 0.06549 0.51785
   2   0  -8109403.8 2340.61   1-0.61682 0.78696-0.50507 0.61667-0.60367 0.01993
  -2   0   8110761.5 2341.35   1 0.70135-0.87096-0.57516 0.46360 0.42105 0.16272
  -2   0   772552.54 1423.30   1 0.79437-0.96579 0.14990-0.24728 0.58864-0.07807
  -2   0   784049.46 1541.70   1-0.34487 0.17309-0.93864 0.84134-0.00160 0.51203
   2   0  -776805.03 1933.18   1-0.62154 0.79361-0.50427 0.60191-0.59949 0.08871
  -2   0   780108.35 1572.51   1 0.70160-0.87320-0.57625 0.47864 0.41914 0.09166
  -2   0   653806.34 1118.52   1 0.79329-0.96672 0.11611-0.19958 0.59765-0.16002
  -2   0   660443.36 1253.49   1-0.42969 0.25596-0.89934 0.81593-0.08087 0.51838
   2   0  -656324.21 1247.48   1-0.61722 0.79122-0.50500 0.58870-0.60332 0.16551
  -2   0   659365.25 1313.05   1 0.70014-0.87374-0.56998 0.48631 0.43001 0.00782
  -2   0   544354.96 1513.20   1 0.78641-0.96212 0.03428-0.10392 0.61674-0.25201
  -2   0   545050.95 1541.05   1-0.53101 0.35539-0.82755 0.75811-0.18213 0.54676
   2   0  -545728.41 1643.68   1-0.60026 0.77618-0.50771 0.57745-0.61799 0.25315
  -2   0   542467.69 1479.13   1-0.66498 0.48918 0.74499-0.81442 0.05279 0.31210
  -2   0   547283.41 1653.60   1 0.69539-0.87098-0.55160 0.48188 0.46060-0.09573
   2   0  -4307643.0 2907.46   1 0.65692-0.47926 0.68033-0.62461 0.32494-0.61657
  -2   0   4293005.3 2769.01   1 0.75645-0.93409-0.13043 0.07472 0.64090-0.34912
  -2   0   4281145.0 2735.63   1-0.69261 0.51486 0.71686-0.77240-0.07995 0.37188
   2   0  -3772087.025777.64   1 0.78028-0.60083 0.34843-0.30669 0.51938-0.73819
  -2   0   3742852.624801.16   1 0.64596-0.82560-0.41995 0.37828 0.63746-0.41866
  -2   0   3718330.1 6755.59   1-0.72172 0.54183-0.48036 0.43842-0.49836 0.71707
  -2   0   3764916.925551.49   1 0.64537-0.82500-0.42216 0.38044 0.63660-0.41788
   2   0  -3760409.225400.48   1 0.70968-0.53011-0.65047 0.69234 0.27059-0.48952
   2   0  -2105985.2 2141.60   1 0.71282-0.53127-0.27054 0.29833 0.64706-0.79293
  -2   0   2101041.7 2044.55   1 0.38976-0.57131-0.75292 0.72514 0.53026-0.38438
  -2   0   2103367.1 2117.68   1-0.58187 0.40019-0.51029 0.48239-0.63325 0.77919
  -2   0   2103622.1 2135.60   1 0.38208-0.56367 0.52048-0.54838 0.76361-0.61769
  -2   0   2104437.8 2125.69   1 0.53605-0.71760-0.22641 0.19860 0.81325-0.66753
   2   0  -2101824.4 2069.40   1 0.67356-0.49199-0.48651 0.51440 0.55643-0.70237
   2   0  -1653223.7 6104.24   1 0.37271-0.18916 0.52022-0.50627 0.76841-0.84137
  -2   0   086608.57 1783.18   1-0.09276-0.09276-0.97328 0.97328 0.21001-0.21001
  -2   0   083687.23 1726.85   1-0.09277-0.09277 0.44552-0.44552 0.89044-0.89044
   2   0   082759.94 1701.55   1 0.09275 0.09275 0.48887-0.48887 0.86740-0.86740
  -2   0   082922.93 1691.81   1-0.09273-0.09273 0.48142-0.48142 0.87156-0.87156
   2   0   082324.81 1678.11   1 0.09273 0.09273 0.31232-0.31232 0.94543-0.94543
  -2   0  -1654027.7 6135.87   1-0.22147 0.03399-0.96938 0.98327 0.10599-0.17892
  -2   0  -1678460.7 6342.11   1-0.41475 0.22723 0.32722-0.31330 0.84905-0.92206
   2   0   1662660.6 6191.98   1-0.20659 0.39414 0.41024-0.42419 0.88826-0.81529
  -2   0  -1671485.9 6271.41   1-0.32609 0.13863 0.65284-0.63894 0.68370-0.75666
  -2   0  -2245421.9 2406.16   1-0.31301 0.12361-0.94936 0.97716 0.02697-0.17281
  -2   0  -2255857.8 2464.27   1-0.67692 0.48738 0.17669-0.14878 0.71452-0.86041
  -2   0  -2251657.6 2438.28   1-0.45217 0.26280 0.72062-0.69281 0.52558-0.67151
   2   0   396874.62 2044.01   1-0.16306 0.35446-0.97449 0.93283 0.15417 0.06461
  -2   0  -394203.69 1974.75   1-0.38370 0.19235-0.92270 0.96440-0.03730-0.18145
  -2   0  -396735.33 1997.27   1-0.83862 0.64718 0.03733 0.00445 0.54343-0.76231
   2   0   395233.96 1968.32   1-0.60078 0.79230 0.22709-0.26896 0.76647-0.54764
  -2   0  -399249.30 2070.30   1-0.52580 0.33449 0.74797-0.70625 0.40504-0.62395
   2   0   4308686.2 3091.93   1-0.17412 0.36747-0.97396 0.91841 0.14518 0.14653
  -2   0  -4311171.5 3014.79   1-0.92150 0.72808-0.07353 0.12925 0.38134-0.67319
   2   0   4305184.0 2968.66   1-0.68958 0.88307 0.16753-0.22329 0.70455-0.41269
  -2   0  -4310951.0 3083.61   1-0.57386 0.38056 0.75835-0.70277 0.30916-0.60106
   2   0   5141621.1 2280.30   1-0.17128 0.36659-0.97411 0.90468 0.14749 0.21714
  -2   0  -5147950.6 2306.39   1-0.95757 0.76245-0.15909 0.22876 0.24028-0.60525
   2   0   5138670.9 2171.67   1-0.73817 0.93366 0.13032-0.20002 0.66189-0.29707
  -2   0  -5142197.7 2484.19   1-0.60799 0.41276 0.76026-0.69078 0.22878-0.59366
   2   0   6171985.0 3513.98   1-0.15914 0.35641-0.97463 0.89131 0.15735 0.28022
  -2   0  -6173633.7 3492.93   1-0.96676 0.76959-0.22523 0.30892 0.12100-0.55883
  -2   0  -6168719.1 3446.54   1-0.63365 0.43649 0.75725-0.67389 0.15825-0.59610
   2   0   738412.33 1035.13   1-0.14031 0.33954-0.97496 0.87776 0.17249 0.33800
  -2   0  -735954.51  929.32   1-0.96036 0.76126-0.27817 0.37582 0.01762-0.52842
   2   0   8113372.6 1871.79   1-0.11635 0.31753-0.97456 0.86347 0.19153 0.39189
  -2   0  -8106143.6 1679.77   1-0.94398 0.74294-0.32166 0.43326-0.07356-0.51020
  -2   0  -8105557.1 1797.36   1-0.66951 0.46837 0.74198-0.63089 0.03469-0.61854
   2   0   9102409.2 1949.19   1-0.08820 0.29134-0.97294 0.84796 0.21355 0.44280
  -2   0  -995620.38 1791.53   1-0.92054 0.71771-0.35824 0.48387-0.15574-0.50075
  -2   0  -998335.91 1907.27   1-0.68209 0.47900 0.73094-0.60596-0.02171-0.63510
   2   0  1010840.81  844.06   1-0.05612 0.26111-0.96961 0.83095 0.23809 0.49125
  -2   0 -1010044.91 1027.83   1-0.89154 0.68678-0.38954 0.52913-0.23110-0.49833
  -2   0 -1010378.55  815.96   1-0.69196 0.48692 0.71792-0.57906-0.07590-0.65390
   2   0  1118078.11 1173.42   1-0.02112 0.22806-0.96416 0.81163 0.26447 0.53780
  -2   0 -1114424.23 1862.26   1-0.85767 0.65099-0.41666 0.57020-0.30132-0.50106
   2   0  12  402.91  248.55   1 0.01693 0.19195-0.95610 0.78970 0.29254 0.58267
  -2   0 -12 1133.14  273.12   1-0.81936 0.61064-0.44012 0.60790-0.36733-0.50751
  -2  -1  12  599.17  290.79   1 0.47588-0.61990 0.51983-0.76689 0.70943 0.16608
  -2  -1  12  282.06  256.01   1 0.69870-0.84240-0.56409 0.31708 0.44000 0.43567
  -2  -1  1124978.39 1076.38   1 0.70312-0.84881-0.58330 0.35024 0.40666 0.39604
  -2  -1  10 6900.64  499.42   1-0.26287 0.11486-0.96222 0.74376 0.07079 0.65849
   2   1 -10 6250.20  484.11   1-0.52722 0.67556-0.51609 0.73526-0.67504-0.05464
  -2  -1  10 6779.00  527.11   1 0.70625-0.85393-0.60022 0.38110 0.37540 0.35432
  -2  -1   928718.25  653.08   1-0.33564 0.18576-0.94196 0.73729 0.00673 0.64953
   2   1  -930768.39  800.98   1-0.54384 0.69410-0.51461 0.71984-0.66287 0.00616
  -2  -1   929797.28  735.57   1 0.70783-0.85748-0.61561 0.41032 0.34638 0.31041
  -2  -1   8  384.16  147.00   1-0.40958 0.25775-0.91018 0.71941-0.06163 0.64498
   2   1  -8   90.62  231.63   1-0.55343 0.70562-0.51365 0.70493-0.65564 0.07190
  -2  -1   8  -14.01  235.94   1 0.70900-0.86064-0.62771 0.43637 0.32139 0.26242
  -2  -1   7 1674.58  267.96   1 0.79393-0.94738 0.13219-0.30917 0.59346-0.08289
  -2  -1   7 1779.29  205.13   1-0.48673 0.33304-0.86282 0.68598-0.13644 0.64692
   2   1  -7 2175.95  271.12   1-0.55432 0.70843-0.51356 0.69088-0.65496 0.14418
  -2  -1   7 3256.97  358.49   1 0.70953-0.86317-0.63687 0.45949 0.30157 0.20926
  -2  -1   611661.70  953.50   1 0.79297-0.94843 0.10954-0.27261 0.59932-0.16168
  -2  -1   613368.89  583.94   1-0.56663 0.41097-0.79392 0.63097-0.22044 0.65800
   2   1  -612649.65  581.31   1-0.54366 0.69970-0.51463 0.67801-0.66300 0.22519
  -2  -1   613648.83  653.41   1 0.70969-0.86533-0.64221 0.47878 0.28966 0.14820
   2   1  -5122401.6 1900.70   1 0.65070-0.49290 0.68990-0.54065 0.31718-0.68171
  -2  -1   5112924.5 1764.32   1 0.78885-0.94662 0.05769-0.20696 0.61186-0.24712
   2   1  -5125415.6 1984.71   1-0.51659 0.67455-0.51691 0.66634-0.68259 0.31775
  -2  -1   5109630.8 1743.24   1-0.86070 0.70268-0.41451 0.26506-0.29556 0.66028
  -2  -1   5112813.3 1781.12   1-0.57411 0.41614 0.75838-0.90755 0.30860 0.05627
  -2  -1   5128309.0 2036.35   1 0.70967-0.86732-0.64168 0.49221 0.29085 0.07403
   2   1  -411856.36  563.98   1 0.73172-0.57222 0.53217-0.39694 0.42587-0.71763
  -2  -1   411792.85  438.90   1 0.77638-0.93607-0.03590-0.09943 0.62923-0.33744
  -2  -1   410815.55  420.48   1-0.78290 0.62286-0.45780 0.32223-0.42126 0.71288
  -2  -1   411745.63  488.41   1 0.46449-0.62417 0.52025-0.65569 0.71664-0.42480
  -2  -1   412385.00  462.87   1-0.60209 0.44218 0.76034-0.89562 0.24363 0.04827
  -2  -1   411779.38  458.43   1 0.70916-0.86880-0.63005 0.49454 0.31639-0.02448
   2   1  -350012.82 1049.33   1 0.78783-0.62635 0.29343-0.17209 0.54148-0.76030
  -2  -1   348010.38 1019.16   1-0.66184 0.50003-0.49633 0.37481-0.56178 0.78069
  -2  -1   348644.90 1030.93   1-0.63547 0.47363 0.75685-0.87823 0.15280 0.06612
  -2  -1   349298.13 1038.35   1 0.70432-0.86595-0.58932 0.46781 0.39575-0.17683
   2   1  -247416.76  991.14   1 0.77469-0.61115-0.04551 0.15299 0.63068-0.77658
  -2  -1   246823.25  978.87   1 0.65366-0.81730-0.40522 0.29779 0.63915-0.49328
  -2  -1   246463.19  995.00   1 0.22428-0.38787 0.50898-0.61651 0.83104-0.68517
   2   1  -244422.49  938.79   1 0.47419-0.31058 0.51990-0.41236 0.71052-0.85644
  -2  -1   245208.96  935.81   1-0.68237 0.51865 0.73063-0.83809-0.02311 0.16907
  -2  -1   246702.49  959.51   1 0.65462-0.81827-0.44262 0.33516 0.61282-0.46701
  -2  -1   1216980.2 2098.73   1-0.00136-0.16423 0.46906-0.56267 0.88316-0.81019
  -2  -1   1217168.5 2021.15   1 0.15383-0.31943 0.25058-0.34415 0.95579-0.88290
   2   1  -1215141.2 2001.51   1 0.64385-0.47826-0.41888 0.51244 0.64030-0.71321
   2   1   0 4319.45  196.00   1 0.43842-0.27090-0.70650 0.78611 0.55554-0.55554
  -2  -1   0 4541.45  198.88   1 0.29182-0.45937-0.83029 0.75069 0.47480-0.47480
  -2  -1   0 4536.72  273.84   1-0.28447 0.11688 0.38228-0.46195 0.87916-0.87916
  -2  -1   0 4409.98  168.48   1-0.44340 0.27583 0.71666-0.79632 0.53831-0.53831
   2   1   0 4354.62  169.48   1-0.14724 0.31479 0.52585-0.44622 0.83773-0.83773
   2   1   1 3982.50  215.55   1 0.25148-0.08201-0.85671 0.92242 0.45031-0.37737
  -2  -1  -1 3735.18  200.11   1 0.09754-0.26704-0.93172 0.86600 0.34982-0.42275
   2   1   1 4110.97  223.53   1-0.38744 0.55701 0.33965-0.27390 0.85704-0.78403
  -2  -1  -1 3753.04  212.08   1-0.55580 0.38624 0.75535-0.82115 0.34715-0.42013
   2   1   1 3525.48  160.77   1-0.40982 0.57937 0.70042-0.63467 0.58433-0.51138
   2   1   2475122.8 4507.82   1 0.12237 0.04906-0.92218 0.97403 0.36688-0.22101
   2   1   2469080.9 4437.80   1-0.57923 0.75079 0.24019-0.18843 0.77897-0.63308
  -2  -1  -2478058.1 4535.18   1-0.59922 0.42773 0.76031-0.81222 0.25070-0.39665
   2   1   348765.15 1069.16   1 0.04348 0.12991-0.94917 0.98716 0.31173-0.09292
  -2  -1  -345726.93 1003.82   1-0.18641 0.01295-0.97313 0.93519 0.13511-0.35390
  -2  -1  -349984.48 1102.84   1-0.62538 0.45196 0.75875-0.79676 0.18218-0.40111
   2   1   343297.57  948.96   1-0.50041 0.67384 0.73986-0.70192 0.44963-0.23072
   2   1   4262359.6 2630.43   1-0.00088 0.17623-0.96015 0.98427 0.27948 0.01225
  -2  -1  -4246256.7 2448.77   1-0.28582 0.11049-0.95692 0.93296 0.05090-0.34258
  -2  -1  -4252656.5 2500.96   1-0.92728 0.75178-0.08404 0.06009 0.36481-0.65666
   2   1   4246902.5 2451.00   1-0.75560 0.93115 0.11596-0.09204 0.64468-0.35282
  -2  -1  -4257519.1 2622.22   1-0.64436 0.46901 0.75440-0.77852 0.12513-0.41703
   2   1   5171745.1 2699.59   1-0.02234 0.19964-0.96438 0.97463 0.26356 0.10110
  -2  -1  -5174110.8 2705.90   1-0.95709 0.77991-0.15733 0.14732 0.24332-0.60829
  -2  -1  -5175379.0 2770.51   1-0.65942 0.48205 0.74814-0.75840 0.07378-0.43869
   2   1   676747.24 1676.87   1-0.02826 0.20751-0.96542 0.96181 0.25914 0.17846
  -2  -1  -679715.65 1694.99   1-0.96658 0.78748-0.21623 0.22015 0.13770-0.57566
  -2  -1  -665212.67 1460.88   1-0.67171 0.49240 0.74036-0.73673 0.02553-0.46342
   2   1   7272921.8 4832.90   1-0.02318 0.20439-0.96453 0.94705 0.26293 0.24760
  -2  -1  -7280439.2 4964.91   1-0.96327 0.78211-0.26479 0.28274 0.04449-0.55529
  -2  -1  -7268597.6 4798.94   1-0.68192 0.50065 0.73112-0.71361-0.02086-0.49000
   2   1   818590.10 1091.09   1-0.00996 0.19311-0.96202 0.93068 0.27277 0.31070
  -2  -1  -820282.33 1167.60   1-0.95121 0.76811-0.30593 0.33784-0.03984-0.54392
  -2  -1  -818351.55 1068.17   1-0.69034 0.50713 0.72045-0.68904-0.06612-0.51771
   2   1   951258.26 1110.62   1 0.00960 0.17549-0.95782 0.91261 0.28718 0.36922
  -2  -1  -949812.48 1082.12   1-0.93260 0.74770-0.34136 0.38733-0.11713-0.53936
   2   1  1065028.99 1986.86   1 0.03434 0.15270-0.95168 0.89260 0.30515 0.42418
  -2  -1 -1062048.87 2056.42   1-0.90866 0.72184-0.37231 0.43224-0.18897-0.54046
   2   1  1146673.51 2248.15   1 0.06351 0.12548-0.94323 0.87029 0.32599 0.47628
  -2  -1 -1146462.22 2291.22   1-0.88003 0.69129-0.39962 0.47350-0.25658-0.54580
   2   1  12 2486.03  392.10   1 0.09665 0.09429-0.93204 0.84523 0.34921 0.52600
  -2  -1 -12 2199.49  484.50   1-0.84698 0.65633-0.42384 0.51168-0.32088-0.55444
  -2  -2  1115709.97  589.84   1-0.28190 0.15392-0.95790 0.64586 0.05432 0.74777
  -2  -2  1116584.81  656.13   1 0.42094-0.54893 0.52096-0.83370 0.74256 0.05999
  -2  -2  1119809.45  749.65   1 0.70792-0.83563-0.61635 0.30345 0.34489 0.45785
  -2  -2  1049774.72 1736.43   1-0.35222 0.22229-0.93587 0.63773-0.00829 0.73747
  -2  -2  1047626.92 1672.93   1 0.44302-0.57298 0.52077-0.81956 0.72974-0.00013
  -2  -2  1052654.38 1863.60   1 0.70950-0.83921-0.63616 0.33721 0.30315 0.42661
  -2  -2   9 1539.02  221.96   1-0.42175 0.28986-0.90374 0.61950-0.07324 0.72951
  -2  -2   9 1353.85  191.07   1 0.45744-0.58935 0.52046-0.80530 0.72101-0.06437
  -2  -2   9 1610.44  266.93   1 0.70958-0.84130-0.65413 0.36914 0.26189 0.39489
  -2  -2   8116953.1 3603.30   1-0.49146 0.35772-0.85937 0.58901-0.14122 0.72463
  -2  -2   8112941.3 3478.84   1 0.46282-0.59669 0.52030-0.79119 0.71768-0.13400
  -2  -2   743880.24 1094.85   1-0.56014 0.42444-0.80044 0.54397-0.21335 0.72383
  -2  -2   741545.32 1047.00   1 0.45682-0.59265 0.52047-0.77741 0.72139-0.21067
   2   2  -6177822.9 3161.35   1 0.62895-0.49100 0.72105-0.47827 0.29068-0.72812
  -2  -2   6168015.2 3000.28   1 0.43548-0.57326 0.52087-0.76386 0.73419-0.29643
   2   2  -553609.03 1896.04   1 0.69319-0.55333 0.61708-0.38823 0.37241-0.73694
  -2  -2   549371.98 1710.31   1 0.78799-0.92780 0.04889-0.27779 0.61373-0.24900
  -2  -2   553870.92 1853.36   1-0.85290 0.71281-0.41993 0.19081-0.31017 0.67489
  -2  -2   555828.87 1930.94   1 0.39229-0.53203 0.52070-0.74974 0.75826-0.39346
   2   2  -559053.45 2040.78   1-0.69598 0.83592 0.71073-0.48192-0.10228-0.26262
  -2  -2   550477.12 1743.32   1-0.42657 0.28664 0.70869-0.93754 0.56194-0.19710
   2   2  -4 3595.01  275.31   1 0.75040-0.60887 0.47792-0.26311 0.45660-0.74836
  -2  -2   4 3179.77  181.69   1 0.77957-0.92131-0.01643-0.19853 0.62609-0.33430
  -2  -2   4 3334.81  343.00   1-0.75766 0.61554-0.46804 0.25281-0.45483 0.74645
  -2  -2   4 3767.46  254.35   1 0.31686-0.45856 0.51751-0.73260 0.79484-0.50300
   2   2  -4 4109.52  234.25   1-0.69001 0.83190 0.72094-0.50602-0.06417-0.22775
  -2  -2   4 3535.06  368.43   1-0.41650 0.27465 0.70381-0.91875 0.57547-0.28364
   2   2  -318848.83  970.95   1 0.78746-0.64394 0.29672-0.09578 0.54023-0.75904
  -2  -2   317796.60  634.08   1 0.75961-0.90328-0.11750-0.08353 0.63966-0.42082
  -2  -2   316199.35  568.46   1-0.60468 0.46082-0.50703 0.30583-0.61422 0.83313
  -2  -2   318598.63  665.79   1 0.19422-0.33787 0.50519-0.70631 0.84086-0.62206
   2   2  -318432.43  655.14   1-0.68337 0.82722 0.72952-0.52848-0.02813-0.19080
  -2  -2   318332.75  632.93   1-0.37442 0.23061 0.68141-0.88244 0.62887-0.41000
   2   2  -2 9494.95  369.01   1 0.78977-0.64418 0.06786 0.11924 0.60962-0.75551
  -2  -2   2 9371.46  355.44   1 0.71644-0.86217-0.26072 0.07368 0.64709-0.50122
  -2  -2   2 8475.42  331.61   1 0.01051-0.15614 0.47178-0.65896 0.88165-0.73578
   2   2  -2 8636.86  327.56   1 0.36934-0.22372 0.52011-0.33293 0.77010-0.91602
   2   2  -2 9266.35  338.37   1-0.67731 0.82310 0.73569-0.54854 0.00099-0.14695
  -2  -2   2 9119.32  318.89   1-0.20873 0.06305 0.57292-0.76007 0.79258-0.64677
  -2  -2   124407.23  838.63   1 0.63551-0.78315-0.43945 0.26635 0.63482-0.56188
   2   2  -124802.92  853.13   1 0.05923 0.08837 0.48231-0.30906 0.87399-0.94692
  -2  -2   0411419.0 3887.24   1 0.50879-0.65841-0.62803 0.46881 0.58881-0.58881
  -2  -2   0440200.1 4160.88   1-0.47627 0.32664 0.29732-0.45666 0.82749-0.82749
   2   2   0421837.5 3930.31   1-0.64384 0.79352 0.75457-0.59517 0.12682-0.12682
   2   2   0430376.6 3994.42   1 0.67116-0.52149-0.48036 0.63972 0.56461-0.56461
   2   2   1 3650.21  220.61   1 0.49743-0.34588-0.64172 0.78705 0.58373-0.51079
  -2  -2  -1 3234.82  193.88   1 0.34842-0.49997-0.78805 0.64272 0.50751-0.58044
  -2  -2  -1 4824.86  252.87   1-0.67661 0.52499 0.17691-0.32231 0.71477-0.78771
   2   2   1 3430.36  188.57   1-0.63593 0.78754 0.75674-0.61124 0.15140-0.07842
   2   2   2295641.1 2860.33   1 0.36916-0.21568-0.77089 0.90233 0.51906-0.37318
  -2  -2  -2268115.6 2606.77   1-0.81098 0.65739 0.06574-0.19722 0.58135-0.72728
   2   2   2271090.7 2640.02   1-0.62422 0.77776 0.75891-0.62731 0.18543-0.03948
   2   2   347276.67 1041.67   1 0.26784-0.11239-0.84636 0.96385 0.46035-0.24153
   2   2   343099.51  944.05   1-0.74330 0.89890 0.12616-0.00862 0.65694-0.43805
  -2  -2  -344413.81 1000.58   1-0.69383 0.53829 0.71476-0.83248-0.08775-0.13118
   2   2   342649.12  962.95   1-0.61086 0.76633 0.76014-0.64243 0.22140-0.00247
  -2  -2  -4114828.1 2378.49   1-0.10830-0.04917-0.97422 0.87056 0.19786-0.48958
   2   2   4100786.3 2105.05   1-0.79197 0.94957 0.08387 0.01971 0.60476-0.31290
  -2  -2  -4114951.1 2432.11   1-0.69371 0.53622 0.71498-0.81881-0.08696-0.20496
   2   2   5158299.0 2481.67   1 0.15128 0.00803-0.91005 0.99974 0.38588-0.02119
  -2  -2  -5172158.9 2688.65   1-0.95900 0.79977-0.16464 0.07494 0.23063-0.59560
  -2  -2  -5171231.2 2719.43   1-0.69562 0.53618 0.71144-0.80138-0.09978-0.26511
   2   2   6 5222.50  375.14   1 0.12527 0.03604-0.92100 0.99698 0.36884 0.06875
  -2  -2  -6 5740.89  361.42   1-0.96657 0.80543-0.21614 0.14037 0.13786-0.57582
   2   2   7125124.6 2324.04   1 0.11412 0.04914-0.92546 0.98756 0.36124 0.14930
  -2  -2  -7130966.7 2433.52   1-0.96412 0.80089-0.25985 0.19811 0.05428-0.56507
   2   2   887850.83 1891.88   1 0.11420 0.05101-0.92542 0.97367 0.36129 0.22217
  -2  -2  -892411.35 2009.79   1-0.95434 0.78918-0.29784 0.25005-0.02282-0.56094
   2   2   9 8730.16  588.90   1 0.12304 0.04412-0.92191 0.95628 0.36733 0.28907
  -2  -2  -9 9934.04  627.49   1-0.93878 0.77169-0.33126 0.29742-0.09457-0.56216
   2   2  1055162.41 1779.87   1 0.13893 0.03018-0.91528 0.93579 0.37809 0.35125
  -2  -2 -1048014.78 2482.50   1-0.91836 0.74947-0.36098 0.34125-0.16214-0.56729
   2   2  1115410.16  866.13   1 0.16076 0.01013-0.90572 0.91197 0.39219 0.41012
  -2  -2 -1111909.22 1250.84   1-0.89357 0.72276-0.38765 0.38187-0.22638-0.57600
   2   2  1113704.79  826.59   1 0.70970-0.53802-0.64957 0.65543 0.27272 0.53002
   2   2  1238977.29 1646.64   1 0.18767-0.01484-0.89263 0.88497 0.40985 0.46539
   2   2  1240590.23 1765.13   1 0.70938-0.53570-0.63368 0.62559 0.30858 0.56714
  -2  -3  11  931.37  286.25   1-0.34462 0.23463-0.93873 0.54713-0.00138 0.80348
  -2  -3  11  922.97  276.39   1 0.70970-0.81948-0.64322 0.25063 0.28736 0.51538
  -2  -3  10123955.7 5692.29   1-0.41118 0.29922-0.90936 0.53165-0.06315 0.79233
  -2  -3  10126203.216075.55   1 0.32673-0.43870 0.51813-0.89656 0.79043-0.06082
  -2  -3   9  773.00  284.80   1-0.47645 0.36267-0.87011 0.50623-0.12609 0.78242
  -2  -3   9  784.92  247.20   1 0.33695-0.45088 0.51870-0.88319 0.78574-0.12910
  -2  -3   8127931.4 2236.22   1-0.53925 0.42351-0.82022 0.47023-0.19087 0.77428
  -2  -3   8129191.6 2212.75   1 0.33512-0.45101 0.51861-0.86914 0.78659-0.20291
  -2  -3   718075.43 1007.77   1-0.59980 0.48209-0.75753 0.42144-0.25761 0.76809
  -2  -3   719151.62 1045.81   1 0.31798-0.43583 0.51758-0.85416 0.79434-0.28362
   2   3  -719789.85 1090.82   1-0.69013 0.80825 0.72076-0.38448-0.06490-0.44596
   2   3  -622878.44 1373.91   1 0.65817-0.53818 0.67837-0.35599 0.32651-0.76395
  -2  -3   617154.40 1003.06   1-0.91747 0.79723-0.36208 0.03935-0.16471 0.60238
  -2  -3   621954.18 1289.55   1 0.28031-0.40011 0.51472-0.83735 0.81023-0.37247
   2   3  -625129.94 1882.48   1-0.67707 0.79714 0.73590-0.41352 0.00206-0.43994
   2   3  -5216289.0 4448.26   1 0.71033-0.58842 0.58156-0.27311 0.39649-0.76102
  -2  -3   5194433.5 3849.25   1-0.85447 0.73231-0.41886 0.11009-0.30728 0.67200
  -2  -3   5215143.7 4260.42   1 0.21408-0.33581 0.50775-0.81639 0.83447-0.46981
   2   3  -5213465.4 4307.80   1-0.65769 0.77971 0.74901-0.44051 0.08004-0.44495
  -2  -3   5202112.9 4003.47   1-0.24830 0.12645 0.60139-0.90999 0.75939-0.39485
   2   3  -463251.13 2196.71   1 0.75524-0.63168 0.46175-0.16736 0.46518-0.75694
  -2  -3   461459.06 2087.82   1-0.74251 0.61831-0.47353 0.17865-0.47373 0.76535
  -2  -3   465318.01 2227.03   1 0.10875-0.23246 0.49179-0.78651 0.86388-0.57215
   2   3  -463956.25 2182.65   1-0.62669 0.75070 0.75855-0.46387 0.17848-0.47038
  -2  -3   465755.63 2236.67   1-0.19190 0.06808 0.56037-0.85503 0.80570-0.51407
   2   3  -351495.51 1465.76   1 0.78489-0.65934 0.31746-0.03693 0.53211-0.75093
  -2  -3   346640.22 1031.18   1 0.76395-0.88967-0.09880-0.18185 0.63766-0.41882
  -2  -3   348860.64 1023.49   1-0.55685 0.43094-0.51329 0.23240-0.65302 0.87193
  -2  -3   351304.51 1093.11   1-0.04530-0.08040 0.45827-0.73912 0.88765-0.66875
   2   3  -351315.57 1100.26   1-0.56957 0.69551 0.75774-0.47696 0.31842-0.53735
  -2  -3   350118.64 1049.81   1-0.07457-0.05131 0.46614-0.74692 0.88155-0.66292
  -2  -3   231870.91  703.10   1-0.24472 0.11702 0.39688-0.66378 0.88463-0.73870
   2   3  -230847.66  674.72   1 0.27791-0.15027 0.51451-0.24769 0.81119-0.95711
   2   3  -230744.33  648.94   1-0.43595 0.56383 0.71319-0.44640 0.54891-0.69484
  -2  -3   231780.00  666.28   1 0.16325-0.29107 0.24076-0.50754 0.95675-0.81097
  -2  -3   115589.43  572.13   1 0.68620-0.81593-0.33628 0.08351 0.64501-0.57207
  -2  -3   115650.91  577.13   1-0.45916 0.32947 0.30591-0.55885 0.83401-0.76100
   2   3  -115355.27  551.26   1-0.05632 0.18601 0.45541-0.20246 0.88849-0.96146
   2   3  -115277.55  521.02   1-0.06737 0.19715 0.45999-0.20713 0.88536-0.95824
  -2  -3   115434.13  526.36   1 0.51476-0.64450-0.19367-0.05910 0.83517-0.76230
  -2  -3   0226279.3 2211.20   1 0.60637-0.73802-0.48995 0.25113 0.62630-0.62630
   2   3   0223450.2 2164.04   1-0.35749 0.48916 0.35272-0.11371 0.86474-0.86474
   2   3   0235201.5 2219.75   1 0.43976-0.30806-0.08672 0.32558 0.89391-0.89391
  -2  -3   0232615.1 2200.77   1 0.69100-0.82272-0.53657 0.29753 0.48435-0.48435
   2   3   1 8217.32  341.02   1 0.64347-0.50991-0.42466 0.64959 0.63686-0.56392
  -2  -3  -1 8142.34  354.70   1-0.77794 0.64428 0.09662-0.32171 0.62086-0.69382
   2   3   1 7157.33  299.52   1-0.56799 0.70163 0.24684-0.02177 0.78514-0.71220
   2   3   1 8002.12  309.15   1 0.64677-0.51314-0.42518 0.65022 0.63316-0.56025
   2   3   2 7301.07  347.27   1 0.55091-0.41543-0.57339 0.78443 0.60638-0.46052
  -2  -3  -2 6257.42  265.79   1 0.35597-0.49156-0.78191 0.57087 0.51174-0.65762
  -2  -3  -2 6526.67  317.33   1-0.86427 0.72861 0.00815-0.21928 0.50294-0.64887
   2   3   2 6518.55  307.05   1-0.69570 0.83136 0.16306 0.04808 0.69957-0.55364
   2   3   2 7246.49  299.85   1-0.69511 0.83077 0.71242-0.50113-0.09626 0.24222
   2   3   2 6039.44  280.10   1 0.69734-0.56163-0.55879 0.76994 0.44885-0.30290
   2   3   364730.19 1389.61   1 0.46116-0.32364-0.68272 0.87988 0.56675-0.34794
  -2  -3  -360821.32 1289.33   1 0.20759-0.34515-0.88217 0.68506 0.42270-0.64151
  -2  -3  -365471.05 1411.67   1-0.91680 0.77915-0.06543-0.13176 0.39394-0.61283
   2   3   360645.39 1311.27   1-0.76884 0.90650 0.10463 0.09257 0.63082-0.41192
   2   3   356678.25 1232.05   1-0.67679 0.81440 0.73616-0.53875 0.00335 0.21558
   2   3   366349.87 1439.89   1 0.70765-0.56989-0.61407 0.81127 0.34949-0.13055
   2   3   486582.87 1835.99   1 0.38542-0.24597-0.75679 0.94006 0.52792-0.23616
  -2  -3  -475532.19 1588.25   1 0.06311-0.20259-0.94335 0.76006 0.32571-0.61745
   2   3   485651.55 1849.70   1 0.70959-0.56983-0.63848 0.82173 0.29802-0.00611
   2   3   557020.60 1986.87   1 0.32730-0.18587-0.80452 0.97381 0.49559-0.13090
  -2  -3  -558998.83 2068.35   1-0.96208 0.82079-0.17854 0.00915 0.20617-0.57114
   2   3   555007.36 1946.81   1 0.70971-0.56796-0.64878 0.81808 0.27455 0.09033
   2   3   6 1287.08  316.94   1 0.28693-0.14358-0.83366 0.98904 0.47188-0.03425
  -2  -3  -6  417.11  209.98   1-0.96676 0.82356-0.22289 0.06744 0.12524-0.56320
   2   3   7 3405.97  347.43   1 0.26180-0.11651-0.85024 0.99172 0.45666 0.05390
  -2  -3  -7 2459.57  320.70   1-0.96384 0.81856-0.26155 0.12012 0.05092-0.56171
   2   3   7 2004.64  296.62   1 0.70970-0.56395-0.64943 0.79082 0.27303 0.23781
   2   3   8 1120.11  324.37   1 0.24930-0.10208-0.85806 0.98563 0.44896 0.13453
  -2  -3  -8  241.48  250.81   1-0.95501 0.80779-0.29595 0.16848-0.01889-0.56487
   2   3   8  391.40  331.56   1 0.70971-0.56196-0.64405 0.77148 0.28547 0.29834
   2   3   9 3988.41  347.19   1 0.24717-0.09802-0.85936 0.97303 0.44764 0.20879
  -2  -3  -9 3998.30  421.19   1-0.94126 0.79211-0.32683 0.21331-0.08484-0.57189
   2   3   9 3382.02  418.46   1 0.70949-0.55975-0.63605 0.74952 0.30339 0.35340
   2   3  1025710.57  968.98   1 0.25360-0.10252-0.85540 0.95516 0.45162 0.27775
  -2  -3 -1024630.02 2064.97   1-0.92320 0.77225-0.35478 0.25538-0.14771-0.58172
   2   3  1029600.25 1179.97   1 0.70885-0.55710-0.62581 0.72533 0.32539 0.40438
   2   3  11 1788.06  383.07   1 0.26724-0.11422-0.84675 0.93261 0.45998 0.34233
  -2  -3 -11  983.86  381.20   1-0.90116 0.74829-0.38023 0.29480-0.20812-0.59426
   2   3  11  493.17  342.61   1 0.70758-0.55384-0.61355 0.69911 0.35053 0.45221
   2   3  1216888.48  812.47   1 0.28711-0.13216-0.83354 0.90548 0.47198 0.40326
  -2  -3 -1213755.51 1798.29   1-0.87530 0.72051-0.40348 0.33200-0.26653-0.60879
   2   3  1217410.82  998.09   1 0.70602-0.55038-0.59877 0.67048 0.37815 0.49752
  -2  -4  10 1616.33  386.80   1-0.44984 0.35587-0.88743 0.43017-0.10046 0.82964
  -2  -4   917176.47  995.53   1-0.51020 0.41442-0.84495 0.40145-0.16042 0.81675
  -2  -4   915430.12  862.24   1 0.16710-0.26295 0.50135-0.94539 0.84895-0.19255
  -2  -4   812753.28  819.89   1-0.56726 0.46951-0.79328 0.36367-0.22113 0.80454
  -2  -4   812685.92  737.91   1 0.15436-0.25219 0.49941-0.92952 0.85249-0.26903
   2   4  -813755.68  818.68   1-0.68535 0.78360 0.72719-0.29734-0.03836-0.54548
   2   4  -7103705.5 3233.65   1 0.62215-0.52202 0.73010-0.31419 0.28261-0.79295
  -2  -4   798734.28 3022.04   1 0.12112-0.22092 0.49397-0.91014 0.86100-0.35046
   2   4  -7102165.8 3175.10   1-0.66844 0.76864 0.74273-0.32677 0.03905-0.54991
   2   4  -6 2296.06  314.74   1 0.67192-0.56988 0.65583-0.25384 0.34409-0.78153
  -2  -4   6 2157.47  293.26   1-0.93324 0.83105-0.34037-0.06209-0.11488 0.55270
  -2  -4   6 2702.52  228.67   1 0.06150-0.16329 0.48278-0.88501 0.87357-0.43597
   2   4  -6 2290.06  279.61   1-0.64368 0.74589 0.75462-0.35246 0.12731-0.56517
   2   4  -5211741.2 3935.97   1 0.71634-0.61239 0.56797-0.17992 0.40527-0.76980
  -2  -4   5185669.9 3250.09   1-0.86911 0.76489-0.40831 0.01988-0.27912 0.64384
  -2  -4   5217445.6 3787.90   1-0.03171-0.07205 0.46171-0.85012 0.88646-0.52163
  -2  -4   5177741.4 3118.28   1-0.07684-0.02709 0.46801-0.85625 0.88037-0.51584
   2   4  -424814.59 1102.38   1 0.75444-0.64886 0.46449-0.09053 0.46374-0.75550
  -2  -4   423472.00  931.32   1-0.74306 0.63678-0.47334 0.09881-0.47306 0.76468
  -2  -4   425836.35 1035.19   1-0.16347 0.05771 0.42440-0.79887 0.89059-0.59872
   2   4  -428322.32 1470.49   1-0.54843 0.65452 0.75376-0.37950 0.36201-0.65388
  -2  -4   423696.29  951.73   1 0.00266-0.10869 0.39791-0.77228 0.91741-0.62590
   2   4  -3205751.1 3300.08   1 0.78131-0.67375 0.34519 0.01485 0.51998-0.73880
  -2  -4   3195966.7 2936.72   1-0.52536 0.41741-0.51624 0.15568-0.67637 0.89527
  -2  -4   3206064.4 3106.28   1-0.32872 0.22095 0.36475-0.72519 0.87114-0.65212
   2   4  -3201712.1 3038.61   1-0.44936 0.55739 0.71936-0.35901 0.52970-0.74860
  -2  -4   3194619.1 2929.45   1 0.12833-0.23629 0.27676-0.63711 0.95232-0.73365
   2   4  -2471946.1 7068.06   1 0.79385-0.68425 0.21030 0.13591 0.57058-0.71646
  -2  -4   2457443.8 6794.59   1-0.50517 0.39544 0.28188-0.62849 0.81568-0.66979
   2   4  -2438386.8 6500.26   1 0.20905-0.09935 0.50712-0.16062 0.83613-0.98200
   2   4  -2458530.7 6795.53   1-0.27301 0.38295 0.61841-0.27197 0.73690-0.88281
  -2  -4   2444938.8 6593.89   1 0.30830-0.41813 0.07977-0.42609 0.94793-0.80225
   2   4  -1 2444.14  181.22   1 0.78925-0.67763 0.06200 0.27043 0.61092-0.68386
  -2  -4   1 2903.62  168.98   1 0.70592-0.81775-0.28857-0.04381 0.64682-0.57389
  -2  -4   1 3124.21  183.04   1-0.66055 0.54884 0.18813-0.52077 0.72682-0.65388
   2   4  -1 2863.40  175.88   1-0.13392 0.24565 0.43355-0.10092 0.89112-0.96408
   2   4  -1 2642.46  150.94   1 0.00969 0.10216 0.39146-0.05898 0.92014-0.99301
  -2  -4   1 2957.85  158.64   1 0.50369-0.61552-0.17711-0.15528 0.84552-0.77266
   2   4   0261487.4 2591.76   1 0.76517-0.65162-0.09329 0.41180 0.63702-0.63702
   2   4   186775.62 1824.08   1 0.72172-0.60606-0.24597 0.55057 0.64699-0.57406
  -2  -4  -190071.59 1887.80   1-0.85577 0.74002 0.01818-0.32291 0.51703-0.58999
   2   4   185449.10 1784.55   1-0.60031 0.71599 0.22738 0.07735 0.76675-0.69381
   2   4   186246.82 1781.55   1 0.52823-0.41249-0.21424 0.51884 0.82162-0.74876
  -2  -4  -184883.17 1753.20   1 0.69665-0.81241-0.55621 0.25143 0.45310-0.52607
   2   4   2884468.829562.13   1 0.66391-0.54633-0.38460 0.67530 0.64132-0.49545
   2   4   2848645.228363.22   1-0.71257 0.83029 0.15041 0.14040 0.68528-0.53935
   2   4   2882161.029472.95   1 0.62835-0.51070-0.38691 0.67768 0.67488-0.52907
  -2  -4  -2840141.328073.29   1 0.70965-0.82747-0.64058 0.34972 0.29332-0.43928
  -2  -4  -3 8746.72  355.03   1 0.33976-0.45938-0.79495 0.51818 0.50260-0.72142
  -2  -4  -3 8460.54  406.10   1-0.93829 0.81878-0.10616-0.17079 0.32912-0.54810
   2   4   310914.21  450.74   1 0.67229-0.55254-0.48325 0.76014 0.56078-0.34186
   2   4   485652.17 1405.52   1 0.53646-0.41505-0.59291 0.85578 0.60054-0.30881
  -2  -4  -495351.46 1589.37   1-0.95641 0.83498-0.15487-0.10814 0.24757-0.53954
   2   4   494440.60 1551.42   1 0.69093-0.56918-0.53633 0.79927 0.48473-0.19283
   2   4   5111264.5 1799.73   1 0.48120-0.35772-0.66055 0.90953 0.57628-0.21159
  -2  -4  -5114078.0 1904.89   1-0.96504 0.84170-0.19731-0.05176 0.17248-0.53745
   2   4   5107334.0 1795.18   1 0.69910-0.57536-0.56568 0.81468 0.43733-0.07246
   2   4   612101.88  588.47   1 0.43712-0.31171-0.70781 0.94291 0.55489-0.11726
  -2  -4  -611908.24  635.81   1-0.96658 0.84117-0.23476-0.00030 0.10293-0.54075
   2   4   612260.62  708.67   1 0.70269-0.57696-0.58125 0.81630 0.41032 0.02751
   2   4   713701.36  892.39   1 0.40490-0.27755-0.73910 0.96030 0.53830-0.02773
   2   4   8 2786.64  303.31   1 0.38400-0.25472-0.75805 0.96537 0.52715 0.05635
  -2  -4  -8 3441.80  363.79   1-0.95386 0.82458-0.29914 0.09198-0.02555-0.55820
   2   4   8 3196.96  342.68   1 0.70432-0.57461-0.58935 0.79651 0.39570 0.18808
   2   4   9 2096.21  300.32   1 0.37329-0.24208-0.76737 0.96080 0.52132 0.13511
  -2  -4  -9 1884.59  283.70   1-0.94107 0.80985-0.32719 0.13397-0.08561-0.57112
   2   4   9 1509.05  387.22   1 0.70372-0.57201-0.58624 0.77946 0.40136 0.25539
   2   4  10 1219.10  250.17   1 0.37154-0.23840-0.76887 0.94840 0.52037 0.20901
  -2  -4 -10 1143.01  332.05   1-0.92454 0.79152-0.35298 0.17393-0.14358-0.58586
   2   4  10 1087.32  492.34   1 0.70238-0.56868-0.57980 0.75908 0.41289 0.31684
   2   4  11 1899.68  283.13   1 0.37764-0.24256-0.76361 0.92926 0.52370 0.27861
  -2  -4 -11 1872.48  328.32   1-0.90445 0.76951-0.37684 0.21174-0.19988-0.60250
   2   4  11 1360.89  280.20   1 0.70029-0.56459-0.57057 0.73591 0.42899 0.37371
   2   4  12 4458.02  409.59   1 0.39068-0.25367-0.75210 0.90385 0.53075 0.34450
  -2  -4 -12 5909.89  826.93   1-0.88086 0.74400-0.39892 0.24778-0.25480-0.62052
   2   4  12 5592.13  563.70   1 0.69736-0.55967-0.55887 0.71026 0.44872 0.42696
  -2  -5  10 8918.49 1023.01   1-0.47494 0.39912-0.87114 0.33413-0.12458 0.85384
  -2  -5   920773.81 1340.08   1-0.53048 0.45269-0.82801 0.30488-0.18158 0.83791
   2   5  -921155.95 1305.85   1-0.68667 0.76504 0.72554-0.20212-0.04539-0.61143
  -2  -5   8  542.36  279.77   1-0.58281 0.50305-0.77686 0.26762-0.23837 0.82177
   2   5  -8  294.06  226.73   1-0.66922 0.74954 0.74219-0.23265 0.03586-0.61971
   2   5  -727309.84 1035.50   1 0.63248-0.55030 0.71622-0.22071 0.29492-0.80526
  -2  -5   727250.47  903.73   1-0.15906 0.07724 0.42580-0.92177 0.89072-0.37996
   2   5  -726587.50  963.06   1-0.64416 0.72648 0.75447-0.25871 0.12578-0.63661
   2   5  -6 5604.14  650.57   1 0.67695-0.59286 0.64711-0.16553 0.35066-0.78810
  -2  -5   6 5458.40  314.24   1-0.24003 0.15621 0.39857-0.88060 0.88516-0.44736
   2   5  -6 5425.69  489.38   1-0.60855 0.69280 0.76024-0.27838 0.22737-0.66522
   2   5  -584030.83 1838.57   1 0.71634-0.63034 0.56797-0.10032 0.40527-0.76980
  -2  -5   575000.61 1509.14   1-0.90106 0.81477-0.38034-0.08775-0.20837 0.57309
  -2  -5   584599.75 1699.96   1-0.34999 0.26414 0.35591-0.82386 0.86650-0.50147
   2   5  -584047.05 1806.35   1-0.55696 0.64315 0.75558-0.28761 0.34479-0.70967
   2   5  -485965.17 1814.19   1 0.75041-0.66281 0.47786-0.02432 0.45663-0.74839
  -2  -5   480025.67 1414.97   1-0.76687 0.67850-0.46447 0.01029-0.44290 0.73451
  -2  -5   483905.61 1497.20   1-0.48158 0.39375 0.29461-0.74865 0.82539-0.53336
  -2  -5   474275.30 1349.97   1 0.14909-0.23718 0.25549-0.70941 0.95524-0.66368
   2   5  -330522.39 1268.01   1 0.77560-0.68602 0.37724 0.06238 0.50608-0.72489
  -2  -5   328567.75 1118.44   1-0.51792 0.42792-0.51681 0.07657-0.68165 0.90056
  -2  -5   328688.29 1134.98   1-0.61457 0.52479 0.21847-0.65869 0.75800-0.53917
   2   5  -330051.53 1203.51   1-0.36574 0.45581 0.67649-0.23649 0.63920-0.85807
  -2  -5   328159.56 1120.18   1 0.25650-0.34654 0.13933-0.57930 0.95644-0.73777
  -2  -5   2268483.3 4021.64   1-0.72776 0.63600 0.13863-0.56488 0.67166-0.52573
   2   5  -2262979.8 3924.03   1 0.16965-0.07791 0.50173-0.07557 0.84822-0.99409
   2   5  -2273794.7 4104.04   1-0.19776 0.28969 0.56476-0.13871 0.80120-0.94701
  -2  -5   2261238.8 3917.34   1 0.38573-0.47763-0.01550-0.41042 0.92247-0.77679
   2   5  -1472635.018207.35   1 0.79431-0.70067 0.14686 0.26504 0.58948-0.66242
  -2  -5   1457863.2 6813.17   1-0.81273 0.71897 0.06402-0.47634 0.57910-0.50613
   2   5  -1431322.1 6406.36   1-0.17520 0.26898 0.42065-0.00836 0.89014-0.96310
   2   5  -1451825.6 6715.12   1 0.01987 0.07406 0.38206 0.03005 0.92392-0.99680
  -2  -5   1446433.8 6633.91   1 0.51396-0.60787-0.19247-0.21955 0.83593-0.76307
   2   5   0124123.2 1981.96   1 0.78495-0.68935 0.02205 0.37607 0.61915-0.61915
  -2  -5   0118713.4 1849.85   1-0.87172 0.77589-0.00095-0.39736 0.48998-0.48998
   2   5   0114727.6 1772.87   1-0.43835 0.53412 0.31607 0.08228 0.84139-0.84139
   2   5   0122155.0 1878.83   1 0.24575-0.14988 0.15144 0.24670 0.95742-0.95742
  -2  -5   0117217.1 1803.19   1 0.61362-0.70946-0.35833-0.03990 0.70360-0.70360
   2   5   1250751.3 3829.98   1 0.76291-0.66538-0.10341 0.48762 0.63817-0.56523
  -2  -5  -1238653.9 3624.41   1-0.91158 0.81376-0.05686-0.32752 0.40715-0.48011
   2   5   1229517.9 3472.79   1-0.60914 0.70685 0.22188 0.16252 0.76138-0.68843
   2   5   1236876.3 3570.73   1 0.42591-0.32809-0.06804 0.45223 0.90220-0.82935
  -2  -5  -1230954.0 3480.02   1 0.67425-0.77207-0.48830 0.10385 0.55401-0.62698
   2   5   249175.22 1715.10   1 0.72933-0.62967-0.22366 0.59398 0.64655-0.50068
  -2  -5  -246517.54 1626.15   1-0.93793 0.83828-0.10537-0.26520 0.33040-0.47638
   2   5   242202.61 1464.68   1-0.71330 0.81308 0.14985 0.22064 0.68464-0.53871
   2   5   246904.65 1623.70   1 0.54221-0.44245-0.23612 0.60644 0.80637-0.66065
  -2  -5  -245246.69 1561.64   1 0.70231-0.80212-0.57949 0.20898 0.41344-0.55939
   2   5   3431835.9 6490.53   1 0.68792-0.58634-0.33231 0.68873 0.64522-0.42642
  -2  -5  -3428276.6 6466.26   1-0.95429 0.85272-0.14775-0.20888 0.25979-0.47877
   2   5   3393039.3 5905.55   1 0.60934-0.50768-0.35030 0.70682 0.71132-0.49260
   2   5   442787.50 1526.26   1 0.64299-0.53950-0.42558 0.76805 0.63674-0.34500
  -2  -5  -442658.31 1552.14   1-0.96335 0.85986-0.18552-0.15718 0.19374-0.48571
   2   5   443432.78 1547.57   1 0.64633-0.54272-0.42423 0.76684 0.63424-0.34262
   2   5   5208960.7 4184.94   1 0.59938-0.49397-0.50130 0.82988 0.62404-0.25937
  -2  -5  -5210927.0 4275.01   1-0.96669 0.86130-0.21967-0.10909 0.13127-0.49624
   2   5   5211981.6 4274.24   1 0.66744-0.56165-0.47112 0.79979 0.57668-0.21181
   2   5   6 2452.59  238.18   1 0.56063-0.45330-0.55979 0.87449 0.61017-0.17257
  -2  -5  -6 3111.20  365.79   1-0.96535 0.85788-0.25080-0.06395 0.07201-0.50984
   2   5   6 2079.62  285.30   1 0.67871-0.57092-0.50016 0.81489 0.53776-0.09992
   2   5   7191114.0 3828.01   1 0.52902-0.41977-0.60265 0.90345 0.59744-0.08690
  -2  -5  -7172302.7 3546.40   1-0.95998 0.85058-0.27966-0.02114 0.01461-0.52541
   2   5   7188987.9 3881.89   1 0.68478-0.57501-0.51734 0.81814 0.51323-0.00242
   2   5   8 3230.89  294.65   1 0.50539-0.39401-0.63217 0.91909 0.58730-0.00379
  -2  -5  -8 3046.01  339.19   1-0.95099 0.83965-0.30648 0.01962-0.04100-0.54276
   2   5   8 3722.40  377.53   1 0.68776-0.57599-0.52630 0.81314 0.49998 0.08379
   2   5   9 7553.71  547.47   1 0.49034-0.37703-0.65004 0.92308 0.58051 0.07593
  -2  -5  -9 6383.72  517.84   1-0.93862 0.82535-0.33153 0.05862-0.09518-0.56155
   2   5  1043224.07 1187.74   1 0.48334-0.36810-0.65811 0.91726 0.57728 0.15210
  -2  -5 -1042773.50 2322.21   1-0.92306 0.80797-0.35496 0.09625-0.14814-0.58129
   2   5  11  409.74  172.28   1 0.48386-0.36668-0.65752 0.90277 0.57752 0.22479
  -2  -5 -11  701.30  246.03   1-0.90433 0.78732-0.37697 0.13221-0.20019-0.60219
   2   5  11  721.44  378.04   1 0.68642-0.56867-0.52220 0.76722 0.50608 0.29661
  -2  -5 -12 3148.82  663.71   1-0.88242 0.76350-0.39761 0.16681-0.25144-0.62388
   2   5  12 5763.76  868.79   1 0.68352-0.56378-0.51366 0.74473 0.51859 0.35708
  -2  -6   9  731.17  281.83   1-0.54139 0.48159-0.81828 0.21553-0.19314 0.84947
   2   6  -9  415.36  227.82   1-0.67617 0.73661 0.73671-0.13360 0.00615-0.66298
  -2  -6   8 1048.79  322.20   1-0.58995 0.52819-0.76891 0.18005-0.24640 0.82981
   2   6  -8  767.62  155.78   1-0.65330 0.71570 0.75103-0.16180 0.09555-0.67939
   2   6  -7 2527.40  367.38   1 0.63571-0.57148 0.71174-0.13662 0.29881-0.80915
   2   6  -7 1739.88  257.31   1-0.62134 0.68571 0.75928-0.18383 0.19344-0.70427
   2   6  -630997.54 1951.50   1 0.67642-0.61028 0.64805-0.08686 0.34996-0.78740
   2   6  -630245.25 1121.70   1-0.57727 0.64357 0.75877-0.19721 0.30167-0.73953
   2   6  -526448.55 1969.97   1 0.71245-0.64440 0.57683-0.02958 0.39957-0.76410
  -2  -6   524606.55 1142.08   1-0.73025 0.66244 0.13666-0.68441 0.66936-0.30454
   2   6  -527307.72 1637.90   1-0.51647 0.58482 0.74517-0.19769 0.42185-0.78669
   2   6  -468162.52 1523.79   1 0.74403-0.67440 0.49770 0.03541 0.44575-0.73751
  -2  -6   463133.28 1255.16   1-0.82804 0.75776-0.43535-0.09843-0.35328 0.64506
  -2  -6   466665.85 1333.44   1-0.79415 0.72434 0.08184-0.61565 0.60217-0.31031
   2   6  -467306.89 1411.46   1-0.43213 0.50243 0.71137-0.17779 0.55426-0.84613
   2   6  -3  683.71  244.67   1 0.76835-0.69674 0.41133 0.10787 0.49034-0.70916
  -2  -6   3  698.10   80.81   1-0.54427 0.47223-0.51457-0.00534-0.66254 0.88145
  -2  -6   3  590.13   92.12   1-0.84420 0.77226 0.03124-0.55101 0.53510-0.31621
   2   6  -3  214.27  141.52   1-0.31678 0.38894 0.64703-0.12738 0.69354-0.91241
  -2  -6   3  331.35   88.58   1 0.34445-0.41645 0.03619-0.55566 0.93810-0.71958
   2   6  -2  184.17  170.83   1 0.78479-0.71112 0.31823 0.18718 0.53181-0.67768
  -2  -6   2  512.91   81.98   1-0.88253 0.80860-0.01479-0.49105 0.47001-0.32408
   2   6  -2  537.42   83.77   1 0.16289-0.08913 0.50072 0.00508 0.85013-0.99600
  -2  -6   2  399.69   84.77   1 0.43900-0.51297-0.08568-0.41986 0.89439-0.74870
   2   6  -133969.84 1530.81   1 0.79351-0.71784 0.21906 0.27243 0.56775-0.64068
  -2  -6   134992.13 1391.83   1-0.91107 0.83515-0.05603-0.43587 0.40842-0.33546
   2   6  -132642.77 1290.80   1-0.18450 0.26032 0.41762 0.07433 0.88968-0.96265
   2   6  -135280.28 1409.66   1 0.00902 0.06699 0.39208 0.09966 0.91988-0.99276
  -2  -6   133944.97 1349.82   1 0.53043-0.60642-0.21766-0.27399 0.81930-0.74644
   2   6   0 1846.88  250.95   1 0.79329-0.71561 0.11608 0.36151 0.59766-0.59766
  -2  -6   0 1926.09  187.95   1-0.93212 0.85421-0.09341-0.38457 0.34988-0.34988
   2   6   0 1833.00  147.10   1-0.43738 0.51519 0.31654 0.16148 0.84172-0.84172
   2   6   0 1922.19  160.01   1 0.18805-0.11010 0.21456 0.26321 0.95843-0.95843
  -2  -6   0 1566.33  152.29   1 0.60600-0.68392-0.34410-0.13377 0.71718-0.71718
   2   6   1407276.517741.19   1 0.78371-0.70413 0.01235 0.45148 0.62099-0.54804
  -2  -6  -1406439.817694.43   1-0.94743 0.86764-0.12794-0.33625 0.29324-0.36623
   2   6   1353570.315385.22   1-0.60048 0.68021 0.22728 0.23679 0.76665-0.69371
   2   6   1403738.917568.31   1 0.34296-0.26306 0.03802 0.42578 0.93857-0.86573
  -2  -6  -1360943.915706.34   1 0.65888-0.73874-0.45243-0.01154 0.60097-0.67388
   2   6   2 3142.39  272.14   1 0.76606-0.68455-0.08920 0.53911 0.63654-0.49065
  -2  -6  -2 2256.28  218.76   1-0.95778 0.87607-0.15987-0.29039 0.23893-0.38491
   2   6   2 2082.23  215.16   1 0.45899-0.37714-0.11289 0.56283 0.88123-0.73551
   2   6   349353.64 1106.88   1 0.74149-0.65782-0.18496 0.62101 0.64495-0.42615
  -2  -6  -352805.12 1221.04   1-0.96402 0.88040-0.18977-0.24655 0.18611-0.40509
   2   6   349390.22 1096.93   1 0.53783-0.45403-0.22920 0.66524 0.81129-0.59270
   2   6   4110846.9 2050.03   1 0.71261-0.62702-0.27109 0.69323 0.64705-0.35532
  -2  -6  -4115776.7 2181.82   1-0.96664 0.88111-0.21796-0.20442 0.13447-0.42644
   2   6   4107572.0 2007.72   1 0.58895-0.50326-0.31344 0.73570 0.74490-0.45328
   2   6   598765.28 1855.09   1 0.68213-0.59463-0.34549 0.75374 0.64445-0.27977
  -2  -6  -5101236.5 1971.46   1-0.96597 0.87838-0.24456-0.16384 0.08413-0.44899
   2   6   598598.07 1877.88   1 0.62105-0.53342-0.37255 0.78090 0.68956-0.32503
   2   6   635282.76  920.22   1 0.65278-0.56336-0.40694 0.80130 0.63895-0.20135
  -2  -6  -635663.09 1050.47   1-0.96226 0.87274-0.26994-0.12450 0.03421-0.47203
   2   6   636522.03 1053.89   1 0.64108-0.55151-0.41300 0.80744 0.64687-0.20943
   2   6   754796.32  974.04   1 0.62663-0.53530-0.45541 0.83582 0.63239-0.12185
  -2  -6  -756803.00 1201.26   1-0.95564 0.86418-0.29412-0.08637-0.01509-0.49570
   2   6   753465.63 1059.78   1 0.65341-0.56190-0.43988 0.82041 0.61608-0.10574
   2   6   828286.68  738.14   1 0.60562-0.51237-0.49118 0.85770 0.62606-0.04259
  -2  -6  -827335.08  820.04   1-0.94620 0.85281-0.31719-0.04935-0.06388-0.51988
   2   6   830093.93  874.45   1 0.66073-0.56728-0.45679 0.82342 0.59561-0.01237
   2   6   9 8044.02  380.50   1 0.59051-0.49534-0.51534 0.86797 0.62105 0.03535
  -2  -6  -9 7749.67  599.15   1-0.93401 0.83877-0.33916-0.01316-0.11218-0.54431
   2   6   9 6617.37  403.53   1 0.66536-0.56954-0.46607 0.81865 0.58315 0.07360
   2   6  1044787.69 1585.77   1 0.58172-0.48463-0.52885 0.86759 0.61798 0.11135
   2   6  11 9992.20  420.93   1 0.57932-0.48031-0.53247 0.85733 0.61712 0.18514
  -2  -6 -11 8923.08 1349.74   1-0.90125 0.80218-0.38015 0.05573-0.20791-0.59447
   2   6  1111572.43  724.28   1 0.66640-0.56660-0.46860 0.79329 0.57992 0.22278
  -2  -7   8  880.20  304.09   1-0.59105 0.54727-0.76767 0.09918-0.24764 0.83105
   2   7  -724933.45 1341.58   1 0.63388-0.58760 0.71429-0.05957 0.29660-0.80695
   2   7  -720020.13 1776.64   1-0.60244 0.64887 0.76034-0.10519 0.24275-0.75359
   2   7  -6  -65.60  296.16   1 0.67190-0.62371 0.65586-0.01508 0.34407-0.78150
   2   7  -6  233.57  170.52   1-0.55284 0.60119 0.75475-0.11349 0.35314-0.79099
   2   7  -515012.56 1541.92   1 0.70565-0.65555 0.59169 0.03515 0.38979-0.75432
   2   7  -514522.48 1454.32   1-0.48733 0.53778 0.73511-0.10796 0.47129-0.83613
   2   7  -4 9130.40  944.84   1 0.73563-0.68397 0.52170 0.09099 0.43205-0.72381
   2   7  -4 9116.04  530.85   1-0.40116 0.45345 0.69593-0.08272 0.59560-0.88742
   2   7  -3 2921.92  412.79   1 0.75949-0.70585 0.44659 0.15218 0.47299-0.69181
  -2  -7   3 1631.67  193.77   1-0.62455 0.57046-0.50374-0.09585-0.59680 0.81570
  -2  -7   3 1970.00  142.74   1-0.96283 0.90863-0.18252-0.41710 0.19910 0.01987
   2   7  -3 2223.60  224.68   1-0.29188 0.34614 0.63099-0.03169 0.71877-0.93764
   2   7  -2  -92.79  226.48   1 0.77759-0.72198 0.36671 0.21814 0.51074-0.65661
  -2  -7   2  497.62  161.61   1-0.95889 0.90279-0.16419-0.42150 0.23142-0.08543
   2   7  -2  273.46  188.07   1-0.15938 0.21547 0.53540 0.04992 0.82942-0.97523
   2   7  -1 2896.29  367.03   1 0.78893-0.73122 0.28305 0.28804 0.54539-0.61833
  -2  -7   1 2756.76  248.50   1-0.95963 0.90161-0.16723-0.40452 0.22610-0.15310
   2   7  -1 2332.93  183.11   1-0.16535 0.22322 0.42381 0.14781 0.89052-0.96349
   2   7  -1 2764.44  260.93   1-0.01144 0.06955 0.41073 0.16064 0.91168-0.98455
   2   7   025922.58 1538.98   1 0.79424-0.73453 0.19667 0.36052 0.57488-0.57488
  -2  -7   028202.44 1641.88   1-0.96212 0.90219-0.17875-0.37906 0.20579-0.20579
   2   7   023653.28 1362.75   1-0.41588 0.47574 0.32670 0.23100 0.84870-0.84870
   2   7   025670.92 1502.13   1 0.13782-0.07778 0.26709 0.29031 0.95376-0.95376
   2   7   1  212.03  196.69   1 0.79297-0.73124 0.10948 0.43379 0.59933-0.52639
  -2  -7  -1  295.26  188.06   1-0.96469 0.90284-0.19449-0.34939 0.17759-0.25059
   2   7   1  184.59  133.91   1 0.27254-0.21056 0.12105 0.42241 0.95449-0.88160
   2   7   248248.73 1039.68   1 0.78519-0.72163 0.02395 0.50558 0.61878-0.47289
  -2  -7  -247343.32 1041.40   1-0.96639 0.90263-0.21249-0.31746 0.14464-0.29063
   2   7   243971.65  921.38   1 0.38277-0.31881-0.01172 0.54123 0.92376-0.77808
   2   7   3 1927.91  276.65   1 0.77236-0.70687-0.05814 0.57375 0.63251-0.41367
  -2  -7  -3 2319.16  292.17   1-0.96668 0.90091-0.23161-0.28438 0.10893-0.32785
   2   7   3 1686.16  233.78   1 0.46594-0.40005-0.12261 0.63827 0.87627-0.65769
   2   7   4141401.6 3158.89   1 0.75548-0.68807-0.13426 0.63594 0.64125-0.34946
  -2  -7  -4150968.7 3416.49   1-0.96528 0.89756-0.25142-0.25062 0.07082-0.36270
   2   7   4138773.4 3103.86   1 0.52539-0.45756-0.20987 0.71163 0.82456-0.53312
   2   7   511334.93  686.02   1 0.73613-0.66654-0.20254 0.69042 0.64581-0.28114
  -2  -7  -513216.80  905.74   1-0.96194 0.89229-0.27144-0.21665 0.03120-0.39606
   2   7   511933.86  721.75   1 0.56669-0.49691-0.27588 0.76373 0.77636-0.41205
   2   7   6201948.7 2963.26   1 0.71630-0.64479-0.26111 0.73508 0.64709-0.20948
  -2  -7  -6200627.7 3052.09   1-0.95654 0.88496-0.29143-0.18271-0.00950-0.42832
   2   7   6202778.5 3029.04   1 0.59503-0.52338-0.32420 0.79829 0.73540-0.29797
   2   7   729464.74  699.12   1 0.69762-0.62420-0.30931 0.76938 0.64625-0.13570
  -2  -7  -729176.10  908.12   1-0.94897 0.87545-0.31120-0.14899-0.05103-0.45976
   2   7   729256.01  850.93   1 0.61392-0.54033-0.35890 0.81908 0.70305-0.19271
   2   7   868596.07 2149.08   1 0.68156-0.60621-0.34678 0.79296 0.64437-0.06089
  -2  -7  -869232.55 2267.64   1-0.93914 0.86369-0.33063-0.11561-0.09318-0.49057
   2   7   869719.08 2242.54   1 0.62631-0.55078-0.38285 0.82912 0.67908-0.09584
   2   7   927161.49  826.14   1 0.66921-0.59195-0.37356 0.80584 0.64233 0.01407
  -2  -7  -926714.36 1827.83   1-0.92702 0.84972-0.34957-0.08241-0.13574-0.52075
   2   7   926085.05 1002.35   1 0.63404-0.55657-0.39840 0.83076 0.66276-0.00661
   2   7  1016546.81 1030.78   1 0.66134-0.58217-0.38984 0.80822 0.64080 0.08854
  -2  -7 -1014029.79 2047.60   1-0.91245 0.83323-0.36805-0.04998-0.17878-0.55065
   2   7  1019807.26 1316.68   1 0.63834-0.55893-0.40726 0.82573 0.65317 0.07587
  -2  -7 -1114489.06 2148.78   1-0.89537 0.81423-0.38594-0.01813-0.22214-0.58024
   2   7  1114718.92 1669.82   1 0.63999-0.55863-0.41070 0.81526 0.64940 0.15255
   2   8  -7  241.40  271.98   1 0.62813-0.59980 0.72215 0.01215 0.28971-0.80005
   2   8  -649757.10 2684.02   1 0.66421-0.63397 0.66868 0.05170 0.33418-0.77162
   2   8  -650475.03 1860.86   1-0.53638 0.56699 0.75086-0.03015 0.38535-0.82316
   2   8  -5  941.96  271.42   1 0.69639-0.66424 0.61075 0.09569 0.37682-0.74136
   2   8  -5  501.82  142.97   1-0.46926 0.50182 0.72796-0.02115 0.49986-0.86470
   2   8  -430190.14 1765.04   1 0.72532-0.69164 0.54847 0.14379 0.41602-0.70778
   2   8  -428495.94  960.77   1-0.38501 0.41940 0.68728 0.00558 0.61595-0.90778
   2   8  -316249.67 1867.33   1 0.74896-0.71330 0.48251 0.19583 0.45412-0.67293
   2   8  -313825.64  805.49   1-0.28327 0.31961 0.62529 0.05365 0.72715-0.94602
   2   8  -231342.30 1604.82   1 0.76790-0.73026 0.41325 0.25118 0.48943-0.63531
  -2  -8   229942.85  947.34   1-0.95271 0.91455-0.30217-0.36325-0.03191 0.17785
   2   8  -232776.62 1093.12   1-0.16529 0.20347 0.54001 0.12494 0.82526-0.97107
   2   8  -111803.38 1112.89   1 0.78191-0.74230 0.34141 0.30910 0.52156-0.59450
  -2  -8   112369.82  654.30   1-0.96278 0.92268-0.26740-0.38408 0.03928 0.03368
   2   8  -110133.28  565.49   1-0.03739 0.07758 0.43390 0.21710 0.90018-0.97306
   2   8   0  686.30  299.19   1 0.79035-0.74860 0.26794 0.36885 0.55094-0.55094
  -2  -8   0  767.70  141.67   1-0.96461 0.92258-0.25655-0.38098 0.06076-0.06076
   2   8   0  918.37  138.93   1 0.09114-0.04901 0.31388 0.32315 0.94507-0.94507
   2   8   128919.35 1014.10   1 0.79430-0.75054 0.19402 0.42885 0.57569-0.50275
  -2  -8  -134759.98  743.36   1-0.96459 0.92063-0.25668-0.36690 0.06051-0.13348
   2   8   130053.04  609.70   1 0.21056-0.16649 0.19030 0.43278 0.95887-0.88598
   2   8   2  486.69  276.98   1 0.79352-0.74775 0.12118 0.48778 0.59635-0.45047
  -2  -8  -2   99.00  189.39   1-0.96360 0.91769-0.26297-0.34666 0.04810-0.19404
   2   8   2  460.56  213.71   1 0.31349-0.26746 0.07361 0.53551 0.94673-0.80104
   2   8   319655.50 1020.19   1 0.78823-0.74070 0.05134 0.54389 0.61322-0.39438
  -2  -8  -319548.50 1034.11   1-0.96159 0.91375-0.27305-0.32263 0.02798-0.24689
   2   8   319366.40  970.99   1 0.39637-0.34837-0.02919 0.62441 0.91762-0.69910
   2   8   420580.99 1064.60   1 0.77987-0.73041-0.01447 0.59577 0.62576-0.33397
  -2  -8  -421050.40 1140.57   1-0.95836 0.90858-0.28554-0.29619 0.00262-0.29450
   2   8   419861.41 1001.88   1 0.46043-0.41052-0.11490 0.69628 0.88022-0.58877
   2   8   5  434.95  217.87   1 0.76915-0.71776-0.07443 0.64181 0.63470-0.26997
  -2  -8  -5 1352.76  405.30   1-0.95369 0.90198-0.29959-0.26819-0.02649-0.33836
   2   8   5  865.57  282.45   1 0.50807-0.45620-0.18362 0.75110 0.84151-0.47720
   2   8   6  202.08  325.33   1 0.75725-0.70394-0.12720 0.68065 0.64060-0.20292
  -2  -8  -6 1214.96  447.48   1-0.94741 0.89376-0.31464-0.23919-0.05839-0.37942
   2   8   6  895.89  424.40   1 0.54279-0.48897-0.23704 0.79061 0.80571-0.36854
   2   8   7 1498.69  229.35   1 0.74531-0.68979-0.17186 0.71155 0.64418-0.13363
  -2  -8  -7 2069.81  377.25   1-0.93934 0.88376-0.33028-0.20959-0.09243-0.41836
   2   8   7 2457.27  365.90   1 0.56765-0.51188-0.27747 0.81714 0.77509-0.26506
   2   8   8  360.77  220.72   1 0.73462-0.67719-0.20733 0.73314 0.64601-0.06253
  -2  -8  -8  259.42  208.47   1-0.92939 0.87194-0.34618-0.17943-0.12801-0.45554
   2   8   8 1043.48  399.97   1 0.58522-0.52761-0.30692 0.83284 0.75054-0.16729
  -2  -8  -924744.70 2777.61   1-0.91735 0.85799-0.36222-0.14942-0.16504-0.49144
   2   8   928726.88 1493.89   1 0.59704-0.53749-0.32781 0.83983 0.73216-0.07601
   2   8  10  636.37  205.25   1 0.72052-0.65925-0.24939 0.74739 0.64703 0.08231
  -2  -8 -10  556.47  382.95   1-0.90315 0.84186-0.37819-0.11949-0.20315-0.52628
   2   8  10 2207.98  757.30   1 0.60458-0.54309-0.34150 0.83961 0.71961 0.00944
   2   9  -623003.73 1366.54   1 0.65380-0.64151 0.68518 0.11480 0.32103-0.75847
   2   9  -518015.96 1814.62   1 0.68489-0.67070 0.63281 0.15324 0.36119-0.72572
   2   9  -512909.48 1349.36   1-0.46085 0.47552 0.72441 0.06204 0.51266-0.87750
   2   9  -4 9630.14 1132.09   1 0.71227-0.69616 0.57725 0.19486 0.39930-0.69092
   2   9  -410071.46  843.98   1-0.38014 0.39662 0.68460 0.08791 0.62193-0.91376
   2   9  -319748.62 1663.35   1 0.73669-0.71900 0.51878 0.23914 0.43375-0.65256
   2   9  -316784.85  951.57   1-0.28597 0.30440 0.62709 0.13151 0.72455-0.94342
   2   9  -210334.79 1291.39   1 0.75627-0.73660 0.45815 0.28586 0.46705-0.61293
   2   9  -211475.60  771.94   1-0.17992 0.20018 0.55128 0.19331 0.81468-0.96049
   2   9  -145559.38 1805.72   1 0.77180-0.75015 0.39584 0.33425 0.49761-0.57055
  -2  -9   139331.03 1227.79   1-0.92188 0.89964-0.35652-0.37437-0.15174 0.22468
   2   9  -145111.73 1453.75   1-0.06699 0.08927 0.45966 0.27097 0.88556-0.95843
   2   9   011113.71 1041.11   1 0.78276-0.75897 0.33259 0.38379 0.52598-0.52598
  -2  -9   010689.25  647.81   1-0.94094 0.91685-0.32741-0.38981-0.08610 0.08610
   2   9   011635.70  706.92   1 0.04638-0.02217 0.35718 0.35949 0.93288-0.93288
   2   9   151040.53 1804.76   1 0.79023-0.76443 0.26932 0.43315 0.55044-0.47750
  -2  -9  -151899.25 1738.42   1-0.94735 0.92132-0.31476-0.38851-0.05864-0.01432
   2   9   149040.10 1617.93   1 0.15365-0.12750 0.25077 0.45194 0.95577-0.88288
   2   9   219997.25 1140.96   1 0.79396-0.76615 0.20714 0.48142 0.57159-0.42571
  -2  -9  -219168.98  586.14   1-0.94891 0.92095-0.31132-0.37800-0.05129-0.09464
   2   9   218405.47  530.34   1 0.24912-0.22104 0.14765 0.54112 0.95714-0.81136
   2   9   315688.94 1129.45   1 0.79432-0.76451 0.14721 0.52744 0.58938-0.37057
  -2  -9  -317054.15 1048.66   1-0.94787 0.91797-0.31364-0.36174-0.05624-0.16266
   2   9   314870.57  886.59   1 0.33017-0.30009 0.05359 0.62124 0.94239-0.72387
   2   9   4132399.7 4305.70   1 0.79186-0.76004 0.09075 0.56998 0.60391-0.31216
  -2  -9  -4141057.6 4480.65   1-0.94494 0.91311-0.31976-0.34166-0.06943-0.22244
   2   9   4138632.4 4346.71   1 0.39575-0.36369-0.02838 0.68931 0.91791-0.62655
   2   9   5  800.10  327.17   1 0.78698-0.75354 0.03940 0.60760 0.61570-0.25097
  -2  -9  -5 1362.05  339.81   1-0.94034 0.90657-0.32850-0.31897-0.08850-0.27635
   2   9   5  632.35  285.29   1 0.44734-0.41331-0.09708 0.74409 0.88907-0.52486
   2   9   635079.14 1185.31   1 0.78108-0.74571-0.00649 0.63956 0.62439-0.18671
  -2  -9  -633886.13 1512.05   1-0.93413 0.89845-0.33897-0.29421-0.11176-0.32590
   2   9   635765.23 1217.52   1 0.48708-0.45118-0.15276 0.78596 0.85988-0.42271
   2   9   7   69.91  203.61   1 0.77469-0.73739-0.04555 0.66470 0.63069-0.12006
  -2  -9  -7  464.22  181.49   1-0.92614 0.88854-0.35080-0.26843-0.13855-0.37205
   2   9   7    4.78  322.05   1 0.51688-0.47903-0.19688 0.81618 0.83310-0.32307
   2   9   817242.66 1092.58   1 0.76865-0.72943-0.07689 0.68211 0.63502-0.05145
  -2  -9  -816826.85 1970.77   1-0.91633 0.87682-0.36347-0.24180-0.16796-0.41558
   2   9   819152.70 1311.24   1 0.53887-0.49906-0.23084 0.83623 0.81013-0.22724
   2   9   9  630.70  264.18   1 0.76374-0.72259-0.09972 0.69101 0.63776 0.01875
  -2  -9  -9 1245.91  335.38   1-0.90460 0.86317-0.37668-0.21463-0.19948-0.45701
   2   9   9  671.37  366.95   1 0.55468-0.51292-0.25612 0.84760 0.79165-0.13590
   2  10  -4 2512.25  478.47   1 0.69818-0.70003 0.60717 0.24455 0.37930-0.67093
   2  10  -4 1655.66  344.15   1-0.38404 0.38261 0.68675 0.16542 0.61715-0.90898
   2  10  -319017.06 2133.91   1 0.72257-0.72286 0.55519 0.28231 0.41187-0.63069
   2  10  -321599.55  683.98   1-0.29688 0.29740 0.63427 0.20399 0.71383-0.93270
   2  10  -214817.04 1757.78   1 0.74267-0.74098 0.50174 0.32185 0.44349-0.58937
   2  10  -215256.37  832.84   1-0.20065 0.20299 0.56692 0.25730 0.79895-0.94476
   2  10  -115139.17 1087.80   1 0.75930-0.75563 0.44726 0.36241 0.47265-0.54559
   2  10  -115298.26  654.44   1-0.09945 0.10376 0.48703 0.32325 0.86769-0.94060
   2  10   019812.42 1466.37   1 0.77253-0.76688 0.39241 0.40334 0.49920-0.49920
   2  10   017513.34 1016.59   1 0.00239 0.00390 0.39816 0.39814 0.91731-0.91731
   2  10   118866.47 1398.30   1 0.78246-0.77483 0.33794 0.44390 0.52301-0.45007
  -2 -10  -116257.27 1416.02   1-0.91205 0.90391-0.36850-0.41413-0.17987 0.10692
   2  10   116012.39  951.98   1 0.09978-0.09154 0.30534 0.47700 0.94699-0.87412
   2  10   235638.36 2270.32   1 0.78879-0.77895 0.28441 0.48374 0.54488-0.39901
  -2 -10  -236982.55 1394.55   1-0.92141 0.91135-0.35712-0.41155-0.15313 0.00724
   2  10   237326.88 1069.17   1 0.18880-0.17863 0.21376 0.55464 0.95846-0.81268
   2  10   3  507.09  219.61   1 0.79282-0.78098 0.23315 0.52110 0.56308-0.34426
  -2 -10  -3  660.20  245.76   1-0.92459 0.91261-0.35291-0.40180-0.14341-0.07541
   2  10   447248.58 1657.91   1 0.79445-0.78060 0.18495 0.55538 0.57846-0.28671
  -2 -10  -448039.47 1749.08   1-0.92412 0.91021-0.35356-0.38720-0.14489-0.14688
   2  10   445670.61 1279.99   1 0.33243-0.31830 0.05085 0.68969 0.94175-0.65038
   2  10   515976.95  825.36   1 0.79417-0.77831 0.14081 0.58561 0.59114-0.22644
  -2 -10  -513311.90 2008.20   1-0.92103 0.90521-0.35761-0.36919-0.15428-0.21044
   2  10   514655.74 1012.55   1 0.38617-0.37006-0.01606 0.74269 0.92228-0.55808
   2  10   632971.83 1781.11   1 0.79254-0.77468 0.10170 0.61081 0.60126-0.16363
  -2 -10  -635776.85 2627.27   1-0.91579 0.89804-0.36413-0.34871-0.16951-0.26814
   2  10   635256.54 1751.84   1 0.42915-0.41107-0.07239 0.78510 0.90032-0.46327
   2  10   722769.61  813.51   1 0.78988-0.77053 0.06907 0.62970 0.60935-0.09873
  -2 -10  -723317.11 1559.59   1-0.90856 0.88889-0.37242-0.32646-0.18923-0.32137
   2  10   724072.29  905.97   1 0.46294-0.44300-0.11840 0.81732 0.87844-0.36841
   2  10   8  806.24  317.11   1 0.78736-0.76609 0.04288 0.64196 0.61499-0.03142
  -2 -10  -8  741.54  325.57   1-0.89939 0.87781-0.38202-0.30291-0.21248-0.37106
   2  10   8  814.71  367.29   1 0.48880-0.46691-0.15525 0.84026 0.85846-0.27557
   2  11  -2 7700.88 1558.20   1 0.72702-0.74330 0.54423 0.35893 0.41861-0.56449
   2  11  -2 8076.23  896.61   1-0.22600 0.21042 0.58552 0.31834 0.77851-0.92432
   2  11  -1 1022.27  223.80   1 0.74449-0.75879 0.49633 0.39292 0.44652-0.51946
   2  11  -1  619.97  249.21   1-0.13407 0.12046 0.51534 0.37458 0.84642-0.91933
   2  11   026161.66 2629.48   1 0.75898-0.77131 0.44844 0.42689 0.47205-0.47205
   2  11   029130.73  944.93   1-0.04147 0.02986 0.43749 0.43844 0.89826-0.89826
   2  11   1 2589.71  480.81   1 0.77063-0.78098 0.40119 0.46022 0.49513-0.42219
   2  11   1 2870.11  396.41   1 0.04789-0.05756 0.35574 0.50622 0.93335-0.86047
   2  11   2 9942.30 1086.72   1 0.77963-0.78800 0.35528 0.49222 0.51569-0.36982
   2  11   211244.24  482.32   1 0.13105-0.13880 0.27400 0.57403 0.95275-0.80697
   2  11   318741.29 1294.58   1 0.78572-0.79184 0.31112 0.52272 0.53463-0.31581
  -2 -11  -319664.43 1401.82   1-0.89015 0.89610-0.39081-0.44357-0.23427 0.01544
   2  11   318393.15  667.99   1 0.20551-0.21132 0.19578 0.63831 0.95886-0.74020
   2  11   4 3656.65  786.54   1 0.79016-0.79427 0.27008 0.54985 0.55017-0.25841
  -2 -11  -4 3981.53  789.04   1-0.89450 0.89853-0.38676-0.43365-0.22419-0.06758
   2  11   4 3421.67  459.97   1 0.27019-0.27405 0.12375 0.69640 0.95482-0.66326
   2  11   5 2670.88  345.51   1 0.79284-0.79495 0.23275 0.57327 0.56321-0.19852
  -2 -11  -5 3068.25  666.36   1-0.89456 0.89667-0.38671-0.41975-0.22406-0.14065
   2  11   5 3658.90  455.63   1 0.32505-0.32686 0.05977 0.74647 0.94380-0.57960
   2  11   6 1681.71  452.36   1 0.79416-0.79426 0.20001 0.59210 0.57384-0.13620
  -2 -11  -6  751.63  246.68   1-0.89147 0.89166-0.38960-0.40290-0.23125-0.20640
   2  11   6  751.10  422.77   1 0.37018-0.37002 0.00422 0.78810 0.92894-0.49190
  -3  10   415594.64 1410.74   1 0.41248-0.86272 0.52094 0.21966 0.74731-0.45546
   3 -10  -3 5737.26  724.62   1-0.54581 0.99800-0.81420 0.05961-0.19787-0.02090
  -3  10   3 5591.84  731.63   1 0.08400-0.53554 0.32090 0.43351 0.94337-0.72474
  -3  10   222610.99 1315.02   1 0.02933-0.48281 0.37325 0.39513 0.92726-0.78151
   3 -10  -1  797.76  530.92   1-0.53642 0.99255-0.82277 0.04039-0.18786 0.11494
  -3  10   1  675.95  331.90   1-0.02869-0.42672 0.42619 0.35615 0.90417-0.83129
   3 -10   0 3461.70  584.72   1-0.52556 0.98365-0.83225 0.03599-0.17641 0.17641
  -3  10   0 2775.69  458.50   1-0.08907-0.36829 0.47836 0.31799 0.87363-0.87363
   3  -9  -734158.25 1926.29   1-0.55778 0.98421-0.51319-0.10626-0.65230 0.14153
  -3   9   731474.92 1799.87   1 0.29978-0.72547 0.08983 0.52933 0.94976-0.43987
   3  -9  -626795.02 1229.45   1-0.53773 0.96608-0.51518-0.11821-0.66740 0.22959
  -3   9   629008.48 1395.30   1 0.26426-0.69204 0.13052 0.50249 0.95557-0.51823
  -3   9   5 7610.53  675.60   1 0.22287-0.65260 0.17684 0.47011 0.95867-0.59422
   3  -9  -444688.26 1700.64   1-0.55332 0.98555-0.80710 0.14601-0.20595-0.08574
  -3   9   445957.78 1733.26   1 0.46100-0.89326 0.52036 0.14060 0.71881-0.42697
  -3   9   445283.53 1784.61   1 0.17552-0.60719 0.22786 0.43302 0.95773-0.66618
   3  -9  -3  590.26  305.10   1-0.55753 0.99173-0.80301 0.12804-0.21051-0.00826
  -3   9   3  780.84  302.27   1 0.39430-0.82851 0.52074 0.15417 0.75719-0.53831
   3  -9  -265850.96 3158.00   1-0.55508 0.99124-0.80540 0.11654-0.20785 0.06200
  -3   9   246707.40 2174.50   1 0.29738-0.73355 0.51612 0.17273 0.80322-0.65730
  -3   9   257351.05 2763.10   1 0.06456-0.50013 0.33979 0.34895 0.93828-0.79252
   3  -9  -114825.32  908.64   1-0.54769 0.98582-0.81245 0.10970-0.19988 0.12696
  -3   9   114545.94  897.32   1 0.00271-0.44021 0.39787 0.30484 0.91743-0.84455
   3  -9   027664.47 1245.22   1-0.53635 0.97645-0.82283 0.10620-0.18778 0.18778
  -3   9   027865.66 1214.58   1-0.06178-0.37766 0.45518 0.26149 0.88825-0.88825
   3  -9   114593.72 1063.37   1-0.52168 0.96374-0.83554 0.10502-0.17234 0.24527
  -3   9  -112407.27  852.52   1-0.12757-0.31385 0.51011 0.22054 0.85059-0.92350
   3  -9   210491.23  686.94   1-0.50408 0.94811-0.84979 0.10538-0.15411 0.29996
   3  -9   311670.69 1362.84   1-0.48380 0.92980-0.86493 0.10663-0.13348 0.35226
  -3   9  -3 9975.12 1144.94   1-0.25708-0.18823 0.60750 0.15110 0.75156-0.97042
   3  -8  -814433.11  837.57   1-0.59247 0.99902-0.50884-0.01698-0.62453 0.04078
  -3   8   812892.21  749.63   1 0.37254-0.77832 0.00125 0.52438 0.92801-0.34528
   3  -8  -7 5683.54  539.57   1-0.58374 0.99221-0.51005-0.02972-0.63173 0.12095
  -3   8   7 7073.79  701.97   1 0.34341-0.75117 0.03747 0.50208 0.93843-0.42854
   3  -8  -613556.51  957.14   1-0.56699 0.97738-0.51215-0.04157-0.64515 0.20734
  -3   8   615268.50  791.60   1 0.30788-0.71762 0.08027 0.47319 0.94802-0.51098
   3  -8  -515987.87  884.71   1-0.53977 0.95205-0.81975 0.25218-0.19142-0.17320
   3  -8  -517430.02 1009.62   1-0.53985 0.95216-0.51499-0.05268-0.66583 0.30099
  -3   8   519881.35 1198.48   1 0.26548-0.67729 0.12912 0.43819 0.95542-0.59097
   3  -8  -446936.17 1453.86   1-0.55751 0.97175-0.80304 0.22158-0.21049-0.08121
  -3   8   443125.94 1452.31   1 0.21630-0.63005 0.18404 0.39722 0.95882-0.66726
   3  -8  -322452.83  848.55   1-0.56315 0.97936-0.79745 0.20210-0.21663-0.00214
  -3   8   322775.44  779.28   1 0.43864-0.85488 0.52083 0.07443 0.73233-0.51345
  -3   8   322674.46  866.33   1 0.16051-0.57620 0.24363 0.35157 0.95649-0.73782
   3  -8  -2 7412.96  631.08   1-0.56117 0.97934-0.79943 0.19019-0.21447 0.06861
  -3   8   2 9128.12  644.03   1 0.35028-0.76847 0.51936 0.08985 0.77946-0.63354
  -3   8   2 9710.16  779.83   1 0.09877-0.51641 0.30635 0.30277 0.94678-0.80102
   3  -8  -129103.81 1109.25   1-0.55376 0.97390-0.80668 0.18356-0.20642 0.13350
  -3   8   126969.25  852.21   1 0.22032-0.64034 0.50851 0.11480 0.83238-0.75945
   3  -8   026659.86 1001.03   1-0.54214 0.96424-0.81759 0.18058-0.19394 0.19394
  -3   8   022443.53  688.98   1 0.02528-0.44729 0.47510 0.16215 0.87956-0.87956
  -3   8   026008.29  985.71   1-0.03697-0.38456 0.43352 0.20352 0.90038-0.90038
   3  -8   140035.35 1280.53   1-0.52704 0.95111-0.83099 0.18009-0.17796 0.25088
  -3   8  -137746.50 1163.74   1-0.10772-0.31578 0.49389 0.15713 0.86282-0.93572
   3  -8   230778.83 1252.42   1-0.50893 0.93497-0.84597 0.18118-0.15910 0.30495
  -3   8  -230184.08 1226.00   1-0.17789-0.24758 0.54973 0.11523 0.81617-0.96198
   3  -8   350465.54 2515.47   1-0.48811 0.91612-0.86182 0.18314-0.13784 0.35661
  -3   8  -349269.94 2361.20   1-0.24592-0.18152 0.59972 0.07917 0.76147-0.98019
   3  -8   429591.17 1065.68   1-0.46480 0.89477-0.87797 0.18541-0.11449 0.40619
  -3   8  -428181.82 1039.22   1-0.31068-0.11868 0.64316 0.04969 0.69986-0.99168
   3  -8   512491.09 1508.07   1-0.43888 0.87074-0.89405 0.18803-0.08976 0.45435
  -3   8  -510829.22 1234.61   1-0.37096-0.06036 0.67946 0.02730 0.63302-0.99780
   3  -7  -910167.39  962.29   1-0.60949 0.99616-0.50627 0.07407-0.61008-0.04663
  -3   7   910130.50  608.15   1 0.43697-0.82285-0.08293 0.51504 0.89564-0.24007
   3  -7  -8 3979.44  626.65   1-0.60924 0.99783-0.50631 0.06016-0.61029 0.02655
  -3   7   8 4216.08  580.02   1 0.41495-0.80281-0.05348 0.49950 0.90826-0.32553
   3  -7  -7 2628.59  523.18   1-0.60283 0.99334-0.50732 0.04722-0.61580 0.10503
  -3   7   7 2149.62  411.16   1 0.38665-0.77649-0.01668 0.47661 0.92207-0.41218
   3  -7  -6 3402.54  480.49   1-0.58874 0.98118-0.50937 0.03532-0.62763 0.18982
  -3   7   6 4036.85  460.76   1 0.35129-0.74310 0.02777 0.44607 0.93585-0.49880
   3  -7  -511767.76  674.16   1-0.52544 0.91972-0.83236 0.34442-0.17628-0.18834
   3  -7  -512539.41  845.55   1-0.56471 0.95907-0.51241 0.02441-0.64693 0.28209
  -3   7   512145.76  833.29   1 0.30824-0.70203 0.07985 0.40791 0.94794-0.58374
   3  -7  -4  968.28  145.60   1-0.55133 0.94758-0.80900 0.30717-0.20380-0.08789
   3  -7  -4  743.43  196.36   1-0.52730 0.92359-0.51608 0.01413-0.67498 0.38311
  -3   7   4  887.48  338.88   1 0.25706-0.65289 0.13870 0.36293 0.95638-0.66483
   3  -7  -3111066.6 1993.69   1-0.56047 0.95869-0.80012 0.28440-0.21371-0.00506
  -3   7   3108204.3 1931.85   1 0.47160-0.86985 0.52000-0.00437 0.71216-0.49328
  -3   7   3106592.2 1986.01   1 0.19809-0.59586 0.20380 0.31177 0.95876-0.74009
   3  -7  -219232.42 1059.01   1-0.56005 0.96023-0.80053 0.27093-0.21325 0.06740
  -3   7   218973.81  978.24   1 0.38896-0.78917 0.52064 0.00894 0.76002-0.61410
  -3   7   221557.99 1158.24   1 0.13202-0.53174 0.27301 0.25650 0.95290-0.80712
   3  -7  -1119265.1 3754.91   1-0.55325 0.95540-0.80716 0.26367-0.20588 0.13295
  -3   7   1123424.9 3765.22   1 0.26697-0.66914 0.51351 0.03001 0.81548-0.74252
  -3   7   1119589.1 3722.18   1 0.06026-0.46193 0.34393 0.19951 0.93705-0.86418
   3  -7   011541.61  690.80   1-0.54174 0.94585-0.81796 0.26057-0.19352 0.19352
  -3   7   011536.49  480.83   1 0.08618-0.49022 0.48763 0.06996 0.86878-0.86878
   3  -7   182451.55 1681.62   1-0.52646 0.93254-0.83149 0.26021-0.17735 0.25028
  -3   7  -179433.28 1336.63   1-0.18336-0.22265 0.41800 0.15363 0.88974-0.96271
  -3   7  -181208.69 1555.51   1-0.09165-0.31393 0.48052 0.09086 0.87217-0.94508
   3  -7   252400.71 1836.91   1-0.50801 0.91606-0.84670 0.26154-0.15816 0.30401
  -3   7  -249836.48 1681.84   1-0.16723-0.24033 0.54151 0.04381 0.82388-0.96970
   3  -7   324302.87  968.87   1-0.48677 0.89678-0.86279 0.26375-0.13648 0.35525
  -3   7  -325398.94  975.96   1-0.23984-0.16969 0.59543 0.00383 0.76677-0.98548
   3  -7   455850.25 1654.21   1-0.46299 0.87497-0.87916 0.26622-0.11269 0.40440
  -3   7  -454178.99 1543.63   1-0.30819-0.10326 0.64157-0.02836 0.70242-0.99424
   3  -7   531810.24 1655.19   1-0.43656 0.85044-0.89540 0.26895-0.08751 0.45210
  -3   7  -531342.42 1594.90   1-0.37102-0.04239 0.67950-0.05238 0.63294-0.99772
   3  -7   6 7490.10  668.16   1-0.40816 0.82401-0.91091 0.27055-0.06029 0.49780
  -3   7  -6 6018.01  679.71   1-0.42816 0.01300 0.70946-0.06841 0.55975-0.99757
   3  -6 -10  819.09  253.30   1-0.61159 0.97838-0.50593 0.16736-0.60825-0.12142
  -3   6  10 2062.06  604.94   1 0.49157-0.85775-0.15929 0.49799 0.85614-0.12752
   3  -6  -914976.82 1952.52   1-0.61812 0.98684-0.50485 0.15233-0.60252-0.05418
  -3   6   916161.07  972.88   1 0.47691-0.84504-0.13815 0.49075 0.86802-0.21226
   3  -6  -8 6958.66  719.85   1-0.61962 0.99026-0.50460 0.13813-0.60120 0.01745
  -3   6   8 6207.33  527.79   1 0.45658-0.82666-0.10953 0.47604 0.88291-0.30001
   3  -6  -7 7801.20  688.64   1-0.61510 0.98766-0.50536 0.12494-0.60519 0.09441
  -3   6   7 7383.47  544.94   1 0.42953-0.80145-0.07290 0.45322 0.90010-0.39021
   3  -6  -6 1282.01   70.12   1-0.32808 0.70244-0.94455 0.55057 0.01353-0.45104
   3  -6  -6 1542.77  230.18   1-0.60308 0.97757-0.50728 0.11291-0.61559 0.17778
  -3   6   6 1593.84  343.10   1 0.39474-0.76863-0.02708 0.42131 0.91839-0.48134
   3  -6  -511450.22  574.06   1-0.48097 0.85726-0.86695 0.45863-0.13062-0.23399
   3  -6  -513491.20  763.48   1-0.58135 0.95776-0.51036 0.10204-0.63368 0.26883
  -3   6   512187.44  707.56   1 0.35118-0.72704 0.02791 0.38023 0.93588-0.57168
   3  -6  -4  104.59   70.31   1 0.70141-0.32354-0.29997-0.12216 0.64655-0.93829
   3  -6  -4  198.27  138.06   1-0.52748 0.90574-0.83061 0.40841-0.17842-0.11328
   3  -6  -4  507.01  294.22   1-0.54652 0.92485-0.51435 0.09208-0.66086 0.36899
  -3   6   4   29.32  286.50   1 0.29815-0.67599 0.09175 0.33030 0.95009-0.65873
   3  -6  -3  563.52  281.27   1-0.54494 0.92517-0.81501 0.37891-0.19694-0.02182
  -3   6   3  -59.76  279.96   1 0.23548-0.61534 0.16290 0.27304 0.95812-0.73945
   3  -6  -2 1578.63  482.65   1-0.54847 0.93066-0.81171 0.36173-0.20072 0.05487
  -3   6   2  975.77  291.80   1 0.41434-0.79657 0.52095-0.07100 0.74627-0.60035
  -3   6   2  464.24  259.76   1 0.16414-0.54595 0.23983 0.21005 0.95683-0.81105
   3  -6  -126907.01  803.42   1-0.54364 0.92780-0.81621 0.35234-0.19555 0.12262
  -3   6   125946.23 1387.54   1 0.29664-0.68083 0.51607-0.05217 0.80353-0.73057
  -3   6   125040.66 1397.35   1 0.08583-0.46959 0.31911 0.14470 0.94382-0.87094
   3  -6   011745.05  822.73   1-0.53307 0.91920-0.82574 0.34798-0.18432 0.18432
  -3   6   0 6921.86  627.23   1-0.92512 0.53919-0.35220 0.83016-0.14177 0.14177
  -3   6   010898.24  619.69   1 0.12305-0.50912 0.49430-0.01636 0.86053-0.86053
  -3   6   010571.33  684.35   1 0.00335-0.38905 0.39728 0.08050 0.91768-0.91768
   3  -6   1 1451.17  382.86   1-0.51818 0.90627-0.83846 0.34681-0.16869 0.24162
  -3   6  -1  709.78  116.23   1-0.92864 0.54079-0.34726 0.83918-0.13048 0.05753
  -3   6  -1  526.58  128.48   1-0.12865-0.25941 0.43513 0.05682 0.89112-0.96409
   3  -6   267868.37 2243.01   1-0.49979 0.88984-0.85310 0.34757-0.14972 0.29557
  -3   6  -266600.21 2027.68   1-0.47276 0.08276 0.29910 0.20676 0.82886-0.97488
  -3   6  -268180.66 2197.30   1-0.16219-0.22745 0.53760-0.03190 0.82745-0.97326
   3  -6   3  740.97  383.35   1-0.47842 0.87044-0.86873 0.34931-0.12807 0.34684
  -3   6  -3  622.85  280.50   1-0.23982-0.15178 0.59541-0.07578 0.76678-0.98550
   3  -6   423380.49  980.06   1-0.45409 0.84804-0.88478 0.35179-0.10463 0.39630
  -3   6  -422924.67  903.85   1-0.31181-0.08173 0.64388-0.11032 0.69870-0.99052
  -3   6  -553280.42 1725.33   1-0.37693-0.01857 0.68281-0.13535 0.62584-0.99062
   3  -6   6 1383.84  264.89   1-0.39897 0.79683-0.91550 0.35471-0.05160 0.48911
  -3   6  -6 1068.69  343.72   1-0.43523 0.03797 0.71285-0.15146 0.54991-0.98773
   3  -6   728128.85 1111.56   1-0.36811 0.76793-0.92949 0.35480-0.02285 0.53328
  -3   6  -723195.43 2571.61   1-0.48656 0.08735 0.73482-0.15952 0.47253-0.98332
   3  -6   8 4260.84  664.88   1-0.33513 0.73691-0.94214 0.35354 0.00718 0.57615
  -3   6  -8 3936.64  639.34   1-0.53142 0.13025 0.74954-0.16034 0.39467-0.97842
  -3   5  1110688.18 1235.19   1 0.53571-0.88201-0.22588 0.47105 0.81362-0.01214
   3  -5 -1043298.38 1775.37   1-0.61247 0.96130-0.50579 0.24690-0.60749-0.12218
  -3   5  1042845.76 1722.31   1 0.52792-0.87618-0.21377 0.47285 0.82194-0.09332
   3  -5  -9 7565.00  701.61   1-0.62042 0.97118-0.50446 0.23162-0.60049-0.05622
  -3   5   9 7089.46  583.11   1 0.51542-0.86563-0.19468 0.46766 0.83452-0.17876
   3  -5  -887262.74 2774.85   1-0.62334 0.97603-0.50395 0.21716-0.59788 0.01413
  -3   5   881147.13 2584.46   1 0.49722-0.84938-0.16754 0.45443 0.85129-0.26839
   3  -5  -723553.03 1913.50   1-0.62028 0.97489-0.50448 0.20374-0.60061 0.08983
  -3   5   721577.79  677.36   1 0.47203-0.82615-0.13121 0.43200 0.87176-0.36172
   3  -5  -6135294.6 2390.92   1-0.60975 0.96628-0.50623 0.19154-0.60985 0.17204
  -3   5   6136400.0 2125.95   1 0.43834-0.79431-0.08480 0.39941 0.89479-0.45774
   3  -5  -599679.32 1947.97   1 0.45032-0.09236-0.69423 0.36564 0.56146-0.92615
   3  -5  -5100880.9 1980.37   1-0.34897 0.70732-0.93711 0.60879-0.00533-0.35925
   3  -5  -5108061.5 2310.60   1-0.58951 0.94797-0.50926 0.18062-0.62699 0.26215
  -3   5   5110492.7 2346.46   1 0.39468-0.75262-0.02700 0.35553 0.91841-0.55421
   3  -5  -419378.81 1109.67   1 0.70258-0.34262-0.29706-0.04546 0.64663-0.93837
   3  -5  -418716.12 1083.56   1-0.46681 0.82708-0.87664 0.53407-0.11648-0.17521
   3  -5  -420558.22 1261.07   1-0.55613 0.91651-0.51336 0.17077-0.65357 0.36170
  -3   5   421016.01 1282.47   1 0.33974-0.69966 0.04195 0.30048 0.93958-0.64821
   3  -5  -350716.29  940.52   1 0.77841-0.41643-0.02373-0.33261 0.62729-0.84613
   3  -5  -352373.30 1036.29   1-0.50641 0.86865-0.84796 0.49149-0.15651-0.06226
  -3   5   354323.36 1126.26   1 0.27293-0.63488 0.12060 0.23571 0.95444-0.73577
   3  -5  -221036.83  961.95   1 0.79447-0.43046 0.15729-0.52746 0.58656-0.73244
   3  -5  -222995.75 1121.29   1-0.51986 0.88406-0.83706 0.46671-0.17045 0.02460
  -3   5   222930.34 1080.28   1 0.42628-0.79053 0.52094-0.15064 0.73952-0.59360
  -3   5   223365.47 1140.56   1 0.19514-0.55903 0.20697 0.16329 0.95868-0.81290
   3  -5  -193248.65 1800.93   1-0.52018 0.88634-0.83680 0.45256-0.17078 0.09785
  -3   5   1100228.1 1833.29   1 0.30953-0.67573 0.51701-0.13276 0.79804-0.72508
  -3   5   196492.16 1821.79   1 0.10857-0.47441 0.29659 0.08759 0.94881-0.87593
   3  -5   0 1017.01  463.97   1-0.51248 0.88061-0.84312 0.44499-0.16277 0.16277
  -3   5   0  711.00  110.14   1-0.85357 0.48557-0.41948 0.81778-0.30895 0.30895
  -3   5   0  817.74  175.45   1 0.01704-0.38482 0.38468 0.01346 0.92288-0.92288
   3  -5   127425.51 1661.42   1-0.49924 0.86933-0.85352 0.44150-0.14915 0.22208
  -3   5  -124762.56 1490.13   1-0.83498 0.46499-0.43125 0.84349-0.34179 0.26888
  -3   5  -126388.67 1513.16   1-0.10509-0.26500 0.44203-0.02973 0.89082-0.96378
  -3   5  -128154.25 1669.10   1-0.07530-0.29445 0.46670-0.05458 0.88120-0.95410
   3  -5   2  922.74  521.03   1-0.48180 0.85387-0.86635 0.44044-0.13147 0.27732
  -3   5  -2  249.72   90.27   1-0.81914 0.44722-0.44024 0.86646-0.36768 0.22187
  -3   5  -2  715.22  156.67   1-0.41883 0.04678 0.32532 0.10087 0.84778-0.99379
  -3   5  -2  611.55  257.57   1-0.16442-0.20730 0.53933-0.11327 0.82588-0.97169
   3  -5   3 1471.58  565.16   1-0.46098 0.83501-0.88047 0.44068-0.11070 0.32948
  -3   5  -3  832.51  155.20   1-0.81097 0.43714-0.44453 0.88474-0.38039 0.16168
  -3   5  -3  720.26   82.84   1-0.74804 0.37411 0.12226 0.31792 0.65228-0.87118
   3  -5   4 1162.60  340.92   1-0.43692 0.81288-0.89519 0.44177-0.08786 0.37954
  -3   5  -4  760.58  107.27   1-0.82681 0.45113-0.43605 0.89019-0.35529 0.06352
  -3   5  -4 1083.79  345.54   1-0.32283-0.05280 0.65082-0.19692 0.68717-0.97899
   3  -5   5 -127.22  327.13   1-0.41063 0.78856-0.90964 0.44231-0.06263 0.42723
  -3   5  -5  734.87  296.84   1-0.38965 0.01206 0.68980-0.22199 0.61019-0.97497
   3  -5   6 3799.79  486.00   1-0.38200 0.76189-0.92346 0.44224-0.03572 0.47323
  -3   5  -6 5194.88  535.91   1-0.44833 0.06896 0.71890-0.23717 0.53120-0.96901
   3  -5   722369.50  988.23   1-0.35117 0.73301-0.93628 0.44115-0.00733 0.51776
  -3   5  -720566.32 1454.75   1-0.49909 0.11777 0.73940-0.24376 0.45187-0.96265
   3  -5   8 7093.03  822.32   1-0.31820 0.70200-0.94775 0.43872 0.02235 0.56098
  -3   5  -8 6243.28  762.89   1-0.54278 0.15951 0.75245-0.24291 0.37309-0.95684
   3  -4 -11 3867.06  539.35   1-0.59305 0.92201-0.50876 0.34349-0.62405-0.17859
  -3   4  11 2030.56  356.03   1 0.56770-0.89608-0.27755 0.44309 0.77503 0.02644
   3  -4 -1049621.66 2476.80   1-0.60667 0.93755-0.50672 0.32750-0.61251-0.11716
  -3   4  1051598.23 2523.46   1 0.56217-0.89250-0.26837 0.44782 0.78226-0.05364
   3  -4  -9  891.55  288.39   1-0.61581 0.94862-0.50524 0.31207-0.60456-0.05215
  -3   4   9 2019.78  377.10   1 0.55218-0.88447-0.25206 0.44542 0.79470-0.13894
   3  -4  -889665.00 1912.17   1-0.61985 0.95458-0.50456 0.29744-0.60099 0.01725
  -3   4   8105451.1 2020.33   1 0.53660-0.87085-0.22728 0.43454 0.81264-0.22975
   3  -4  -758022.54 1161.61   1-0.61778 0.95444-0.50491 0.28384-0.60282 0.09204
  -3   4   754669.66 1096.24   1 0.51392-0.85012-0.19241 0.41358 0.83597-0.32594
   3  -4  -624841.28 2205.83   1-0.60810 0.94667-0.50650 0.27148-0.61128 0.17347
  -3   4   621789.45 1262.21   1 0.48218-0.82033-0.14569 0.38076 0.86387-0.42670
   3  -4  -5224024.9 4944.79   1-0.58847 0.92897-0.50941 0.26044-0.62785 0.26301
  -3   4   5225472.7 4952.85   1 0.43904-0.77906-0.08575 0.33465 0.89436-0.53015
   3  -4  -4163415.7 2812.46   1 0.68395-0.34190-0.34140 0.07849 0.64470-0.93644
   3  -4  -4162830.4 2813.57   1-0.30507 0.64739-0.95172 0.68906 0.03400-0.32568
   3  -4  -4173943.5 3144.19   1-0.55531 0.89774-0.51345 0.25054-0.65420 0.36233
  -3   4   4173260.5 3122.57   1 0.38240-0.72439-0.01125 0.27407 0.92392-0.63256
   3  -4  -3209288.7 4106.08   1 0.78891-0.44487 0.05828-0.33500 0.61173-0.83057
   3  -4  -3211833.4 4179.38   1-0.41939 0.76366-0.90502 0.62847-0.07098-0.14777
  -3   4   3223154.7 4470.32   1 0.31087-0.65483 0.07673 0.20000 0.94734-0.72882
   3  -4  -278090.75 1582.77   1 0.78949-0.44344 0.27739-0.56796 0.54749-0.69337
   3  -4  -284563.93 1754.40   1-0.46022 0.80642-0.88096 0.59023-0.10995-0.03589
  -3   4   285096.77 1773.41   1 0.42369-0.76996 0.52095-0.23029 0.74100-0.59508
  -3   4   284240.50 1781.09   1 0.22486-0.57083 0.17464 0.11598 0.95860-0.81282
   3  -4  -1111765.3 2277.35   1 0.77038-0.42239 0.40235-0.70674 0.49458-0.56752
   3  -4  -1127178.1 2610.67   1-0.47375 0.82192-0.87196 0.56735-0.12339 0.05047
  -3   4   1109585.9 2222.44   1-0.79518 0.44695-0.45227 0.75689-0.40389 0.47680
  -3   4   1130528.3 2630.88   1 0.30462-0.65285 0.51666-0.21205 0.80015-0.72719
  -3   4   1125524.0 2568.11   1 0.12756-0.47547 0.27755 0.02701 0.95220-0.87931
   3  -4   0143910.3 2974.27   1-0.47344 0.82358-0.87217 0.55367-0.12309 0.12309
  -3   4   0139938.0 2802.70   1-0.74886 0.39871-0.47129 0.78990-0.46592 0.46592
  -3   4   0146280.3 2919.12   1 0.13099-0.48113 0.49564-0.17702 0.85858-0.85858
  -3   4   0147065.4 2986.59   1 0.02422-0.37409 0.37802-0.05949 0.92548-0.92548
   3  -4   114056.36  694.08   1-0.46470 0.81680-0.87804 0.54565-0.11438 0.18731
  -3   4  -112856.15  563.46   1-0.69248 0.34040-0.48874 0.82132-0.53066 0.45775
  -3   4  -113349.02  570.86   1-0.10880-0.24333 0.44096-0.10834 0.89090-0.96387
  -3   4  -112928.96  604.86   1-0.07887-0.27296 0.46973-0.13725 0.87927-0.95218
   3  -4   283096.11 1680.20   1-0.44982 0.80389-0.88745 0.54139-0.10044 0.24628
  -3   4  -279508.59 1422.61   1-0.62385 0.26988-0.50386 0.85048-0.59742 0.45148
  -3   4  -283505.00 1501.21   1-0.40265 0.04855 0.33279 0.01373 0.85271-0.99872
  -3   4  -283546.51 1603.63   1-0.17631-0.17749 0.54852-0.20210 0.81733-0.96314
   3  -4   3 4400.78  400.83   1-0.43094 0.78697-0.89863 0.53867-0.08208 0.30084
  -3   4  -3 4397.91  231.47   1-0.54027 0.18437-0.51495 0.87551-0.66552 0.44662
  -3   4  -3 4332.03  245.51   1-0.69198 0.33599 0.16579 0.19472 0.70262-0.92151
  -3   4  -3 4254.34  334.30   1-0.26490-0.09086 0.61288-0.25254 0.74443-0.96330
  -3   4  -4 4495.37  296.24   1-0.89085 0.53298-0.02603 0.40041 0.45353-0.74538
   3  -4   4 4948.23  315.16   1 0.44371-0.08569 0.52076-0.89512 0.72933-0.43749
   3  -4   5  687.66  331.10   1-0.38331 0.74325-0.92287 0.53511-0.03693 0.40152
  -3   4  -5  436.21   81.14   1-0.96473 0.60505-0.19483 0.58327 0.17697-0.54194
   3  -4   5  567.33  122.25   1 0.33821 0.02175 0.51877-0.90709 0.78516-0.42035
  -3   4  -5  606.58  252.21   1-0.41023 0.05055 0.70063-0.31247 0.58379-0.94857
   3  -4   614106.03  960.41   1-0.35544 0.71734-0.93463 0.53296-0.01122 0.44873
  -3   4  -611394.52  455.31   1-0.94660 0.58489-0.31635 0.71881-0.06206-0.37576
  -3   4  -611646.13 1024.23   1-0.46804 0.10656 0.72745-0.32538 0.50174-0.93955
   3  -4   7 1908.95  384.95   1-0.32520 0.68906-0.94550 0.52994 0.01610 0.49432
  -3   4  -7 1254.58  273.19   1-0.51705 0.15362 0.74535-0.32938 0.42083-0.93161
   3  -4   8  816.96  350.22   1-0.29274 0.65855-0.95513 0.52567 0.04485 0.53848
  -3   4  -8 1084.26  350.56   1-0.55847 0.19287 0.75587-0.32591 0.34170-0.92551
   3  -4   9 4271.03  575.71   1-0.25816 0.62580-0.96319 0.51981 0.07484 0.58152
  -3   4  -9 3128.02  517.33   1-0.59345 0.22592 0.76013-0.31628 0.26458-0.92136
   3  -3 -11 2521.54  457.57   1-0.57863 0.88963-0.51072 0.42513-0.63588-0.16676
  -3   3  11 4034.63  542.93   1 0.59707-0.90766-0.32787 0.41384 0.73211 0.06984
   3  -3 -10 7841.27  712.58   1-0.59336 0.90628-0.50872 0.40918-0.62379-0.10588
  -3   3  10 7179.91  617.56   1 0.59395-0.90648-0.32229 0.42216 0.73711-0.00806
   3  -3  -921307.36 1946.57   1-0.60343 0.91828-0.50722 0.39374-0.61529-0.04142
  -3   3   920548.14  895.94   1 0.58677-0.90124-0.30963 0.42341 0.74821-0.09205
  -3   3   8  838.53  314.21   1 0.57427-0.89060-0.28861 0.41625 0.76609-0.18320
   3  -3  -7182672.6 3878.80   1-0.60658 0.92528-0.50673 0.36535-0.61259 0.10181
  -3   3   7181185.9 3704.58   1 0.55489-0.87316-0.25646 0.39800 0.79140-0.28137
   3  -3  -6  439.75  267.18   1-0.59699 0.91761-0.50819 0.35285-0.62075 0.18294
  -3   3   6  836.00  207.83   1 0.52608-0.84630-0.21092 0.36637 0.82386-0.38669
   3  -3  -5184006.4 3325.60   1-0.57693 0.89948-0.51093 0.34165-0.63725 0.27241
  -3   3   5185510.2 3326.87   1 0.48461-0.80679-0.14919 0.31854 0.86191-0.49760
   3  -3  -420130.86  889.29   1-0.54256 0.86703-0.51473 0.33150-0.66382 0.37195
  -3   3   418676.62  837.56   1 0.42678-0.75085-0.06921 0.25241 0.90170-0.61033
   3  -3  -3114996.1 1737.04   1 0.79449-0.46842 0.18129-0.37835 0.57957-0.79838
   3  -3  -3115084.4 1744.98   1-0.21615 0.54236-0.97009 0.77294 0.11045-0.32923
  -3   3   3116823.0 1898.93   1 0.48806-0.81439 0.51928-0.32221 0.70151-0.48263
  -3   3   3118710.5 1915.59   1 0.34972-0.67576 0.02971 0.16739 0.93638-0.71785
   3  -3  -2303205.3 4531.83   1 0.76036-0.43232 0.44335-0.65425 0.47463-0.62051
   3  -3  -2315960.1 4729.07   1-0.33840 0.66665-0.94099 0.73010 0.00424-0.15008
  -3   3   2320257.8 4844.84   1 0.40454-0.73283 0.52088-0.30986 0.75167-0.60575
  -3   3   2322604.5 4880.70   1 0.25304-0.58109 0.14324 0.06775 0.95679-0.81101
   3  -3  -143934.48 1514.36   1 0.72097-0.39096 0.55903-0.78385 0.40947-0.48241
   3  -3  -145260.96 1579.27   1-0.38641 0.71662-0.92146 0.69667-0.03982-0.03309
  -3   3   142367.01 1465.89   1-0.69765 0.36734-0.48735 0.71232-0.52512 0.59803
  -3   3   144350.33 1543.29   1 0.27986-0.61010 0.51468-0.28971 0.81041-0.73745
   3  -3   0150723.3 2348.86   1 0.69434-0.36254 0.61483-0.85363 0.37399-0.37399
   3  -3   0165847.6 2603.65   1-0.40418 0.73634-0.91293 0.67423-0.05651 0.05651
  -3   3   0157076.5 2397.57   1-0.61569 0.28352-0.50526 0.74430-0.60467 0.60467
  -3   3   0165409.6 2529.77   1 0.10071-0.43288 0.49034-0.25137 0.86569-0.86569
  -3   3   0164152.0 2563.02   1 0.02176-0.35371 0.38031-0.14142 0.92460-0.92460
   3  -3   1174117.9 2768.10   1-0.40616 0.74029-0.91193 0.65933-0.05839 0.13131
  -3   3  -1173206.4 2626.30   1-0.51275 0.17866-0.51718 0.77017-0.68527 0.61230
  -3   3  -1174181.7 2650.47   1-0.13816-0.19602 0.43226-0.17931 0.89109-0.96406
  -3   3  -1179276.9 2788.65   1-0.09481-0.23910 0.48317-0.23032 0.87037-0.94328
   3  -3   2195659.1 3119.36   1-0.39855 0.73463-0.91571 0.64922-0.05120 0.19704
  -3   3  -2197240.9 2983.32   1-0.41474 0.07860 0.32722-0.06037 0.84906-0.99507
   3  -3   2187174.2 2827.83   1 0.38900-0.05289 0.52064-0.78746 0.76000-0.61407
  -3   3  -2200373.2 3110.56   1-0.20139-0.13449 0.56747-0.30069 0.79837-0.94418
   3  -3   3169674.0 3517.69   1-0.38442 0.72246-0.92237 0.64198-0.03796 0.25672
  -3   3  -3165153.4 3267.37   1-0.67161 0.33339 0.18044 0.10043 0.71858-0.93742
   3  -3   3158723.8 3137.08   1 0.24918 0.08889 0.51175-0.79252 0.82220-0.60332
  -3   3  -3162148.3 3289.86   1-0.29460-0.04325 0.63278-0.35209 0.71609-0.93496
   3  -3   4135292.4 2560.84   1-0.36549 0.70549-0.93059 0.63629-0.02043 0.31211
  -3   3  -4129323.5 2275.96   1-0.85239 0.51244 0.02206 0.27264 0.52243-0.81428
   3  -3   4120423.4 2117.82   1 0.10756 0.23251 0.49158-0.78629 0.86416-0.57242
  -3   3  -4133935.2 2461.26   1-0.37355 0.03373 0.68092-0.38633 0.62991-0.92174
   3  -3   558317.60 1488.11   1-0.34276 0.68472-0.93942 0.63122 0.00029 0.36429
  -3   3  -568840.80 1533.05   1-0.94319 0.60145-0.11734 0.42608 0.31082-0.67579
   3  -3   563822.66 1422.58   1-0.01977 0.36193 0.46465-0.77339 0.88526-0.52043
   3  -3   6 8463.85  658.13   1-0.31688 0.66080-0.94817 0.62607 0.02353 0.41397
  -3   3  -6 8555.95  454.76   1-0.96678 0.62312-0.22600 0.54868 0.11940-0.55736
   3  -3   6 7739.27  392.09   1-0.12186 0.46601 0.43715-0.75983 0.89109-0.45329
  -3   3  -6 9369.05  872.37   1-0.49472 0.15114 0.73784-0.41543 0.45916-0.89697
   3  -3   775052.62 1561.14   1-0.28824 0.63412-0.95631 0.62031 0.04879 0.46163
  -3   3  -767252.37 1186.17   1-0.95071 0.60500-0.30714 0.64387-0.04240-0.46839
  -3   3  -771546.25 1937.02   1-0.54041 0.19488 0.75188-0.41556 0.37765-0.88844
   3  -3   812410.24  926.69   1-0.25711 0.60485-0.96340 0.61351 0.07574 0.50768
  -3   3  -8 8728.49  718.71   1-0.91272 0.56523-0.36774 0.71839-0.17805-0.40549
  -3   3  -811942.19 1119.62   1-0.57837 0.23071 0.75890-0.40865 0.29923-0.88304
   3  -3   916776.62  945.40   1-0.22362 0.57332-0.96909 0.60530 0.10418 0.55217
  -3   3  -914506.44 1619.78   1-0.60995 0.26036 0.76018-0.39603 0.22376-0.88054
   3  -3  1011180.46  769.36   1-0.18786 0.53952-0.97302 0.59535 0.13392 0.59537
  -3   3 -10 7653.70 1076.68   1-0.63609 0.28457 0.75670-0.37866 0.15093-0.88069
   3  -2 -12 -113.64  255.08   1-0.53552 0.82664-0.51538 0.52342-0.66902-0.20659
  -3   2  12  226.98  320.81   1 0.62133-0.91206-0.37310 0.36551 0.68901 0.18585
   3  -2 -11 5784.81  554.34   1-0.55566 0.84871-0.51341 0.50751-0.65393-0.14871
  -3   2  11 5171.73  658.71   1 0.62342-0.91609-0.37717 0.38349 0.68489 0.11707
   3  -2 -10 8630.96  616.19   1-0.57129 0.86626-0.51163 0.49177-0.64175-0.08792
  -3   2  10 8216.34  659.32   1 0.62267-0.91728-0.37571 0.39593 0.68637 0.04268
   3  -2  -9 8506.86  678.19   1-0.58197 0.87887-0.51028 0.47647-0.63317-0.02353
  -3   2   9 8312.60  657.18   1 0.61844-0.91498-0.36750 0.40164 0.69459-0.03844
   3  -2  -8  174.26  276.00   1-0.58697 0.88579-0.50961 0.46185-0.62908 0.04534
  -3   2   8  325.09  320.42   1 0.60961-0.90809-0.35079 0.39883 0.71085-0.12761
   3  -2  -7 2279.05  307.97   1-0.58514 0.88589-0.50986 0.44815-0.63058 0.11981
  -3   2   7 2871.21  374.37   1 0.59436-0.89479-0.32302 0.38497 0.73646-0.22612
   3  -2  -6 1476.42  199.74   1-0.57471 0.87738-0.51121 0.43555-0.63903 0.20122
  -3   2   6 1942.90  320.84   1 0.56970-0.87200-0.28089 0.35671 0.77235-0.33518
   3  -2  -520924.07  955.73   1-0.55293 0.85752-0.51370 0.42409-0.65602 0.29118
  -3   2   520258.73  888.34   1 0.53150-0.83576-0.21931 0.30903 0.81817-0.45386
   3  -2  -492434.29 1554.34   1-0.51559 0.82211-0.51698 0.41342-0.68329 0.39141
  -3   2   494558.53 1541.85   1 0.47382-0.78003-0.13374 0.23738 0.87040-0.57895
   3  -2  -3 3074.14  198.36   1 0.76020-0.45211 0.44395-0.56136 0.47433-0.69315
   3  -2  -3 3801.48  163.30   1 0.23857 0.06954-0.86455 0.74705 0.44229-0.66110
  -3   2   3 3203.82  231.13   1 0.39051-0.69863-0.02164 0.13913 0.92034-0.70181
   3  -2  -3 2816.73  166.02   1 0.61466-0.30646-0.36029 0.24271 0.70169-0.92041
   3  -2  -2331277.2 3142.88   1 0.65808-0.34805 0.67851-0.80985 0.32640-0.47221
  -3   2   2305237.2 2980.83   1-0.68084 0.37048-0.49188 0.62334-0.54267 0.68861
   3  -2  -1175417.7 1755.51   1-0.22901 0.54120-0.96830 0.82299 0.09964-0.17257
  -3   2   1166892.2 1677.87   1-0.60875 0.29656-0.74675 0.89211-0.26791 0.34084
  -3   2   1165455.2 1661.04   1-0.58364 0.27135-0.51006 0.65547-0.63181 0.70478
  -3   2   1172088.9 1755.00   1 0.23241-0.54464 0.50992-0.36454 0.82822-0.75529
   3  -2  -1165613.7 1671.58   1 0.39788-0.08581-0.03115-0.11417 0.91690-0.98974
   3  -2   0261429.0 2598.27   1-0.28710 0.60129-0.95660 0.79747 0.04978-0.04978
  -3   2   0234062.5 2337.84   1-0.58821 0.27406-0.77087 0.93012-0.24444 0.24444
  -3   2   0253198.5 2476.12   1 0.04562-0.35983 0.47949-0.32018 0.87635-0.87635
   3  -2   0242197.0 2361.08   1 0.46125-0.14703 0.52035-0.67963 0.71866-0.71866
  -3   2   0248894.5 2464.35   1 0.00385-0.31788 0.39683-0.23757 0.91788-0.91788
   3  -2   0229486.0 2259.37   1 0.26383 0.05018 0.13100-0.29026 0.95562-0.95562
   3  -2   267897.98 2365.63   1-0.31919 0.63730-0.94744 0.76051 0.02147 0.12436
  -3   2  -270398.13 1131.78   1-0.44918 0.13099 0.31082-0.12364 0.83762-0.98364
   3  -2   268250.42 2650.67   1 0.14951 0.16864 0.49866-0.68584 0.85380-0.70793
  -3   2  -269717.27 1171.66   1-0.24470-0.07327 0.59886-0.41171 0.76255-0.90836
  -3   2  -3371296.4 5544.43   1-0.67545 0.35520 0.17773 0.02346 0.71566-0.93449
   3  -2   3343251.0 5125.30   1-0.01375 0.33397 0.46611-0.66729 0.88461-0.66571
  -3   2  -3371897.1 5615.64   1-0.33990 0.01996 0.66130-0.46026 0.66868-0.88755
   3  -2   4113115.2 2416.79   1-0.30290 0.62491-0.95234 0.73761 0.03592 0.25574
  -3   2  -4106635.7 2146.97   1-0.83484 0.51273 0.04138 0.17372 0.54892-0.84078
   3  -2   498372.69 1979.00   1-0.15707 0.47928 0.42642-0.64155 0.89077-0.59891
  -3   2  -496441.58 2077.16   1-0.41673 0.09494 0.70383-0.48888 0.57528-0.86716
   3  -2   5403227.122691.61   1-0.28534 0.60932-0.95704 0.72841 0.05132 0.31326
  -3   2  -5374111.221009.70   1-0.92431 0.60031-0.07856 0.30754 0.37346-0.73827
   3  -2   5336050.018873.58   1-0.27019 0.59433 0.38769-0.61663 0.88129-0.51626
  -3   2  -5380504.521398.34   1-0.47840 0.15466 0.73165-0.50281 0.48560-0.85044
   3  -2   637623.01 1022.06   1-0.26343 0.58932-0.96211 0.71958 0.07031 0.36726
  -3   2  -637362.79  855.41   1-0.96168 0.63598-0.17652 0.41952 0.20975-0.64771
   3  -2   629658.77  678.52   1-0.35116 0.67728 0.35541-0.59827 0.86623-0.42819
  -3   2  -636535.71 1987.29   1-0.52818 0.20249 0.74865-0.50590 0.40067-0.83848
   3  -2   7137519.2 4306.73   1-0.23794 0.56579-0.96690 0.71049 0.09209 0.41841
  -3   2  -7127663.1 3895.68   1-0.96499 0.63723-0.25372 0.51076 0.06631-0.57711
   3  -2   849208.73 1706.39   1-0.20938 0.53919-0.97091 0.70062 0.11610 0.46733
  -3   2  -847206.01 1553.02   1-0.94726 0.61755-0.31496 0.58595-0.05909-0.52467
  -3   2  -847928.30 2929.64   1-0.60174 0.27203 0.76034-0.48978 0.24450-0.82831
   3  -2   911392.25  826.34   1-0.17806 0.50982-0.97372 0.68954 0.14196 0.51439
  -3   2  -911900.73 1328.19   1-0.62888 0.29724 0.75818-0.47373 0.17220-0.82898
   3  -2  1046849.40 1841.48   1-0.14416 0.47788-0.97494 0.67687 0.16941 0.55987
  -3   2 -1043712.74 2009.08   1-0.65117 0.31751 0.75192-0.45367 0.10287-0.83268
  -3   1  1224444.12 2192.01   1 0.64264-0.91544-0.41630 0.32907 0.64319 0.23167
   3  -1 -11 2305.18  411.52   1-0.52251 0.79761-0.51646 0.59023-0.67840-0.12424
  -3   1  11 2925.28  519.49   1 0.64641-0.92116-0.42441 0.35108 0.63404 0.16791
   3  -1 -10 9871.92  764.50   1-0.53876 0.81578-0.51509 0.57491-0.66664-0.06303
  -3   1  10 8716.32  650.57   1 0.64785-0.92453-0.42753 0.36811 0.63047 0.09858
   3  -1  -941718.92 1450.42   1-0.54960 0.82854-0.51404 0.55991-0.65855 0.00183
  -3   1   942584.73 1511.97   1 0.64648-0.92511-0.42455 0.37904 0.63388 0.02226
  -3   1   8 2868.58  153.90   1 0.61032-0.89097-0.48341 0.45190 0.62754-0.04407
  -3   1   8 2984.47  159.79   1 0.13645-0.41701-0.91634 0.88500 0.37642 0.20705
   3  -1  -8 3239.59  450.58   1-0.55420 0.83507-0.51357 0.54549-0.65505 0.07130
  -3   1   8 3067.00  331.78   1 0.64141-0.92198-0.41370 0.38209 0.64609-0.06284
  -3   1   7100446.4 2149.30   1 0.47377-0.75627-0.66890 0.65128 0.57279-0.06222
  -3   1   799814.08 2136.05   1 0.15057-0.43308-0.91017 0.89269 0.38589 0.12464
   3  -1  -7112904.9 2613.24   1-0.55127 0.83407-0.51387 0.53184-0.65728 0.14650
  -3   1   7111789.4 2540.12   1 0.63098-0.91349-0.39218 0.37448 0.66936-0.15902
   3  -1  -625550.11 1250.81   1-0.53879 0.82351-0.51509 0.51911-0.66661 0.22880
  -3   1   624163.34 1153.09   1 0.61219-0.89664-0.35563 0.35183 0.70622-0.26878
  -3   1   5146283.0 2295.78   1 0.57971-0.86610-0.29741 0.30752 0.75860-0.39407
  -3   1   420320.87  788.94   1 0.47111-0.75951 0.52002-0.49618 0.71248-0.42063
  -3   1   421170.38  790.30   1 0.52458-0.81288-0.20863 0.23263 0.82539-0.53395
   3  -1  -420225.50  727.57   1 0.69781-0.40950-0.56060 0.53670 0.44584-0.73774
   3  -1  -351227.42 1046.13   1 0.66296-0.37271-0.38639 0.34845 0.64123-0.86003
  -3   1   351036.26 1050.94   1-0.36913 0.07880-0.92907 0.96693-0.02379 0.24254
  -3   1   351730.35 1155.78   1 0.40436-0.69472 0.52088-0.48309 0.75178-0.53289
  -3   1   351703.54 1121.26   1 0.43501-0.72520-0.08028 0.11815 0.89683-0.67831
   3  -1  -349988.93 1074.27   1 0.64827-0.35800-0.42846 0.39054 0.62940-0.84812
   3  -1  -2 1801.35  123.16   1 0.26621 0.02595-0.84742 0.79562 0.45935-0.60523
  -3   1   2 2246.54  154.81   1-0.35998 0.06769-0.93283 0.98459-0.01538 0.16122
  -3   1   2 1766.04  191.43   1 0.30386-0.59618 0.51661-0.46487 0.80048-0.65456
  -3   1   2 2136.54  165.32   1 0.30185-0.59402 0.08740-0.03561 0.94933-0.80365
   3  -1  -2 1953.56  135.77   1 0.54496-0.25276-0.24049 0.18867 0.80323-0.94895
   3  -1  -1 2881.27  159.59   1 0.02413 0.27008-0.95433 0.88861 0.29777-0.37070
  -3   1   1 2687.58  188.63   1-0.37787 0.08362-0.92530 0.99097-0.03187 0.10479
  -3   1   1 5175.19  283.56   1 0.15916-0.45342 0.50015-0.43443 0.85118-0.77824
  -3   1   1 2686.38  192.28   1 0.13338-0.42754 0.27163-0.20594 0.95311-0.88022
   3  -1  -1 2707.40  148.54   1 0.38764-0.09350-0.01795-0.04774 0.92163-0.99447
   3  -1   0 8302.47  346.04   1-0.10292 0.39914-0.97394 0.89434 0.20208-0.20208
  -3   1   0 7147.30  321.65   1-0.40403 0.10782-0.91300 0.99256-0.05637 0.05637
  -3   1   0 7850.06  326.93   1-0.03491-0.26136 0.46091-0.38124 0.88675-0.88675
   3  -1   0 7714.11  303.08   1 0.29758-0.00134 0.51614-0.59578 0.80314-0.80314
   3  -1   0 8595.26  345.71   1 0.21007 0.08602 0.19083-0.27046 0.95887-0.95887
   3  -1   1166882.3 1735.93   1-0.16927 0.46744-0.97422 0.88073 0.14913-0.07620
  -3   1  -1146687.3 1545.91   1-0.43329 0.13513-0.89729 0.99076-0.08435 0.01143
  -3   1  -1161980.0 1631.40   1-0.26650-0.03174 0.38907-0.29548 0.88181-0.95482
   3  -1   1154131.9 1545.72   1 0.11667 0.18154 0.49319-0.58678 0.86205-0.78912
  -3   1  -1160406.8 1629.78   1-0.19323-0.10485 0.56136-0.46779 0.80468-0.87759
   3  -1   1153612.7 1553.89   1 0.05389 0.24417 0.35003-0.44363 0.93518-0.86230
   3  -1   2133697.6 1484.16   1-0.20223 0.50236-0.97170 0.86432 0.12204 0.02380
   3  -1   2127143.9 1303.96   1-0.06490 0.36517 0.45315-0.56071 0.88906-0.74313
  -3   1  -2133383.6 1407.01   1-0.31301 0.01293 0.64465-0.53717 0.69745-0.84336
   3  -1   328586.18 1077.10   1-0.21533 0.51741-0.97019 0.84893 0.11114 0.10764
  -3   1  -329909.01 1055.27   1-0.69594 0.39378 0.16288-0.04138 0.69937-0.91827
   3  -1   327257.57  957.68   1-0.22496 0.52722 0.40391-0.52542 0.88670-0.66780
  -3   1  -329080.00 1068.95   1-0.40371 0.10167 0.69726-0.57588 0.59231-0.81118
   3  -1   4125192.4 2100.16   1-0.21562 0.51967-0.97015 0.83501 0.11089 0.18082
  -3   1  -4131176.8 2036.77   1-0.83258 0.52841 0.04377 0.09165 0.55216-0.84402
   3  -1   4122582.6 1906.86   1-0.35105 0.65525 0.35546-0.49081 0.86625-0.57423
  -3   1  -4130610.2 2109.60   1-0.47263 0.16874 0.72934-0.59406 0.49464-0.78652
   3  -1   533808.46 1457.14   1-0.20708 0.51308-0.97117 0.82214 0.11802 0.24662
  -3   1  -532768.41 1316.87   1-0.91419 0.60812-0.06110 0.21042 0.40063-0.76544
   3  -1   529175.23 1175.19   1-0.44141 0.74760 0.31460-0.46386 0.84034-0.47530
  -3   1  -533986.49 1868.92   1-0.52564 0.21979 0.74792-0.59874 0.40534-0.77019
   3  -1   6107722.6 2513.56   1-0.19203 0.49999-0.97267 0.80975 0.13048 0.30708
  -3   1  -6106109.8 2370.80   1-0.95466 0.64689-0.14894 0.31224 0.25775-0.69571
  -3   1  -6103697.2 2767.07   1-0.56724 0.25934 0.75739-0.59432 0.32340-0.76126
   3  -1   717433.82 1082.80   1-0.17193 0.48185-0.97408 0.79727 0.14696 0.36354
  -3   1  -717745.30 1001.66   1-0.96672 0.65705-0.22074 0.39798 0.12927-0.64022
  -3   1  -717695.89 1804.03   1-0.60049 0.29066 0.76033-0.58337 0.24757-0.75841
   3  -1   8110628.0 2099.37   1-0.14772 0.45959-0.97490 0.78421 0.16656 0.41687
  -3   1  -8103609.8 1834.59   1-0.95997 0.64821-0.27969 0.47098 0.01455-0.59832
   3  -1   9  953.41  312.26   1-0.11998 0.43381-0.97468 0.77010 0.18866 0.46769
  -3   1  -9 1208.10  226.75   1-0.94022 0.62652-0.32872 0.53396-0.08898-0.56775
  -3   1  -9 1129.30  266.06   1-0.64922 0.33543 0.75268-0.54801 0.10943-0.76626
   3  -1  1038378.51 1915.17   1-0.08911 0.40490-0.97301 0.75454 0.21285 0.51643
  -3   1 -1029941.30 1708.59   1-0.91085 0.59538-0.36987 0.58912-0.18314-0.54630
  -3   1 -1032517.58 2808.24   1-0.66688 0.35114 0.74378-0.52522 0.04532-0.77513
   3  -1  1112085.90  699.62   1-0.05506 0.37268-0.96948 0.73736 0.23890 0.56337
  -3   1 -11 9806.12  682.67   1-0.68101 0.36333 0.73208-0.49964-0.01643-0.78635
  -3   0  1169651.02 2603.59   1 0.47672-0.73344 0.51980-0.67326 0.70889 0.09366
  -3   0  1172283.66 2687.10   1 0.66628-0.92269-0.46829 0.31491 0.58031 0.22239
  -3   0  1021919.49 1274.80   1 0.49322-0.75189 0.51901-0.65853 0.69810 0.03149
  -3   0  1021957.05 1249.73   1 0.66952-0.92792-0.47625 0.33681 0.57002 0.15971
  -3   0   958949.54 1849.24   1-0.19229-0.06836-0.97265 0.84767 0.13027 0.52609
  -3   0   962567.42 2069.84   1 0.67063-0.93103-0.47904 0.35355 0.56635 0.09040
  -3   0   833139.56  568.04   1-0.28714 0.02458-0.95659 0.84538 0.04975 0.53358
   3   0  -833302.02  747.39   1-0.50718 0.77010-0.51756 0.62915-0.68912 0.10537
  -3   0   836276.51  783.83   1 0.66907-0.93147-0.47515 0.36360 0.57145 0.01233
  -3   0   784808.60 1866.19   1 0.70875-0.97341-0.28127 0.18398 0.64695-0.13640
  -3   0   791603.97 2014.58   1-0.39246 0.12794-0.91864 0.82133-0.04548 0.55590
  -3   0   791734.76 2107.60   1 0.66364-0.92802-0.46195 0.36434 0.58836-0.07755
  -3   0   637672.28  701.27   1 0.66667-0.93325-0.37888 0.29549 0.64186-0.20425
  -3   0   638019.41  718.14   1-0.51589 0.24951-0.84035 0.75702-0.16631 0.60386
  -3   0   639319.21  886.90   1 0.48574-0.75225 0.51940-0.60310 0.70304-0.26527
  -3   0   639711.19  849.41   1 0.65128-0.91781-0.43510 0.35166 0.62170-0.18426
   3   0  -536573.60 1248.51   1 0.65814-0.38974 0.67842-0.60877 0.32648-0.69101
  -3   0   532115.92 1098.06   1 0.58558-0.85408-0.52296 0.45351 0.61934-0.25467
  -3   0   536221.90 1336.87   1 0.45521-0.72367 0.52051-0.59027 0.72238-0.35758
  -3   0   533477.23 1174.48   1-0.69365 0.42508 0.71508-0.78452-0.08657 0.45147
  -3   0   537770.20 1331.95   1 0.62759-0.89606-0.38539 0.31586 0.67645-0.31192
   3   0  -469298.97 1063.30   1 0.77877-0.50861 0.36020-0.30454 0.51358-0.80533
  -3   0   466112.97 2227.36   1 0.45008-0.72048-0.69448 0.63892 0.56135-0.26959
  -3   0   469815.42 1133.07   1 0.58035-0.85076-0.29850 0.24288 0.75768-0.46606
   3   0  -3 4387.24  187.60   1 0.75956-0.48732-0.11773 0.15951 0.63968-0.85852
  -3   0   3 4736.06  202.00   1 0.27501-0.54736-0.84167 0.79995 0.46470-0.24589
  -3   0   3 3583.92  426.76   1-0.62741 0.35488-0.50323 0.46138-0.59422 0.81313
  -3   0   3 4224.75  250.30   1 0.32781-0.60019 0.51819-0.56005 0.78994-0.57106
  -3   0   3 4594.84  212.30   1 0.48668-0.75901-0.15218 0.11047 0.86021-0.64163
   3   0  -3 4468.91  201.34   1 0.69274-0.42038-0.54236 0.58419 0.47533-0.69425
   3   0  -2296772.2 2803.08   1 0.55842-0.28417-0.56291 0.59069 0.60932-0.75519
  -3   0   2294242.1 2793.82   1 0.10547-0.37979-0.92878 0.90104 0.35530-0.20943
  -3   0   2307590.7 3004.12   1 0.21467-0.48899 0.50782-0.53569 0.83428-0.68841
  -3   0   2305741.5 2909.90   1 0.31817-0.59241 0.06803-0.09586 0.94558-0.79990
   3   0  -2294458.1 2793.05   1 0.59866-0.32437-0.33072 0.35853 0.72953-0.87534
   3   0  -130429.41  667.02   1 0.31844-0.04223-0.81119 0.82509 0.49047-0.56340
  -3   0   130048.73  666.28   1-0.03194-0.24433-0.96604 0.95218 0.25638-0.18344
   3   0  -128422.00  646.40   1 0.33026-0.05396 0.51833-0.50438 0.78882-0.86178
  -3   0   129500.84  640.42   1 0.08462-0.36088 0.32029-0.33426 0.94352-0.87065
   3   0  -129851.49  644.15   1 0.39178-0.11556-0.02326 0.03718 0.91976-0.99260
   3   0   0364666.0 3476.11   1 0.13911 0.13911-0.91520 0.91520 0.37821-0.37821
  -3   0   0368824.2 3533.09   1-0.13914-0.13914-0.97496 0.97496 0.17344-0.17344
   3   0   0352553.2 3375.43   1 0.13913 0.13913 0.49699-0.49699 0.85652-0.85652
  -3   0   0363330.5 3445.25   1-0.13909-0.13909 0.51937-0.51937 0.84315-0.84315
   3   0   0363203.9 3436.05   1 0.13909 0.13909 0.26579-0.26579 0.95394-0.95394
   3   0   1187473.3 1841.74   1-0.05898 0.33912 0.45275-0.46671 0.88968-0.81680
  -3   0  -2   67.00  148.04   1-0.29591 0.01377-0.95428 0.98208 0.04207-0.18791
  -3   0  -2  708.24  143.59   1-0.56270 0.28037 0.24992-0.22202 0.78797-0.93386
   3   0   2  503.07  153.72   1-0.23796 0.52028 0.39931-0.42720 0.88539-0.73945
  -3   0  -2  409.44  157.64   1-0.41183 0.12966 0.70144-0.67363 0.58169-0.72760
   3   0   2  327.33   58.45   1-0.18438 0.46652 0.55468-0.58256 0.81137-0.66556
  -3   0  -3136578.4 1428.28   1-0.72688 0.44266 0.13932-0.09750 0.67247-0.89136
   3   0   3126227.5 1321.92   1-0.38170 0.66596 0.34220-0.38396 0.85860-0.63958
  -3   0  -3133090.7 1429.88   1-0.48618 0.20213 0.73467-0.69296 0.47315-0.69205
   3   0   4117825.7 1930.65   1-0.10014 0.38625-0.97378 0.91823 0.20426 0.08745
  -3   0  -4117299.5 1845.80   1-0.84109 0.55493 0.03465 0.02106 0.53978-0.83162
   3   0   4108003.3 1700.90   1-0.48551 0.77180 0.29217-0.34799 0.82395-0.53218
  -3   0  -4119314.5 2024.86   1-0.53912 0.25312 0.75156-0.69593 0.38013-0.67200
   3   0   534359.73 1456.24   1-0.10516 0.39323-0.97406 0.90463 0.20033 0.16431
  -3   0  -534051.43 1373.56   1-0.91187 0.62372-0.05732 0.12697 0.40644-0.77125
  -3   0  -535238.62 1574.90   1-0.57867 0.29066 0.75894-0.68946 0.29855-0.66343
   3   0   676937.64 1557.38   1-0.10046 0.39049-0.97380 0.89048 0.20400 0.23356
  -3   0  -673248.38 1399.80   1-0.95032 0.66050-0.13579 0.21940 0.28008-0.71804
  -3   0  -680677.14 1668.04   1-0.60932 0.31937 0.76021-0.67684 0.22537-0.66323
   3   0   718528.96 1164.37   1-0.08847 0.38045-0.97296 0.87575 0.21335 0.29715
  -3   0  -716513.85 1007.00   1-0.96552 0.67379-0.20158 0.29912 0.16471-0.67566
  -3   0  -716947.18 1305.13   1-0.63367 0.34179 0.75725-0.65999 0.15818-0.66902
   3   0   825173.07 1316.91   1-0.07074 0.36468-0.97131 0.86022 0.22703 0.35639
  -3   0  -823807.62 1212.65   1-0.96454 0.67072-0.25702 0.36862 0.05984-0.64361
  -3   0  -824434.70 1764.88   1-0.65337 0.35945 0.75101-0.63991 0.09533-0.67918
   3   0   937066.30 1376.70   1-0.04805 0.34383-0.96852 0.84373 0.24422 0.41218
  -3   0  -934173.93 1211.13   1-0.95186 0.65610-0.30434 0.42989-0.03648-0.62025
  -3   0  -934681.20 1968.30   1-0.66925 0.37339 0.74216-0.61718 0.03574-0.69256
   3   0  1050090.30 1820.13   1-0.02160 0.31933-0.96424 0.82558 0.26412 0.46522
  -3   0 -1046202.60 1674.84   1-0.93018 0.63265-0.34501 0.48459-0.12536-0.60407
   3   0  11 1490.97  381.33   1 0.00841 0.29126-0.95809 0.80557 0.28631 0.51596
  -3   0 -11 1336.37  213.00   1-0.90112 0.60167-0.38028 0.53382-0.20823-0.59415
  -3   0 -11 1746.35  521.23   1-0.69212 0.39236 0.71766-0.56491-0.07689-0.72589
  -3  -1  1131178.69  987.30   1 0.41559-0.65432 0.52095-0.75406 0.74557 0.05698
  -3  -1  1016125.99  980.54   1 0.43181-0.67250 0.52091-0.74006 0.73633-0.00673
  -3  -1  1016553.41  994.55   1 0.68624-0.92670-0.52168 0.30256 0.50686 0.22286
  -3  -1   9 5614.39  383.74   1-0.36551 0.12289-0.93058 0.72590-0.02045 0.67672
  -3  -1   9 5440.02  478.29   1 0.44101-0.68366 0.52080-0.72600 0.73093-0.07429
  -3  -1   9 6400.42  509.50   1 0.68906-0.93151-0.53035 0.32517 0.49387 0.16288
  -3  -1   8161057.0 4944.88   1 0.44205-0.68665 0.52078-0.71203 0.73032-0.14663
  -3  -1   8183221.0 5595.20   1 0.69017-0.93461-0.53388 0.34264 0.48850 0.09528
  -3  -1   7 6521.55  417.04   1 0.74424-0.99099-0.17558-0.00133 0.64441-0.13386
  -3  -1   7 8112.35  522.47   1-0.54834 0.30193-0.81183 0.63499-0.20059 0.71107
  -3  -1   7 8900.70  636.88   1 0.43311-0.67967 0.52089-0.69819 0.73558-0.22485
  -3  -1   7 9053.69  631.37   1 0.68903-0.93547-0.53027 0.35298 0.49399 0.01681
   3   1  -6189855.7 3317.69   1 0.64260-0.39406 0.70191-0.53873 0.30719-0.74463
  -3  -1   6169257.3 2966.67   1 0.72684-0.97551-0.23112 0.06810 0.64674-0.20913
  -3  -1   6182361.2 3274.06   1 0.41146-0.65998 0.52093-0.68428 0.74787-0.31011
  -3  -1   6173653.4 3086.73   1-0.59277 0.34394 0.76009-0.92316 0.26619 0.17165
  -3  -1   6186478.0 3310.32   1 0.68420-0.93264-0.51564 0.35230 0.51572-0.07788
   3   1  -553424.65 1217.26   1 0.72918-0.47897 0.53875-0.38960 0.42193-0.78663
  -3  -1   551186.30 1074.66   1 0.69411-0.94469-0.31779 0.16867 0.64592-0.28124
  -3  -1   555177.19 1219.00   1 0.37309-0.62357 0.52023-0.66963 0.76821-0.40341
  -3  -1   554682.39 1155.51   1-0.62667 0.37590 0.75855-0.90772 0.17853 0.18634
  -3  -1   554311.41 1152.02   1 0.67172-0.92215-0.48180 0.33240 0.56271-0.19784
   3   1  -4244321.4 3669.68   1 0.78616-0.53395 0.30766-0.17242 0.53599-0.82774
  -3  -1   4226973.2 3408.25   1 0.63684-0.88934-0.43700 0.30184 0.63517-0.34343
  -3  -1   4244261.8 3735.96   1 0.31240-0.56484 0.51721-0.65266 0.79679-0.50495
  -3  -1   4226468.3 3416.13   1-0.66369 0.41109 0.74577-0.88100 0.05777 0.23414
  -3  -1   4240885.1 3618.38   1 0.63968-0.89217-0.41006 0.27478 0.65011-0.35849
   3   1  -320275.37  705.96   1 0.78286-0.52857 0.00600 0.11541 0.62216-0.84100
  -3  -1   319128.25  668.75   1 0.54611-0.80053-0.57997 0.45869 0.60447-0.38567
  -3  -1   319791.97  698.73   1-0.56308 0.30850-0.51260 0.39107-0.64820 0.86711
  -3  -1   319760.76  728.16   1 0.22222-0.47659 0.50873-0.63020 0.83174-0.61294
  -3  -1   320437.78  705.90   1 0.55281-0.80722-0.25308 0.13174 0.79394-0.57535
   3   1  -2736423.024598.68   1 0.69350-0.43717-0.31924 0.42666 0.64586-0.79173
  -3  -1   2691527.9 6466.12   1 0.42198-0.67835-0.72283 0.61545 0.54720-0.40132
  -3  -1   2730762.824429.39   1 0.09569-0.35204 0.48941-0.59694 0.86678-0.72091
  -3  -1   2730108.024377.17   1 0.31606-0.57238 0.07055-0.17800 0.94611-0.80042
   3   1  -2721284.5 6694.03   1 0.69183-0.43543-0.53931 0.64688 0.48010-0.62605
   3   1  -111929.16  437.62   1 0.53949-0.28123-0.58888 0.68238 0.60179-0.67472
  -3  -1   111544.96  430.09   1 0.27921-0.53753-0.83888 0.74537 0.46724-0.39430
  -3  -1   111453.65  469.01   1-0.06908-0.18929 0.45203-0.54564 0.88932-0.81635
  -3  -1   111700.80  409.03   1-0.07831-0.18002 0.46932-0.56292 0.87954-0.80666
   3   1  -111945.94  413.23   1 0.43988-0.18159-0.08689 0.18043 0.89383-0.96667
   3   1   0145443.4 1403.58   1 0.02764 0.23263 0.37482-0.29519 0.92668-0.92668
   3   1   1142642.1 1465.33   1 0.24197 0.02021-0.86252 0.92822 0.44441-0.37147
  -3  -1  -1135706.6 1391.34   1 0.01044-0.27268-0.95763 0.89191 0.28780-0.36073
  -3  -1  -1141987.9 1465.99   1-0.45849 0.19615 0.30624-0.37200 0.83426-0.90726
   3   1   1133821.6 1370.35   1-0.20084 0.46321 0.41219-0.34647 0.88868-0.81571
  -3  -1  -1140428.9 1400.06   1-0.47066 0.20841 0.72853-0.79429 0.49769-0.57066
   3   1   1135920.8 1344.57   1-0.21416 0.47641 0.57691-0.51121 0.78822-0.71532
  -3  -1  -286952.69 1830.57   1-0.09950-0.16475-0.97374 0.92191 0.20476-0.35062
  -3  -1  -291186.37 1909.61   1-0.63078 0.36642 0.20805-0.25982 0.74754-0.89343
   3   1   285057.34 1777.17   1-0.36716 0.63148 0.34856-0.29673 0.86237-0.71636
  -3  -1  -286466.27 1836.13   1-0.53704 0.27284 0.75103-0.80288 0.38409-0.53003
   3   1   282253.90 1705.40   1-0.32744 0.59170 0.65368-0.60185 0.68225-0.53634
   3   1   3158872.2 1679.70   1 0.08125 0.18489-0.93745 0.97544 0.33848-0.11967
   3   1   3139649.6 1446.71   1-0.38167 0.64788 0.68544-0.64751 0.62006-0.40120
   3   1   410465.65  517.31   1 0.04157 0.22651-0.94970 0.97382 0.31036-0.01862
  -3  -1  -410361.74  458.73   1-0.85659 0.58836 0.01722-0.04117 0.51569-0.80754
   3   1   5 8239.90  498.67   1 0.01983 0.25021-0.95540 0.96565 0.29464 0.07002
  -3  -1  -5 8621.75  397.65   1-0.91552 0.64530-0.06330 0.05328 0.39725-0.76206
  -3  -1  -510923.94 1056.99   1-0.63175 0.36168 0.75765-0.76787 0.16384-0.52872
   3   1   686735.51 1698.32   1 0.01129 0.26069-0.95743 0.95382 0.28842 0.14918
  -3  -1  -687934.22 1655.58   1-0.94933 0.67746-0.13302 0.13695 0.28473-0.72269
  -3  -1  -690078.38 1750.03   1-0.65005 0.37796 0.75236-0.74873 0.10666-0.54455
   3   1   740975.41 1116.50   1 0.01273 0.26121-0.95710 0.93962 0.28947 0.22107
  -3  -1  -741093.81 1054.80   1-0.96444 0.69066-0.19266 0.21052 0.18090-0.69185
  -3  -1  -738771.40 1295.42   1-0.66493 0.39089 0.74502-0.72750 0.05299-0.56386
   3   1   848846.71 1048.18   1 0.02190 0.25399-0.95488 0.92354 0.29615 0.28732
  -3  -1  -849525.76  965.05   1-0.96602 0.69014-0.24398 0.27589 0.08524-0.66901
  -3  -1  -846837.07 1460.43   1-0.67716 0.40117 0.73583-0.70442 0.00167-0.58552
   3   1   929972.91 1120.55   1 0.03729 0.24054-0.95088 0.90567 0.30728 0.34912
  -3  -1  -929102.36 1079.42   1-0.95740 0.67959-0.28870 0.33456-0.00388-0.65285
  -3  -1  -931622.84 1278.43   1-0.68715 0.40922 0.72491-0.67962-0.04802-0.60880
   3   1  10 -229.45  292.54   1 0.05786 0.22192-0.94497 0.88589 0.32199 0.40735
  -3  -1 -10 1236.27  448.74   1-0.94068 0.66093-0.32790 0.38770-0.08717-0.64253
   3   1  1130456.27 1263.87   1 0.08289 0.19884-0.93689 0.86395 0.33963 0.46264
  -3  -1 -1123458.95 2141.09   1-0.91718 0.63566-0.36244 0.43633-0.16556-0.63682
  -3  -2  11 7596.36  538.02   1 0.33479-0.55554 0.51859-0.83133 0.78675 0.01581
  -3  -2  11 8415.27  578.45   1 0.69361-0.91413-0.54532 0.23258 0.47065 0.33205
  -3  -2  10 4716.96  441.66   1-0.38073 0.15805-0.92403 0.62590-0.03453 0.76371
  -3  -2  10 5327.49  531.15   1 0.35011-0.57282 0.51935-0.81815 0.77953-0.04993
  -3  -2  10 4521.21  457.01   1 0.69832-0.92083-0.56258 0.26378 0.44254 0.28719
  -3  -2   9  668.03  235.28   1-0.46117 0.23668-0.88034 0.59610-0.11089 0.76723
  -3  -2   9   92.06  233.38   1 0.35713-0.58179 0.51966-0.80450 0.77614-0.11950
  -3  -2   9  491.11  231.48   1 0.70171-0.92622-0.57677 0.29191 0.41823 0.23852
  -3  -2   8153260.0 4669.62   1-0.53948 0.31303-0.82001 0.54965-0.19111 0.77452
  -3  -2   8157044.9 4819.48   1 0.35445-0.58108 0.51955-0.79044 0.77744-0.19376
  -3  -2   8169556.7 5174.80   1 0.70395-0.93045-0.58743 0.31651 0.39921 0.18457
  -3  -2   733180.58  855.48   1 0.33997-0.56855 0.51886-0.77580 0.78434-0.27362
  -3  -2   736670.56  901.89   1 0.70511-0.93360-0.59355 0.33658 0.38795 0.12285
   3   2  -680221.73 1612.33   1 0.68716-0.45657 0.62859-0.38581 0.36424-0.80167
  -3  -2   689494.39 1714.23   1 0.31056-0.54110 0.51709-0.76008 0.79760-0.35983
  -3  -2   676351.39 1408.20   1-0.46645 0.23575 0.72679-0.96954 0.50416-0.06635
  -3  -2   692285.35 1717.89   1 0.70500-0.93549-0.59297 0.34995 0.38902 0.04881
   3   2  -5155978.2 3112.32   1 0.74812-0.51588 0.48517-0.25644 0.45267-0.81737
  -3  -2   5134759.7 2700.12   1 0.72671-0.95938-0.23151 0.00276 0.64675-0.28207
  -3  -2   5161999.5 3272.80   1 0.26192-0.49442 0.51303-0.74207 0.81742-0.45262
  -3  -2   5146335.9 2930.56   1-0.48121 0.24856 0.73276-0.96161 0.48112-0.11628
  -3  -2   5157838.4 3154.93   1 0.70254-0.93502-0.58057 0.35149 0.41153-0.04666
   3   2  -421166.06 1114.28   1 0.78649-0.55224 0.30499-0.09014 0.53703-0.82879
  -3  -2   418969.10  702.25   1 0.69513-0.92972-0.31535 0.10050 0.64602-0.35428
  -3  -2   417495.42  633.44   1-0.65151 0.41681-0.49856 0.28340-0.57181 0.86368
  -3  -2   419997.38  765.46   1 0.18850-0.42293 0.50441-0.71946 0.84263-0.55090
  -3  -2   419390.69  695.36   1-0.48941 0.25481 0.73589-0.95083 0.46789-0.17602
  -3  -2   419212.34  691.49   1 0.69252-0.92699-0.54162 0.32648 0.47649-0.18460
   3   2  -3454783.0 4331.03   1 0.79128-0.55494 0.08711 0.11392 0.60520-0.82404
  -3  -2   3422694.9 4033.13   1 0.64417-0.88067-0.42335 0.22247 0.63703-0.41823
  -3  -2   3447215.1 4295.48   1 0.08473-0.32114 0.48735-0.68847 0.86908-0.65028
  -3  -2   3434194.8 4061.76   1-0.47963 0.24307 0.73214-0.93318 0.48364-0.26473
  -3  -2   3446475.8 4170.44   1 0.64349-0.88000-0.41811 0.21710 0.64116-0.42244
   3   2  -216386.07  593.72   1 0.75069-0.51242-0.15261 0.33972 0.64278-0.78867
  -3  -2   214797.96  538.33   1 0.56831-0.80674-0.54875 0.36176 0.61308-0.46722
   3   2  -215015.25  556.78   1 0.31736-0.07899 0.51754-0.33036 0.79462-0.94054
   3   2  -1562589.3 5305.24   1 0.66449-0.42415-0.38341 0.55656 0.64143-0.71437
  -3  -2   1522667.9 4936.46   1 0.46656-0.70696-0.67686 0.50375 0.56936-0.49642
  -3  -2   1555233.2 5263.27   1-0.21742-0.02299 0.40653-0.57981 0.88738-0.81442
   3   2  -1530377.1 5013.49   1 0.10256 0.13780 0.49068-0.31743 0.86528-0.93821
  -3  -2   0172936.1 1754.73   1-0.39470 0.15230 0.33639-0.49574 0.85501-0.85501
  -3  -2   0159860.8 1539.68   1-0.66378 0.42132 0.74571-0.90509 0.05740-0.05740
   3   2   0169698.2 1605.81   1-0.19751 0.43987 0.56458-0.40530 0.80139-0.80139
  -3  -2  -1302478.4 2924.48   1 0.21725-0.46155-0.87685 0.73155 0.42886-0.50180
  -3  -2  -1330730.4 3208.81   1-0.56103 0.31662 0.25089-0.39629 0.78885-0.86180
  -3  -2  -1311832.1 2991.20   1-0.65273 0.40832 0.75128-0.89677 0.09752-0.17050
   3   2   1299400.1 2842.75   1-0.41440 0.65878 0.70275-0.55735 0.57828-0.50532
  -3  -2  -2166887.6 1692.20   1 0.09201-0.33826-0.93371 0.80227 0.34598-0.49185
   3   2   2167303.7 1702.98   1-0.45704 0.70341 0.30696-0.17546 0.83479-0.68877
  -3  -2  -2170533.9 1738.76   1-0.65514 0.40878 0.75022-0.88182 0.08914-0.23510
   3   2   2160952.1 1614.73   1-0.47750 0.72381 0.73130-0.59979 0.48701-0.34107
   3   2   3118058.4 3992.46   1-0.56351 0.81188 0.24945-0.13197 0.78754-0.56870
  -3  -2  -3124990.4 1373.29   1-0.66138 0.41307 0.74708-0.86480 0.06649-0.28544
   3   2   3116678.9 2419.59   1-0.49957 0.74783 0.73957-0.62196 0.45106-0.23215
   3   2   4472654.018186.60   1 0.19813 0.05195-0.88722 0.99081 0.41662-0.12487
  -3  -2  -4472474.0 7079.44   1-0.87611 0.62581-0.00648-0.09712 0.48205-0.77390
   3   2   5 4274.13  322.33   1 0.16069 0.09133-0.90575 0.99544 0.39214-0.02745
  -3  -2  -5 3764.94  265.82   1-0.92320 0.67091-0.07655-0.01311 0.37660-0.74141
  -3  -2  -5 5279.03  550.73   1-0.67637 0.42416 0.73653-0.82648 0.00524-0.37014
   3   2   6171957.0 3507.79   1 0.13840 0.11565-0.91551 0.99148 0.37773 0.05987
  -3  -2  -6173031.4 3500.38   1-0.95112 0.69720-0.13809 0.06233 0.27619-0.71415
  -3  -2  -6175071.1 3593.98   1-0.68358 0.42942 0.72928-0.80534-0.02920-0.40867
   3   2   727985.99 1687.97   1 0.12820 0.12780-0.91980 0.98191 0.37084 0.13970
  -3  -2  -731399.06 1711.60   1-0.96429 0.70846-0.19163 0.12980 0.18275-0.69370
  -3  -2  -730704.23 1717.33   1-0.69017 0.43406 0.72070-0.78287-0.06512-0.44574
   3   2   866661.95 1226.62   1 0.12758 0.13037-0.92006 0.96830 0.37041 0.21305
  -3  -2  -867183.25 1218.95   1-0.96640 0.70846-0.23854 0.19076 0.09570-0.67947
  -3  -2  -864808.97 1246.31   1-0.69595 0.43789 0.71078-0.75906-0.10212-0.48172
   3   2   9 4200.57  463.21   1 0.13471 0.12519-0.91708 0.95145 0.37524 0.28116
  -3  -2  -9 3601.82  357.07   1-0.95985 0.69998-0.28016 0.24632 0.01359-0.67033
   3   2  1047866.26 1373.18   1 0.14829 0.11338-0.91139 0.93154 0.38388 0.34548
  -3  -2 -1049180.61 1412.79   1-0.94618 0.68437-0.31723 0.29734-0.06396-0.66574
   3   2  1110607.40  766.66   1 0.16733 0.09627-0.90263 0.90888 0.39653 0.40577
  -3  -2 -1110010.79 1003.67   1-0.92642 0.66284-0.35040 0.34463-0.13765-0.66473
   3   2  12  491.99  261.80   1 0.19119 0.07435-0.89083 0.88317 0.41214 0.46311
  -3  -2 -12  782.22  253.68   1-0.90114 0.63563-0.38026 0.38844-0.20819-0.66713
   3   2  12 1376.50  596.80   1 0.70949-0.44303-0.65637 0.64828 0.25649 0.61923
  -3  -3  10  264.78  177.37   1-0.44426 0.23957-0.89084 0.51313-0.09500 0.82419
  -3  -3  10  513.33  243.43   1 0.24255-0.44714 0.51104-0.88937 0.82461-0.09528
  -3  -3  10  852.98  329.42   1 0.70591-0.91048-0.59814 0.21966 0.37934 0.35038
  -3  -3   9 4044.24  582.18   1-0.51621 0.30971-0.84009 0.47621-0.16664 0.82297
  -3  -3   9 4794.00  690.13   1 0.24627-0.45284 0.51144-0.87583 0.82326-0.16686
  -3  -3   9 4735.45  691.22   1 0.70809-0.91465-0.61792 0.25324 0.34172 0.31507
  -3  -3   8 3578.91  346.50   1-0.58421 0.37574-0.77532 0.42533-0.23994 0.82334
  -3  -3   8 4696.59  411.21   1 0.23835-0.44690 0.51059-0.86104 0.82612-0.24265
  -3  -3   8 3443.13  287.65   1 0.70942-0.91798-0.63451 0.28379 0.30675 0.27705
   3   3  -711631.16  638.43   1 0.64887-0.43814 0.69267-0.35636 0.31490-0.82525
  -3  -3   711928.91  631.70   1 0.21642-0.42695 0.50803-0.84455 0.83370-0.32316
  -3  -3   713436.53  704.43   1 0.70971-0.92027-0.64873 0.31196 0.27467 0.23616
   3   3  -617027.92 1396.97   1 0.70569-0.49305 0.59161-0.26923 0.38985-0.82729
  -3  -3   618256.75 1106.66   1 0.17721-0.38972 0.50283-0.82541 0.84602-0.40842
  -3  -3   616008.53  941.66   1-0.29856 0.08577 0.63536-0.95777 0.71216-0.27442
   3   3  -5173416.5 3103.63   1 0.75359-0.53933 0.46735-0.15905 0.46223-0.82693
  -3  -3   5179244.0 3188.52   1 0.11664-0.33113 0.49319-0.80184 0.86206-0.49739
  -3  -3   5168771.1 2950.85   1-0.27146 0.05672 0.61735-0.92586 0.73836-0.37357
   3   3  -4 4325.66  412.98   1 0.78443-0.56815 0.32089-0.02645 0.53074-0.82249
  -3  -3   4 3327.90  380.53   1-0.62419 0.40744-0.50380 0.20897-0.59712 0.88899
  -3  -3   4 3780.97  242.32   1 0.03050-0.24697 0.47625-0.77096 0.87878-0.58704
  -3  -3   4 4168.16  208.24   1-0.20069-0.01585 0.56695-0.86162 0.79892-0.50729
   3   3  -3348654.7 5251.34   1 0.79439-0.57610 0.15124 0.12928 0.58826-0.80708
  -3  -3   3297580.1 4488.41   1 0.68414-0.90273-0.34098 0.06041 0.64473-0.42593
  -3  -3   3341581.8 5133.37   1-0.08361-0.13487 0.44807-0.72892 0.89007-0.67117
   3   3  -3321086.2 4804.17   1 0.45452-0.23609 0.52053-0.23975 0.72280-0.94168
  -3  -3   3333249.5 4927.79   1-0.00576-0.21285 0.40559-0.68637 0.91403-0.69540
   3   3  -237646.69  854.70   1 0.77681-0.55649-0.03342 0.30016 0.62884-0.77473
  -3  -3   233126.92  747.33   1 0.63422-0.85472-0.44181 0.17521 0.63447-0.48861
  -3  -3   237021.91  847.35   1-0.22288 0.00241 0.40463-0.67153 0.88689-0.74096
   3   3  -234439.13  774.16   1 0.24581-0.02539 0.51139-0.24455 0.82343-0.96930
  -3  -3   147644.50 1035.88   1 0.56413-0.78655-0.55480 0.30209 0.61151-0.53857
  -3  -3   152617.99 1145.10   1-0.37647 0.15400 0.34451-0.59744 0.85998-0.78698
   3   3  -149220.54 1061.32   1 0.01747 0.20492 0.47336-0.22045 0.88069-0.95362
   3   3   088715.21 1856.72   1 0.65915-0.43481-0.39428 0.63315 0.64035-0.64035
  -3  -3   082551.66 1727.45   1 0.47320-0.69763-0.66954 0.43072 0.57252-0.57252
   3   3   084863.45 1773.83   1-0.19980 0.42426 0.41254-0.17353 0.88875-0.88875
   3   3   087400.88 1775.79   1-0.56693 0.79145 0.75734-0.51824 0.32406-0.32406
   3   3   087825.46 1778.21   1 0.60621-0.38180-0.34449 0.58343 0.71681-0.71682
  -3  -3  -1175958.6 1802.39   1-0.65920 0.43276 0.18906-0.41412 0.72781-0.80075
   3   3   1172106.8 1703.78   1-0.59962 0.82608 0.76032-0.53512 0.24970-0.17672
   3   3   1173994.5 1696.77   1 0.70553-0.47904-0.59592 0.82101 0.38353-0.31056
   3   3   2110466.7 2309.51   1 0.48948-0.26118-0.65105 0.86210 0.58011-0.43423
  -3  -3  -2112055.0 2337.90   1-0.76455 0.53615 0.10834-0.31949 0.63538-0.78131
   3   3   2104819.0 2223.49   1-0.60151 0.82990 0.76034-0.54903 0.24505-0.09910
   3   3   3 3735.39  309.72   1 0.41354-0.18332-0.73096 0.92811 0.54283-0.32401
  -3  -3  -3 3926.78  291.60   1-0.84257 0.61218 0.03303-0.23023 0.53756-0.75645
   3   3   3 3460.62  313.26   1-0.59524 0.82555 0.76020-0.56279 0.26032-0.04139
   3   3   4391506.1 5917.70   1 0.35167-0.11951-0.78543 0.96869 0.50933-0.21758
  -3  -3  -4364254.7 5506.28   1-0.89716 0.66479-0.03494-0.14832 0.44030-0.73215
   3   3   5140585.9 2265.96   1 0.30467-0.07053-0.82124 0.99053 0.48241-0.11772
   3   3   663305.52 1317.48   1 0.27201-0.03593-0.84365 0.99903 0.46288-0.02525
  -3  -3  -655032.87 1155.47   1-0.95474 0.71877-0.14923-0.00622 0.25726-0.69521
   3   3   7299572.0 6559.16   1 0.25165-0.01364-0.85661 0.99809 0.45041 0.06014
  -3  -3  -7284097.0 6231.13   1-0.96498 0.72709-0.19683 0.05531 0.17335-0.68430
   3   3   8 3996.35  375.54   1 0.24170-0.00177-0.86268 0.99025 0.44424 0.13925
  -3  -3  -8 4255.25  503.75   1-0.96636 0.72636-0.23923 0.11175 0.09439-0.67816
   3   3   9170921.6 5338.62   1 0.24051 0.00135-0.86339 0.97706 0.44350 0.21293
  -3  -3  -9172149.1 1752.96   1-0.96054 0.71861-0.27746 0.16393 0.01907-0.67581
   3   3  10 3358.97  543.67   1 0.24672-0.00292-0.85964 0.95940 0.44736 0.28201
  -3  -3 -10 3969.93  691.83   1-0.94860 0.70473-0.31202 0.21245-0.05279-0.67691
   3   3  10 3999.38  639.50   1 0.70961-0.46508-0.65327 0.75279 0.26394 0.46582
   3   3  1138993.85 1562.95   1 0.25929-0.01356-0.85184 0.93769 0.45512 0.34719
  -3  -3 -1128791.08 2382.42   1-0.93128 0.68563-0.34338 0.25794-0.12167-0.68071
   3   3  1132625.14 1411.97   1 0.70964-0.46311-0.64024 0.72580 0.29409 0.50865
   3   3  1212204.01 1350.60   1 0.27744-0.02978-0.84006 0.91201 0.46617 0.40908
  -3  -3 -12 8194.90 1447.54   1-0.90898 0.66141-0.37196 0.30048-0.18813-0.68719
   3   3  1210907.53 1262.57   1 0.70882-0.46030-0.62550 0.69711 0.32603 0.54968
  -3  -4  1022076.11  991.10   1-0.48449 0.29795-0.86443 0.40705-0.13418 0.86344
  -3  -4   9  317.68  215.20   1-0.54862 0.36012-0.81157 0.36807-0.20089 0.85722
  -3  -4   9  332.15  143.16   1 0.10000-0.28860 0.49021-0.93425 0.86584-0.20944
  -3  -4   9  710.45  303.52   1 0.70967-0.89830-0.65111 0.20674 0.26909 0.38770
  -3  -4   820732.42  767.31   1-0.60860 0.41813-0.74692 0.31731-0.26775 0.85115
  -3  -4   822712.35  823.89   1 0.08585-0.27644 0.48757-0.91767 0.86885-0.28538
   3   4  -7 4063.12  418.42   1 0.66449-0.47171 0.66822-0.25231 0.33453-0.84488
  -3  -4   7 4281.01  327.02   1 0.05545-0.24801 0.48154-0.89771 0.87466-0.36413
   3   4  -685809.91 1453.92   1 0.71273-0.51804 0.57620-0.17422 0.39998-0.83742
  -3  -4   684949.64 1318.38   1 0.00595-0.20049 0.47073-0.87297 0.88225-0.44465
  -3  -4   676433.71 1156.64   1-0.11836-0.07632 0.50262-0.90480 0.85636-0.41892
   3   4  -5 4475.46  518.50   1 0.75339-0.55709 0.46805-0.08017 0.46187-0.82656
  -3  -4   5 2720.78  428.72   1-0.74968 0.55249-0.47099 0.08248-0.46490 0.82942
  -3  -4   5 4536.39  380.63   1-0.06548-0.13106 0.45299-0.84140 0.88910-0.52427
   3   4  -5 4661.83  356.38   1-0.68530 0.88217 0.72725-0.33906-0.03809-0.32680
  -3  -4   5 4088.92  283.52   1-0.05532-0.14149 0.44958-0.83792 0.89152-0.52713
   3   4  -4 1288.02  219.18   1 0.78136-0.58309 0.34486 0.02909 0.52012-0.81187
  -3  -4   4  929.69  138.45   1-0.60893 0.41013-0.50636 0.13185-0.61056 0.90244
  -3  -4   4  689.13  173.07   1-0.16006-0.03847 0.42548-0.79995 0.89069-0.59883
   3   4  -4 1160.69  123.13   1-0.66666 0.86547 0.74392-0.36962 0.04619-0.33811
  -3  -4   4 1025.66  104.08   1 0.05982-0.25858 0.34435-0.71872 0.93693-0.64542
   3   4  -373364.96 1634.62   1 0.79394-0.59361 0.20780 0.15233 0.57138-0.79019
  -3  -4   375354.25 1233.47   1-0.27540 0.07486 0.38573-0.74617 0.88054-0.66152
   3   4  -368945.82 1408.00   1 0.41905-0.21860 0.52096-0.16054 0.74363-0.96251
   3   4  -374392.40 1488.52   1-0.62820 0.82899 0.75830-0.39782 0.17414-0.39307
  -3  -4   371202.50 1090.73   1 0.26469-0.46538 0.13002-0.49037 0.95552-0.73685
   3   4  -296692.78 1568.05   1 0.78903-0.58666 0.05957 0.28679 0.61145-0.75734
  -3  -4   294942.47 1519.06   1-0.40414 0.20162 0.33211-0.67863 0.85227-0.70625
   3   4  -290670.96 1424.45   1 0.19235 0.01010 0.50493-0.15844 0.84144-0.98731
   3   4  -292710.34 1398.22   1-0.51226 0.71498 0.74384-0.39739 0.42927-0.57521
  -3  -4   292496.93 1389.36   1 0.55151-0.75412-0.25099-0.09531 0.79550-0.64978
   3   4  -1 8322.97  405.91   1 0.76514-0.56084-0.09342 0.42586 0.63704-0.70999
  -3  -4   1 8450.95  381.27   1-0.53321 0.32871 0.26667-0.59931 0.80285-0.72990
   3   4  -1 6629.09  283.81   1-0.04362 0.24814 0.45870-0.12608 0.88751-0.96048
   3   4  -1 7763.59  283.76   1-0.10403 0.30858 0.49084-0.15835 0.86501-0.93792
  -3  -4   1 7175.71  260.82   1 0.70180-0.90636-0.57718 0.24452 0.41751-0.34454
   3   4   036574.04  867.26   1 0.72296-0.51652-0.24244 0.56093 0.64695-0.64695
  -3  -4   035412.89  812.20   1-0.65031 0.44383 0.19510-0.51379 0.73417-0.73417
   3   4   033690.32  764.52   1-0.25683 0.46332 0.39265-0.07396 0.88309-0.88309
   3   4   035002.01  734.79   1 0.39888-0.19238-0.03244 0.35092 0.91642-0.91642
   3   4   135093.59  824.50   1 0.66719-0.45884-0.37780 0.68239 0.64195-0.56902
   3   4   135627.74  811.04   1-0.42653 0.63501 0.32170-0.01694 0.84532-0.77231
   3   4   133881.46  749.13   1-0.69030 0.89886 0.72051-0.41564-0.06587 0.13885
   3   4   136638.49  784.41   1 0.61206-0.40363-0.35539 0.66007 0.70644-0.63354
   3   4   277890.85 1312.86   1 0.60436-0.39409-0.49324 0.78389 0.62566-0.47979
  -3  -4  -274677.49 1260.15   1-0.82303 0.61258 0.05369-0.34451 0.56544-0.71137
   3   4   264417.88 2222.00   1-0.67416 0.88467 0.73842-0.44744 0.01504 0.13092
   3   4   273736.06 1186.50   1 0.67942-0.46888-0.50210 0.79293 0.53504-0.38910
   3   4   365735.57 2271.92   1 0.54184-0.32965-0.58574 0.86250 0.60274-0.38394
  -3  -4  -365345.15 2266.79   1-0.87861 0.66615-0.00968-0.26717 0.47742-0.69631
   3   4   357211.94 1979.88   1-0.65805 0.87052 0.74883-0.47174 0.07874 0.14019
   3   4   367062.52 2306.70   1 0.70024-0.48771-0.57038 0.84726 0.42933-0.21041
   3   4   430529.07 1123.02   1 0.48500-0.27074-0.65621 0.91909 0.57805-0.28629
  -3  -4  -427422.71 1040.64   1-0.91772 0.70327-0.06699-0.19594 0.39153-0.68338
   3   4   427430.65 1025.88   1 0.70633-0.49173-0.60443 0.86737 0.36844-0.07653
   3   4   547414.83 1097.51   1 0.43748-0.22128-0.70746 0.95644 0.55507-0.19038
  -3  -4  -541944.30 1924.52   1-0.94379 0.72767-0.11877-0.13030 0.30846-0.67343
   3   4   544660.57 1061.58   1 0.70843-0.49183-0.62119 0.87017 0.33502 0.02986
   3   4   615164.03  789.79   1 0.40046-0.18234-0.74321 0.97830 0.53596-0.09833
  -3  -4  -616630.54  844.92   1-0.95913 0.74109-0.16513-0.07001 0.22977-0.66773
   3   4   615999.28  850.41   1 0.70905-0.49045-0.62841 0.86344 0.31990 0.11796
   3   4   7213086.9 4305.42   1 0.37394-0.15388-0.76682 0.98802 0.52168-0.01111
  -3  -4  -7201417.8 4085.38   1-0.96601 0.74607-0.20701-0.01419 0.15476-0.66571
   3   4   7202801.6 4134.53   1 0.70914-0.48854-0.62969 0.85077 0.31716 0.19367
   3   4   8  572.71  266.02   1 0.35714-0.13515-0.78095 0.98826 0.51240 0.07110
  -3  -4  -8  649.02  378.79   1-0.96594 0.74388-0.24490 0.03773 0.08346-0.66723
   3   4   8  918.24  358.59   1 0.70893-0.48633-0.62687 0.83398 0.32317 0.26064
   3   4   9107936.3 3441.02   1 0.34908-0.12516-0.78752 0.98094 0.50788 0.14856
  -3  -4  -9101333.3 3269.16   1-0.95999 0.73600-0.27962 0.08640 0.01470-0.67143
   3   4   9110898.4 3573.12   1 0.70840-0.48381-0.62092 0.81408 0.33557 0.32122
   3   4  1040082.92 1170.71   1 0.34873-0.12288-0.78780 0.96734 0.50768 0.22170
  -3  -4 -1038219.39 1180.08   1-0.94886 0.72293-0.31144 0.13217-0.05155-0.67815
   3   4  11 4576.29  737.36   1 0.35520-0.12741-0.78255 0.94819 0.51131 0.29100
  -3  -4 -11 4226.73  849.22   1-0.93304 0.70532-0.34068 0.17558-0.11559-0.68679
   3   4  11 3141.34  549.72   1 0.70640-0.47793-0.60114 0.76647 0.37364 0.42905
   3   4  1247405.40 2505.51   1 0.36775-0.13803-0.77210 0.92385 0.51828 0.35698
  -3  -4 -1243517.37 2356.63   1-0.91278 0.68314-0.36767 0.21653-0.17789-0.69744
   3   4  1248113.19 2602.55   1 0.70412-0.47365-0.58829 0.73968 0.39764 0.47803
  -3  -5  10 8447.07  815.98   1-0.50868 0.34013-0.84617 0.30915-0.15884 0.88810
  -3  -5   938291.26 1499.09   1-0.56710 0.39658-0.79345 0.27032-0.22096 0.87729
   3   5  -873311.17 1939.10   1 0.62206-0.44914 0.73022-0.22078 0.28250-0.86575
   3   5  -7 3130.90  422.07   1 0.67084-0.49601 0.65766-0.16215 0.34269-0.85304
  -3  -5   7 3106.47  266.53   1-0.15005-0.02455 0.42861-0.92458 0.89093-0.38017
   3   5  -7 3567.11  285.00   1-0.68967 0.86472 0.72143-0.22578-0.06222-0.44863
   3   5  -629204.98 1592.96   1 0.71354-0.53679 0.57440-0.09281 0.40115-0.83858
  -3  -5   627395.36 1311.81   1-0.20654 0.02994 0.41026-0.89228 0.88826-0.45047
   3   5  -627842.38 1069.42   1-0.67245 0.84945 0.73979-0.25802 0.02238-0.46027
   3   5  -5122523.8 2824.95   1 0.74991-0.57159 0.47950-0.01204 0.45575-0.82045
  -3  -5   5127426.2 2566.08   1-0.28187 0.10326 0.38327-0.85122 0.87957-0.51453
   3   5  -5124968.7 2509.44   1-0.64440 0.82337 0.75439-0.28643 0.12503-0.48991
  -3  -5   5113413.0 2261.35   1 0.12054-0.29942 0.28466-0.75251 0.95101-0.58656
   3   5  -4 2846.12  403.93   1 0.77617-0.59588 0.37429 0.07924 0.50739-0.79915
  -3  -5   4 1483.98  246.15   1-0.60946 0.42862-0.50628 0.05209-0.61010 0.90197
  -3  -5   4 2541.35  246.99   1-0.37419 0.19359 0.34550-0.79954 0.86058-0.56855
   3   5  -4 2674.27  272.76   1-0.59625 0.77715 0.76024-0.30617 0.25790-0.54980
  -3  -5   4 2117.94  175.22   1 0.23237-0.41319 0.16635-0.62026 0.95829-0.66673
   3   5  -3104961.9 1962.37   1 0.79104-0.60868 0.25970 0.18003 0.55390-0.77271
  -3  -5   3103349.8 1865.00   1-0.47677 0.29419 0.29707-0.73718 0.82730-0.60828
   3   5  -394133.85 1678.78   1 0.40102-0.21855 0.52084-0.08078 0.75359-0.97247
   3   5  -3101554.9 1792.99   1-0.50593 0.68881 0.74176-0.30174 0.44024-0.65915
  -3  -5   3100231.6 1759.89   1 0.38343-0.56609-0.01256-0.42728 0.92348-0.70495
   3   5  -2  576.48  188.49   1 0.79407-0.60970 0.13688 0.28893 0.59220-0.73808
  -3  -5   2  511.34  171.95   1-0.58028 0.39573 0.23956-0.66584 0.77838-0.63249
   3   5  -2  747.73  106.34   1 0.15954 0.02494 0.50021-0.07406 0.85107-0.99694
   3   5  -2  492.31   73.61   1-0.32754 0.51232 0.65374-0.22765 0.68215-0.82806
  -3  -5   2  421.77   57.17   1 0.54356-0.72825-0.23826-0.18766 0.80483-0.65911
  -3  -5   1 5205.92  284.94   1-0.67581 0.48928 0.17748-0.58980 0.71538-0.64244
   3   5  -1 4988.30  258.59   1-0.08077 0.26732 0.44885-0.03656 0.88994-0.96291
   3   5  -1 5199.34  219.77   1-0.03155 0.21823 0.42873-0.01662 0.90287-0.97575
   3   5   010363.94  473.27   1 0.76002-0.57174-0.11582 0.51396 0.63949-0.63949
  -3  -5   010625.36  440.97   1-0.75728 0.56877 0.11454-0.51292 0.64296-0.64296
   3   5   010364.55  418.20   1-0.28896 0.47749 0.38055 0.01780 0.87845-0.87845
   3   5   010464.53  397.89   1 0.28199-0.09339 0.11016 0.28798 0.95306-0.95306
  -3  -5   010517.99  393.84   1 0.70153-0.89013-0.57594 0.17754 0.41968-0.41968
   3   5   117389.03  683.54   1 0.72518-0.53474-0.23599 0.62022 0.64684-0.57391
  -3  -5  -115803.35  638.93   1-0.82275 0.63224 0.05397-0.43841 0.56582-0.63879
   3   5   116408.52  603.00   1 0.49209-0.30154-0.16004 0.54426 0.85570-0.78284
  -3  -5  -115788.58  586.11   1 0.70969-0.90037-0.64997 0.26546 0.27177-0.34475
   3   5   242278.58 1499.53   1 0.68255-0.49019-0.34456 0.71488 0.64451-0.49864
  -3  -5  -240636.92 1445.23   1-0.87293 0.68038-0.00245-0.36800 0.48783-0.63375
   3   5   242830.29 1482.63   1 0.60050-0.40805-0.33406 0.70448 0.72649-0.58068
   3   5   397254.28 1600.14   1 0.63612-0.44185-0.43834 0.79470 0.63498-0.41618
  -3  -5  -397876.29 1617.54   1-0.91000 0.71547-0.05434-0.30218 0.41101-0.62990
   3   5   3100979.5 1622.27   1 0.65221-0.45782-0.43718 0.79370 0.61926-0.40054
   3   5   4 9651.36  514.75   1 0.59039-0.39420-0.51553 0.85800 0.62101-0.32927
  -3  -5  -4 8809.77  509.05   1-0.93633 0.74008-0.10194-0.24076 0.33597-0.62794
   3   5   410245.32  551.63   1 0.67784-0.48126-0.49779 0.84042 0.54104-0.24915
   3   5   519861.23  965.20   1 0.54869-0.35058-0.57645 0.90503 0.60550-0.24083
  -3  -5  -519372.08  985.35   1-0.95348 0.75531-0.14519-0.18357 0.26416-0.62912
   3   5   520238.15  994.52   1 0.68999-0.49142-0.53329 0.86197 0.48939-0.12453
   3   5   6 6693.40  492.26   1 0.51332-0.31329-0.62253 0.93723 0.59071-0.15311
  -3  -5  -6 6211.96  505.79   1-0.96322 0.76313-0.18479-0.13004 0.19505-0.63301
   3   5   6 5742.28  478.11   1 0.69597-0.49541-0.55370 0.86844 0.45719-0.01935
   3   5   7  878.01  208.98   1 0.48530-0.28314-0.65587 0.95669 0.57819-0.06762
  -3  -5  -7 1709.67  274.87   1-0.96673 0.76473-0.22119-0.07970 0.12844-0.63939
   3   5   7 1537.47  341.85   1 0.69879-0.49623-0.56445 0.86524 0.43940 0.07140
   3   5   826742.62 1355.53   1 0.46529-0.26120-0.67824 0.96517 0.56875 0.01475
   3   5   825838.18 1364.37   1 0.69981-0.49526-0.56859 0.85544 0.43238 0.15140
   3   5   9  -50.03  244.23   1 0.45296-0.24694-0.69145 0.96449 0.56276 0.09368
  -3  -5  -9  345.73  281.13   1-0.95827 0.75222-0.28582 0.01291 0.00203-0.65877
   3   5   9 1292.35  499.61   1 0.69965-0.49311-0.56793 0.84083 0.43351 0.22324
   3   5  1032918.88 1231.12   1 0.44786-0.23990-0.69680 0.95594 0.56025 0.16913
  -3  -5 -1031754.84 1313.50   1-0.94734 0.73935-0.31479 0.05582-0.05871-0.67099
   3   5  1033778.65 1327.10   1 0.69856-0.49002-0.56352 0.82248 0.44096 0.28877
   3   5  11 1095.44  245.16   1 0.44943-0.23954-0.69516 0.94042 0.56102 0.24129
  -3  -5 -11  907.43  265.94   1-0.93236 0.72258-0.34172 0.09696-0.11794-0.68444
  -3  -6   9 4720.24  646.31   1-0.57631 0.42379-0.78385 0.18110-0.23113 0.88746
   3   6  -810904.04  816.87   1 0.62675-0.47178 0.72400-0.13496 0.28807-0.87132
   3   6  -744747.41 1498.26   1 0.67130-0.51441 0.65689-0.08178 0.34328-0.85363
   3   6  -744764.25 1446.33   1-0.67233 0.82944 0.73989-0.16455 0.02292-0.53379
   3   6  -6 8145.61 1037.62   1 0.71031-0.55152 0.58160-0.02041 0.39647-0.83390
  -3  -6   6 7780.55  469.40   1-0.45839 0.29971 0.30629-0.86784 0.83429-0.39625
   3   6  -6 6233.25  771.22   1-0.64422 0.80332 0.75445-0.19289 0.12558-0.56344
   3   6  -560478.96 1968.76   1 0.74404-0.58369 0.49767 0.04935 0.44577-0.81046
  -3  -6   560537.37 1873.99   1-0.52312 0.36249 0.27221-0.82002 0.80760-0.44288
   3   6  -560989.03 1896.78   1-0.60066 0.76168 0.76033-0.21267 0.24716-0.61204
   3   6  -429543.63 1387.96   1 0.76947-0.60714 0.40643 0.12668 0.49266-0.78442
  -3  -6   425476.10  427.59   1-0.63028 0.46740-0.50271-0.03115-0.59162 0.88349
  -3  -6   428522.47  534.23   1-0.59509 0.43248 0.23060-0.76445 0.76986-0.47808
   3   6  -429036.11  540.16   1-0.53167 0.69470 0.74961-0.21603 0.39420-0.68608
  -3  -6   427292.99  481.24   1 0.34441-0.50717 0.03624-0.56963 0.93811-0.64675
   3   6  -373348.13 1923.54   1 0.78604-0.62164 0.30863 0.21069 0.53561-0.75442
  -3  -6   371176.52 1601.18   1-0.66791 0.50332 0.18303-0.70293 0.72137-0.50254
   3   6  -363855.83 1420.66   1 0.40388-0.23940 0.52087-0.00117 0.75203-0.97091
   3   6  -369557.27 1545.82   1-0.42029 0.58521 0.70570-0.18605 0.57037-0.78924
  -3  -6   366462.95 1475.80   1 0.45104-0.61585-0.10187-0.41759 0.88666-0.66808
   3   6  -2108730.0 2069.18   1 0.79403-0.62762 0.20491 0.30050 0.57229-0.71817
  -3  -6   2104931.1 1899.93   1-0.73564 0.56908 0.13236-0.63829 0.66431-0.51838
   3   6  -297385.06 1738.92   1 0.14896 0.01756 0.49857 0.00723 0.85395-0.99981
   3   6  -2103762.2 1834.87   1-0.24958 0.41632 0.60229-0.09659 0.75825-0.90406
  -3  -6   2101000.8 1787.05   1 0.55462-0.72138-0.25602-0.24953 0.79173-0.64601
   3   6  -116447.72 1216.95   1 0.79232-0.62391 0.09790 0.39360 0.60219-0.67513
  -3  -6   116120.08  770.03   1-0.79482 0.62626 0.08122-0.57321 0.60137-0.52841
   3   6  -114648.20  686.60   1-0.09497 0.26357 0.44490 0.04705 0.89052-0.96349
   3   6  -116770.00  774.53   1-0.02524 0.19400 0.42312 0.06862 0.90572-0.97859
  -3  -6   115263.53  700.43   1 0.63483-0.80354-0.40001-0.09177 0.66103-0.58812
   3   6   096510.60 2029.40   1 0.78069-0.61037-0.00908 0.48684 0.62484-0.62484
  -3  -6   0103150.2 2116.98   1-0.84373 0.67308 0.03176-0.50975 0.53582-0.53582
   3   6   0114014.1 2278.74   1 0.20528-0.03459 0.19604 0.28173 0.95886-0.95886
  -3  -6   0108189.2 2165.71   1 0.68345-0.85411-0.51346 0.03538 0.51887-0.51887
   3   6   1 3435.97  270.25   1 0.76060-0.58835-0.11335 0.57719 0.63923-0.56629
  -3  -6  -1 3269.69  254.49   1-0.88287 0.71023-0.01523-0.44881 0.46936-0.54233
   3   6   1 3364.42  232.89   1 0.38899-0.21636-0.01968 0.48349 0.92103-0.84818
  -3  -6  -1 3777.30  220.83   1 0.70506-0.87771-0.59326 0.12912 0.38849-0.46146
   3   6   278684.14 1686.71   1 0.73334-0.55889-0.21136 0.66131 0.64616-0.50029
  -3  -6  -276562.57 1631.61   1-0.91303 0.73842-0.05921-0.39091 0.40355-0.54947
   3   6   276172.75 1577.88   1 0.51062-0.33605-0.18745 0.63739 0.83911-0.69339
  -3  -6  -267469.87 1406.10   1 0.70972-0.88445-0.64784 0.19760 0.27675-0.42271
   3   6   349767.57 1064.23   1 0.70156-0.52520-0.29960 0.73565 0.64656-0.42775
  -3  -6  -343556.48  943.70   1-0.93560 0.75920-0.10039-0.33593 0.33847-0.55745
   3   6   348449.07  967.55   1 0.58406-0.40759-0.30491 0.74108 0.75225-0.53354
   3   6   429967.69 1762.94   1 0.66792-0.48964-0.37628 0.79843 0.64209-0.35035
  -3  -6  -428858.14 1353.70   1-0.95128 0.77296-0.13855-0.28384 0.27543-0.56740
   3   6   428201.51 1304.15   1 0.62673-0.44832-0.38368 0.80594 0.67822-0.38660
   3   6   539660.83 1057.93   1 0.63492-0.45473-0.44052 0.84871 0.63466-0.26999
  -3  -6  -538343.43 1052.32   1-0.96119 0.78096-0.17413-0.23432 0.21398-0.57895
   3   6   537867.03 1011.09   1 0.65148-0.47113-0.43554 0.84389 0.62118-0.25665
   3   6   6 8201.60  606.92   1 0.60508-0.42297-0.49206 0.88636 0.62589-0.18828
  -3  -6  -6 6756.44  513.88   1-0.96605 0.78390-0.20740-0.18712 0.15404-0.59200
   3   6   6 6822.52  532.54   1 0.66663-0.48401-0.46914 0.86356 0.57922-0.14138
   3   6   743180.81 1457.20   1 0.57985-0.39582-0.53168 0.91209 0.61731-0.10677
  -3  -6  -741671.85 1464.21   1-0.96640 0.78216-0.23846-0.14203 0.09586-0.60666
   3   6   740542.34 1433.61   1 0.67494-0.49033-0.49010 0.87057 0.55158-0.04076
   3   6   8 2690.55  396.17   1 0.56018-0.37423-0.56043 0.92695 0.61000-0.02653
  -3  -6  -8 1611.28  288.28   1-0.96270 0.77653-0.26779-0.09876 0.03852-0.62228
   3   6   8 2255.12  358.03   1 0.67946-0.49285-0.50220 0.86873 0.53490 0.04888
   3   6   9 2319.53  300.76   1 0.54653-0.35866-0.57939 0.93202 0.60464 0.05176
  -3  -6  -9 2161.53  361.11   1-0.95520 0.76709-0.29541-0.05719-0.01775-0.63897
   3   6   9 3891.02  497.48   1 0.68146-0.49287-0.50779 0.86037 0.52701 0.12974
   3   6  10  862.73  315.01   1 0.53899-0.34920-0.58955 0.92829 0.60158 0.12775
  -3  -6 -10 1867.39  400.27   1-0.94409 0.75404-0.32146-0.01719-0.07311-0.65659
   3   6  10 1438.53  394.54   1 0.68167-0.49108-0.50836 0.84700 0.52620 0.20352
   3   6  11 2013.36  304.74   1 0.53743-0.34572-0.59163 0.91648 0.60094 0.20132
  -3  -6 -11 3165.57  476.43   1-0.92952 0.73767-0.34598 0.02157-0.12757-0.67481
   3   6  11 2130.02  376.55   1 0.68043-0.48785-0.50490 0.82959 0.53111 0.27159
   3   7  -8  713.05  273.86   1 0.62603-0.48901 0.72497-0.05633 0.28720-0.87045
   3   7  -7 7579.19  831.18   1 0.66756-0.52863 0.66317-0.00846 0.33846-0.84880
   3   7  -625693.62 1506.72   1 0.70409-0.56325 0.59500 0.04577 0.38758-0.82501
   3   7  -623175.94 1538.62   1-0.61821 0.75936 0.75961-0.11836 0.20195-0.63981
   3   7  -516735.04 1438.89   1 0.73614-0.59377 0.52028 0.10632 0.43287-0.79757
   3   7  -515803.76  528.31   1-0.56395 0.70702 0.75685-0.12949 0.33034-0.69522
   3   7  -445353.85 2338.31   1 0.76119-0.61684 0.44024 0.17245 0.47620-0.76796
  -3  -7   440110.04  733.18   1-0.79644 0.65183 0.07970-0.69318 0.59943-0.30757
   3   7  -437787.14 1315.53   1-0.48492 0.63006 0.73419-0.12095 0.47519-0.76706
   3   7  -342397.26 1468.60   1 0.77964-0.63332 0.35519 0.24358 0.51573-0.73455
  -3  -7   340392.53 1271.45   1-0.82775 0.68113 0.04884-0.64838 0.55896-0.34007
   3   7  -341583.69 1310.16   1-0.37143 0.51844 0.67973-0.08043 0.63245-0.85131
  -3  -7   2116502.1 2345.64   1-0.85750 0.70876 0.01616-0.60167 0.51421-0.36828
   3   7  -2106077.4 2113.27   1 0.16184-0.01329 0.50056 0.08490 0.85043-0.99630
   3   7  -2116258.2 2321.99   1-0.21952 0.36835 0.58083 0.00449 0.78386-0.92967
  -3  -7   2103470.2 2070.94   1 0.57093-0.71977-0.28296-0.30221 0.77069-0.62496
   3   7  -182535.10 2063.37   1 0.79454-0.64409 0.17498 0.39612 0.58145-0.65438
  -3  -7   180174.57 1811.24   1-0.88461 0.73388-0.01755-0.55402 0.46598-0.39302
   3   7  -167466.25 1511.48   1-0.08746 0.23811 0.44700 0.12462 0.89024-0.96320
   3   7  -180051.38 1790.27   1-0.03892 0.18976 0.43524 0.13613 0.89946-0.97234
  -3  -7   174237.45 1654.84   1 0.63042-0.78121-0.39106-0.18037 0.67054-0.59763
   3   7   0209185.0 4615.03   1 0.79101-0.63863 0.08328 0.47411 0.60610-0.60610
  -3  -7   0194885.4 4257.18   1-0.90793 0.75522-0.05108-0.50655 0.41597-0.41597
   3   7   0210724.7 4568.77   1 0.14476 0.00799 0.25996 0.29744 0.95470-0.95470
   3   7   1172048.1 3829.84   1 0.78100-0.62669-0.00703 0.55050 0.62448-0.55154
  -3  -7  -1166759.3 3671.05   1-0.92721 0.77251-0.08392-0.45979 0.36499-0.43796
   3   7   1161464.2 3525.01   1 0.30399-0.14928 0.08488 0.45854 0.94888-0.87604
   3   7   220922.47 1261.56   1 0.76516-0.60892-0.09334 0.62288 0.63703-0.49114
  -3  -7  -218011.99 1096.27   1-0.94263 0.78609-0.11600-0.41395 0.31303-0.45902
   3   7   219567.74 1157.77   1 0.42442-0.26774-0.06605 0.59557 0.90304-0.75736
   3   7   3198247.1 4383.76   1 0.74480-0.58635-0.17363 0.68931 0.64429-0.42548
  -3  -7  -3191324.6 4233.69   1-0.95399 0.79554-0.14679-0.36922 0.26142-0.48040
   3   7   3189267.6 4144.41   1 0.50858-0.34997-0.18439 0.70005 0.84103-0.62245
   3   7   4 6094.18  528.18   1 0.72187-0.56150-0.24556 0.74733 0.64699-0.35525
  -3  -7  -4 4376.22  422.59   1-0.96166 0.80130-0.17644-0.32563 0.20989-0.50187
   3   7   4 4581.53  390.45   1 0.56442-0.40385-0.27209 0.77385 0.77935-0.48790
   3   7   593095.61 1538.83   1 0.69812-0.53584-0.30809 0.79596 0.64629-0.28162
  -3  -7  -593607.29 1592.62   1-0.96584 0.80356-0.20494-0.28320 0.15856-0.52352
   3   7   590053.12 1469.21   1 0.60099-0.43856-0.33494 0.82293 0.72568-0.36115
   3   7   620749.04 1105.86   1 0.67531-0.51111-0.36053 0.83451 0.64339-0.20578
  -3  -7  -623378.17 1221.79   1-0.96667 0.80230-0.23218-0.24195 0.10784-0.54566
   3   7   621674.07 1140.59   1 0.62445-0.46008-0.37919 0.85328 0.68283-0.24539
   3   7   7 6977.70  484.65   1 0.65491-0.48879-0.40274 0.86282 0.63943-0.12889
  -3  -7  -7 7564.28  683.33   1-0.96433 0.79803-0.25845-0.20174 0.05703-0.56783
   3   7   7 8881.85  609.70   1 0.63944-0.47313-0.40956 0.86974 0.65066-0.14032
   3   7   8 4133.27  434.41   1 0.63789-0.46986-0.43508 0.88120 0.63544-0.05197
  -3  -7  -8 3733.28  459.49   1-0.95890 0.79067-0.28365-0.16259 0.00648-0.59025
   3   7   8 5011.68  540.05   1 0.64877-0.48052-0.42955 0.87583 0.62814-0.04490
   3   7   9 4558.70  456.78   1 0.62532-0.45537-0.45773 0.88996 0.63202 0.02438
  -3  -7  -9 4511.65  605.17   1-0.95043 0.78026-0.30780-0.12448-0.04380-0.61292
   3   7   9 4692.41  508.41   1 0.65420-0.48401-0.44167 0.87404 0.61395 0.04219
   3   7  1025359.32 1049.73   1 0.61748-0.44561-0.47131 0.88966 0.62973 0.09960
  -3  -7 -1026822.83 1212.36   1-0.93896 0.76686-0.33094-0.08740-0.09387-0.63583
   3   7  1027297.17 1198.84   1 0.65681-0.48468-0.44764 0.86610 0.60680 0.12225
   3   7  11 2152.89  411.99   1 0.61459-0.44080-0.47623 0.88069 0.62886 0.17341
   3   7  11 2197.18  500.57   1 0.65725-0.48317-0.44865 0.85321 0.60557 0.19638
   3   8  -7 1771.48  401.99   1 0.66052-0.53954 0.67463 0.05967 0.32949-0.83983
   3   8  -611612.48 1394.59   1 0.69536-0.57247 0.61281 0.10756 0.37540-0.81283
   3   8  -5  466.49  314.69   1 0.72635-0.60195 0.54592 0.16026 0.41758-0.78228
   3   8  -5  753.29  149.45   1-0.53809 0.66338 0.75129-0.04449 0.38210-0.74695
   3   8  -414551.42 2254.89   1 0.75127-0.62489 0.47508 0.21718 0.45813-0.74988
   3   8  -412458.15 1107.93   1-0.45605 0.58330 0.72233-0.02943 0.51984-0.81172
   3   8  -316354.18 1604.66   1 0.77077-0.64242 0.40058 0.27777 0.49541-0.71423
  -3  -8   314943.83  817.49   1-0.93555 0.80672-0.10042-0.57867 0.33860-0.11971
   3   8  -313688.36  762.75   1-0.34760 0.47669 0.66591 0.01304 0.66010-0.87897
   3   8  -218172.95 1535.97   1 0.78407-0.65360 0.32346 0.34115 0.52970-0.67558
  -3  -8   217022.81  939.17   1-0.93740 0.80647-0.10422-0.56116 0.33227-0.18628
   3   8  -216940.63  930.48   1-0.21338 0.34429 0.57634 0.08862 0.78885-0.93467
   3   8  -1 3776.93  502.72   1 0.79215-0.65967 0.24433 0.40636 0.55927-0.63221
  -3  -8   1 4412.24  319.99   1-0.94265 0.80980-0.11606-0.53539 0.31293-0.23994
   3   8  -1 3109.89  233.83   1-0.06182 0.19474 0.45521 0.19579 0.88823-0.96111
   3   8   017341.11 1598.43   1 0.79453-0.66004 0.16479 0.47199 0.58442-0.58442
  -3  -8   017220.66  855.93   1-0.94909 0.81432-0.13237-0.50514 0.28583-0.28583
   3   8   016971.08  837.29   1 0.09164 0.04322 0.31339 0.32364 0.94518-0.94518
   3   8   191417.24 1523.95   1 0.79125-0.65490 0.08671 0.53637 0.60530-0.53235
  -3  -8  -192567.35 1465.97   1-0.95537 0.81870-0.15133-0.47225 0.25367-0.32666
   3   8   190359.79 1382.42   1 0.23085-0.09406 0.16803 0.45506 0.95836-0.88547
   3   8   2 5906.98  438.92   1 0.78355-0.64526 0.01109 0.59806 0.62122-0.47533
  -3  -8  -2 6867.73  470.49   1-0.96069 0.82210-0.17185-0.43778 0.21799-0.36398
   3   8   2 5588.34  336.13   1 0.34559-0.20683 0.03479 0.57433 0.93773-0.79205
   3   8   3110133.5 1781.95   1 0.77198-0.63177-0.06013 0.65536 0.63278-0.41394
  -3  -8  -3109030.9 1760.13   1-0.96452 0.82401-0.19327-0.40243 0.17981-0.39879
   3   8   3107241.4 1653.86   1 0.43311-0.29238-0.07772 0.67294 0.89798-0.67945
   3   8   441485.49 1428.88   1 0.75768-0.61554-0.12547 0.70677 0.64044-0.34865
  -3  -8  -445025.90 1564.44   1-0.96653 0.82411-0.21512-0.36665 0.13977-0.43174
   3   8   442467.07 1412.63   1 0.49719-0.35455-0.16751 0.74889 0.85131-0.55986
   3   8   5 3511.38  309.38   1 0.74182-0.59745-0.18385 0.75135 0.64489-0.28022
  -3  -8  -5 4890.77  410.62   1-0.96648 0.82199-0.23698-0.33080 0.09870-0.46355
   3   8   5 5145.99  416.00   1 0.54251-0.39791-0.23659 0.80407 0.80603-0.44173
   3   8   683560.03 2724.81   1 0.72586-0.57957-0.23401 0.78761 0.64680-0.20919
  -3  -8  -684383.89 2769.15   1-0.96427 0.81785-0.25885-0.29498 0.05624-0.49406
   3   8   678244.22 2549.36   1 0.57412-0.42757-0.28835 0.84193 0.76630-0.32913
   3   8   713258.03  948.30   1 0.71091-0.56270-0.27561 0.81531 0.64702-0.13647
  -3  -8  -712623.50 1002.64   1-0.95977 0.81141-0.28048-0.25940 0.01295-0.52375
   3   8   713118.33  960.82   1 0.59603-0.44764-0.32601 0.86584 0.73379-0.22345
   3   8   823873.32  953.80   1 0.69800-0.54787-0.30839 0.83419 0.64628-0.06280
  -3  -8  -822876.56 1020.16   1-0.95288 0.80259-0.30173-0.22420-0.03097-0.55278
   3   8   823950.52 1031.02   1 0.61071-0.46038-0.35286 0.87878 0.70888-0.12563
   3   8   9  750.64  267.36   1 0.68793-0.53589-0.33231 0.84421 0.64522 0.01118
  -3  -8  -9 1156.20  493.84   1-0.94354 0.79132-0.32252-0.18946-0.07543-0.58130
   3   8   9 1513.50  582.88   1 0.62026-0.46799-0.37102 0.88304 0.69109-0.03494
   3   8  10 6918.22 1130.76   1 0.68129-0.52733-0.34739 0.84539 0.64433 0.08501
  -3  -8 -10 6758.18 1328.75   1-0.93172 0.77765-0.34271-0.15498-0.12016-0.60928
   3   8  10 7381.36  560.24   1 0.62599-0.47178-0.38222 0.88033 0.67973 0.04932
   3   9  -6  476.29  165.69   1 0.68435-0.57941 0.63380 0.16617 0.36047-0.79790
   3   9  -5 2804.63  512.41   1 0.71373-0.60688 0.57396 0.21209 0.40143-0.76596
   3   9  -4 2356.57  438.61   1 0.73963-0.63122 0.51055 0.26129 0.43849-0.73025
   3   9  -3  628.10  173.28   1-0.34050 0.45169 0.66166 0.09694 0.66802-0.88689
   3   9  -2  562.73  187.60   1 0.77567-0.66331 0.37691 0.36710 0.50623-0.65210
   3   9  -2   92.94  126.55   1-0.22106 0.33405 0.58194 0.16265 0.78260-0.92841
   3   9  -1 6635.35  659.19   1 0.78611-0.67160 0.30802 0.42228 0.53585-0.60879
  -3  -9   1 5676.47  296.34   1-0.96635 0.85145-0.21180-0.51933 0.14592-0.07293
   3   9  -1 5830.43  243.20   1-0.09021 0.20517 0.47931 0.25134 0.87299-0.94590
   3   9   0 1199.51  347.27   1 0.79250-0.67597 0.23876 0.47762 0.56118-0.56118
  -3  -9   0  974.14  161.22   1-0.96628 0.84946-0.21072-0.50648 0.14791-0.14791
   3   9   0 1270.19  231.33   1 0.04239 0.07455 0.36096 0.35571 0.93161-0.93161
   3   9   1 2259.42  308.44   1 0.79455-0.67601 0.17044 0.53203 0.58278-0.50984
  -3  -9  -1 2582.68  305.73   1-0.96659 0.84785-0.21649-0.48677 0.13721-0.21020
   3   9   1 1767.92  186.05   1 0.16605-0.04718 0.23784 0.46488 0.95700-0.88411
   3   9   213940.78 1224.27   1 0.79269-0.67215 0.10427 0.58429 0.60063-0.45475
  -3  -9  -211952.63  743.38   1-0.96676 0.84602-0.22647-0.46285 0.11866-0.26460
   3   9   212830.31  781.56   1 0.27300-0.15219 0.12052 0.56825 0.95443-0.80865
   3   9   3 1083.30  369.46   1 0.78725-0.66499 0.04187 0.63299 0.61520-0.39636
  -3  -9  -3  641.48  337.65   1-0.96635 0.84368-0.23932-0.43605 0.09422-0.31313
   3   9   3  747.57  228.46   1 0.36048-0.23767 0.01637 0.65846 0.93262-0.71409
   3   9   462931.62 2092.45   1 0.77959-0.65540-0.01633 0.67727 0.62607-0.33429
  -3  -9  -462540.94 2096.28   1-0.96495 0.84034-0.25404-0.40738 0.06568-0.35757
   3   9   460242.16 1974.03   1 0.42849-0.30371-0.07150 0.73243 0.90070-0.60934
   3   9   5 3091.19  389.45   1 0.77026-0.64415-0.06893 0.71594 0.63398-0.26925
  -3  -9  -5 2659.86  306.18   1-0.96225 0.83570-0.27002-0.37745 0.03405-0.39890
   3   9   5 3597.66  409.34   1 0.48013-0.35345-0.14275 0.78985 0.86550-0.50119
   3   9   647675.30 1340.37   1 0.76021-0.63216-0.11503 0.74810 0.63941-0.20173
  -3  -9  -648700.70 1468.19   1-0.95798 0.82950-0.28681-0.34671 0.00001-0.43784
   3   9   650110.76 1409.26   1 0.51825-0.38962-0.19896 0.83216 0.83176-0.39459
   3   9   7 5991.16  531.37   1 0.75033-0.62036-0.15393 0.77307 0.64288-0.13225
  -3  -9  -7 5787.69  610.47   1-0.95196 0.82155-0.30407-0.31550-0.03591-0.47488
   3   9   7 5117.02  556.54   1 0.54603-0.41545-0.24219 0.86148 0.80199-0.29195
   3   9   833768.48 1362.07   1 0.74142-0.60921-0.18519 0.79061 0.64497-0.06149
   3   9   834346.43 1445.39   1 0.56592-0.43338-0.27458 0.87997 0.77739-0.19449
   3   9   951929.73 2127.78   1 0.73433-0.60021-0.20824 0.79977 0.64604 0.01036
  -3  -9  -951086.58 2205.09   1-0.93408 0.79987-0.33904-0.25226-0.11192-0.54457
   3   9   951009.51 2137.99   1 0.57990-0.44555-0.29774 0.88940 0.75832-0.10217
   3  10  -4 3078.49  559.06   1 0.72617-0.63574 0.54637 0.30504 0.41731-0.70906
   3  10  -3 3130.19  493.71   1 0.74726-0.65485 0.48787 0.34963 0.45119-0.67001
   3  10  -215308.87 2032.34   1 0.76435-0.66996 0.42795 0.39563 0.48230-0.62818
   3  10  -215677.78  969.69   1-0.23767 0.33274 0.59389 0.23034 0.76863-0.91445
   3  10  -1  744.31  324.83   1 0.77748-0.68112 0.36731 0.44236 0.51048-0.58341
   3  10  -1  797.81  207.95   1-0.12214 0.21919 0.50570 0.30458 0.85401-0.92692
   3  10   0 1521.71  390.96   1 0.78627-0.68771 0.30674 0.48925 0.53635-0.53635
   3  10   0  447.32  211.69   1-0.00504 0.10407 0.40493 0.39136 0.91432-0.91432
   3  10   1 6169.43  920.75   1 0.79197-0.69140 0.24699 0.53508 0.55836-0.48542
  -3 -10  -1 7639.46  563.79   1-0.96011 0.85925-0.27915-0.50381 0.01564-0.08861
   3  10   1 5060.95  423.54   1 0.10611-0.00513 0.29905 0.48329 0.94831-0.87544
   3  10   2 2008.88  407.06   1 0.79439-0.69182 0.18909 0.57907 0.57721-0.43133
  -3 -10  -2 2983.07  507.33   1-0.95998 0.85718-0.27967-0.48935 0.01459-0.16053
   3  10   2 2979.48  458.17   1 0.20582-0.10292 0.19544 0.57296 0.95887-0.81309
   3  10   3  742.34  210.65   1 0.79398-0.68940 0.13399 0.62025 0.59298-0.37416
  -3 -10  -3  138.18  240.60   1-0.95858 0.85384-0.28478-0.47029 0.00418-0.22309
   3  10   3 -110.95  238.01   1 0.29100-0.18611 0.10012 0.65433 0.95146-0.73294
   3  10   4 5512.80  501.74   1 0.79099-0.68475 0.08308 0.65748 0.60615-0.31436
  -3 -10  -4 5610.18  582.97   1-0.95601 0.84933-0.29305-0.44807-0.01285-0.27902
   3  10   5 1294.53  332.47   1 0.78665-0.67849 0.03644 0.69018 0.61631-0.25157
  -3 -10  -5 1284.06  341.43   1-0.95217 0.84357-0.30355-0.42362-0.03480-0.33004
   3  10   5 1003.29  242.92   1 0.41577-0.30693-0.05456 0.78119 0.90782-0.54362
   3  10   620010.18 1274.85   1 0.78134-0.67125-0.00470 0.71740 0.62408-0.18640
  -3 -10  -617162.98 1174.68   1-0.94694 0.83640-0.31563-0.39758-0.06053-0.37729
   3  10   618554.89 1187.44   1 0.45886-0.34815-0.11271 0.82553 0.88132-0.44415
   3  10   7 9909.85  564.73   1 0.77573-0.66371-0.03965 0.73842 0.62980-0.11918
  -3 -10  -7 9404.42  683.90   1-0.94016 0.82768-0.32883-0.37043-0.08923-0.42156
   3  10   711088.96  591.17   1 0.49161-0.37895-0.15935 0.85826 0.85610-0.34607
   3  10   8 1287.35  326.71   1 0.77049-0.65655-0.06775 0.75260 0.63382-0.05025
  -3 -10  -8 1479.93  352.68   1-0.93173 0.81737-0.34269-0.34223-0.12012-0.46343
   3  10   8 1198.33  343.86   1 0.51615-0.40154-0.19578 0.88079 0.83381-0.25092
   3  11  -2  922.34  359.86   1 0.75070-0.67429 0.47692 0.42624 0.45714-0.60302
   3  11  -120603.32 1518.98   1 0.76549-0.68710 0.42334 0.46591 0.48456-0.55750
   3  11   0 2515.40  451.32   1 0.77698-0.69662 0.37002 0.50531 0.50928-0.50928
   3  11   0 2923.52  340.98   1-0.05179 0.13291 0.44652 0.42941 0.89327-0.89327
   3  11   1 2197.70  394.47   1 0.78487-0.70227 0.31760 0.54407 0.53206-0.45912
   3  11   214107.70 1266.83   1 0.79044-0.70583 0.26689 0.58086 0.55132-0.40544
  -3 -11  -214796.99  625.61   1-0.93889 0.85403-0.33107-0.51763-0.09417-0.05177
   3  11   214759.63  582.55   1 0.14231-0.05733 0.26248 0.58555 0.95438-0.80860
   3  11   3 4766.70  747.71   1 0.79353-0.70691 0.21868 0.61516 0.56787-0.34905
  -3 -11  -3 5065.70  622.00   1-0.93993 0.85314-0.32923-0.50552-0.09011-0.12880
   3  11   3 4350.94  464.74   1 0.22402-0.13709 0.17557 0.65852 0.95863-0.73996
   3  11   4 6845.86 1126.29   1 0.79454-0.70592 0.17376 0.64617 0.58180-0.29005
   3  11   4 8436.13  611.10   1 0.29370-0.20476 0.09697 0.72318 0.95096-0.65960
   3  11   5 5080.13  700.83   1 0.79395-0.70332 0.13291 0.67311 0.59327-0.22857
  -3 -11  -5 4734.45  629.83   1-0.93524 0.84458-0.33719-0.46966-0.10776-0.25709
   3  11   5 4217.51  453.69   1 0.35100-0.26008 0.02813 0.77811 0.93595-0.57174
   3  11   612991.63 1625.30   1 0.79225-0.69961 0.09687 0.69524 0.60244-0.16481
  -3 -11  -612036.80 2144.07   1-0.93031 0.83772-0.34482-0.44768-0.12494-0.31272
   3  11   615527.22 1451.82   1 0.39726-0.30437-0.03034 0.82268 0.91720-0.48015
  -4   9   5  728.48  412.18   1 0.38614-0.90920 0.52058 0.12642 0.76149-0.39669
  -4   9   5 1155.39  421.59   1 0.16923-0.69169 0.23449 0.41245 0.95727-0.59282
  -4   9   4 1995.63  266.57   1 0.33120-0.85621 0.51839 0.14257 0.78839-0.49655
  -4   9   4 1736.96  358.07   1 0.12387-0.64827 0.28129 0.37960 0.95159-0.66003
   4  -9  -3 1778.25  299.31   1-0.44051 0.96743-0.89308 0.21871-0.09135-0.12740
  -4   9   3 1474.56  270.66   1 0.25564-0.78261 0.51241 0.16250 0.81980-0.60092
  -4   9   3 1007.31  311.44   1 0.07380-0.60016 0.33085 0.34393 0.94079-0.72215
   4  -9  -2 8813.40  592.11   1-0.45007 0.97895-0.88729 0.19902-0.10068-0.04515
  -4   9   2 9271.07  590.17   1 0.01983-0.54813 0.38210 0.30664 0.92390-0.77815
   4  -9  -1 5041.64  556.82   1-0.45161 0.98245-0.88633 0.18416-0.10220 0.02928
  -4   9   1 4116.46  469.32   1-0.03721-0.49302 0.43374 0.26897 0.90026-0.82739
   4  -9   0 3048.77  416.63   1-0.44725 0.98005-0.88903 0.17295-0.09792 0.09792
  -4   9   0 2455.04  348.40   1-0.09631-0.43586 0.48442 0.23229 0.86951-0.86951
   4  -9   1 8632.60 1057.06   1-0.43822 0.97298-0.89443 0.16445-0.08912 0.16204
  -4   8   720833.20 1025.62   1 0.47912-0.98027 0.51970 0.01976 0.70735-0.19662
  -4   8   721942.13 1057.82   1 0.28492-0.78556 0.10677 0.43267 0.95258-0.44235
  -4   8   6 3107.91  446.75   1 0.45490-0.95801 0.52052 0.03289 0.72257-0.28480
  -4   8   6 3245.58  436.47   1 0.24916-0.75176 0.14760 0.40577 0.95714-0.51980
  -4   8   529032.73 1171.97   1 0.41928-0.92435 0.52096 0.04641 0.74350-0.37870
  -4   8   530403.17 1331.32   1 0.20750-0.71204 0.19362 0.37369 0.95887-0.59443
  -4   8   4 3271.83  411.59   1 0.36894-0.87596 0.52010 0.06122 0.77030-0.47846
  -4   8   4 3239.55  428.98   1 0.16004-0.66652 0.24412 0.33714 0.95644-0.66488
   4  -8  -311136.64  767.34   1-0.43534 0.94428-0.89611 0.30130-0.08633-0.13241
  -4   8   311387.93  781.33   1 0.29922-0.80820 0.51626 0.07900 0.80245-0.58357
  -4   8   312742.77  903.06   1 0.10715-0.61559 0.29801 0.29715 0.94852-0.72989
   4  -8  -224215.92 1004.78   1-0.44797 0.95887-0.88859 0.27987-0.09862-0.04720
  -4   8   225144.36  939.32   1 0.20371-0.71452 0.50644 0.10294 0.83786-0.69199
  -4   8   223681.37 1006.21   1 0.04972-0.56010 0.35401 0.25511 0.93391-0.78816
   4  -8  -1 1959.69  393.24   1-0.45124 0.96410-0.88657 0.26395-0.10183 0.02891
  -4   8   1 2174.10  217.22   1 0.07320-0.58599 0.48511 0.13819 0.87137-0.79844
  -4   8   1 1952.44  298.57   1-0.01123-0.50108 0.41054 0.21253 0.91176-0.83889
   4  -8   0 6305.09  675.90   1-0.44784 0.96266-0.88867 0.25215-0.09850 0.09850
  -4   8   0 5435.86  642.38   1-0.07446-0.43979 0.46599 0.17109 0.88164-0.88164
   4  -8   110582.08 1077.45   1-0.43934 0.95611-0.89377 0.24336-0.09021 0.16313
  -4   8  -2 1584.33  374.08   1-0.20200-0.31620 0.56793 0.09703 0.79790-0.94371
   4  -8   3 1965.83  335.06   1-0.41058 0.93127-0.90967 0.23145-0.06258 0.28134
  -4   8  -3 3200.41  390.96   1-0.26384-0.25631 0.61216 0.06679 0.74541-0.96428
   4  -8   415673.69 1532.99   1-0.39138 0.91403-0.91915 0.22703-0.04447 0.33614
  -4   8  -412388.97 1449.58   1-0.32280-0.19932 0.65080 0.04206 0.68720-0.97903
   4  -7  -954946.30 4816.76   1-0.51663 0.99607-0.51691 0.08470-0.68256 0.02584
  -4   7   947529.89 4190.39   1 0.37859-0.85721-0.00641 0.43851 0.92553-0.26996
   4  -7  -829126.70 1122.80   1-0.51078 0.99214-0.51732 0.07117-0.68664 0.10289
  -4   7   828658.88 1073.22   1 0.35467-0.83527 0.02359 0.42242 0.93469-0.35196
  -4   7   737111.13 1536.21   1 0.32477-0.80733 0.06011 0.39981 0.94388-0.43399
  -4   7   625497.40 1083.27   1 0.47621-0.96134 0.51982-0.04604 0.70922-0.27145
  -4   7   629383.42 1252.76   1 0.28832-0.77300 0.10281 0.37094 0.95199-0.51465
  -4   7   530874.11  973.88   1 0.44345-0.93054 0.52076-0.03303 0.72948-0.36468
  -4   7   529852.14 1027.46   1 0.24525-0.73187 0.15200 0.33569 0.95746-0.59301
   4  -7  -484188.00 2433.09   1-0.37933 0.86833-0.92466 0.42331-0.03323-0.25843
  -4   7   482756.59 2453.08   1 0.39648-0.88552 0.52077-0.01909 0.75603-0.46419
  -4   7   488083.89 2663.47   1 0.19546-0.68402 0.20662 0.29501 0.95869-0.66713
   4  -7  -3 2024.86  224.60   1-0.41714 0.90810-0.90622 0.39098-0.06883-0.14991
  -4   7   3 2925.39  337.17   1 0.33086-0.82186 0.51837-0.00274 0.78855-0.56967
  -4   7   3 2237.29  386.72   1 0.13938-0.62989 0.26549 0.25009 0.95398-0.73531
   4  -7  -252076.80 1697.23   1-0.43543 0.92835-0.89606 0.36691-0.08642-0.05941
  -4   7   250930.00 1609.90   1 0.24065-0.73349 0.51084 0.01888 0.82530-0.67943
  -4   7   253215.44 1770.98   1 0.07782-0.57029 0.32694 0.20254 0.94183-0.79607
   4  -7  -1 8467.82  492.42   1-0.44197 0.93684-0.89221 0.34916-0.09277 0.01985
  -4   7   1 8178.10  280.58   1 0.11765-0.61246 0.49336 0.05029 0.86182-0.78889
  -4   7   1 7861.17  508.88   1 0.01224-0.50665 0.38912 0.15432 0.92110-0.84822
   4  -7   077648.02 2489.13   1-0.44053 0.93737-0.89307 0.33611-0.09137 0.09137
  -4   7   076620.90 2310.02   1-0.04766-0.44914 0.45766 0.10001 0.88784-0.88784
  -4   7   074037.39 2329.64   1-0.05580-0.44054 0.45000 0.10741 0.89128-0.89128
   4  -7   121393.79  898.28   1-0.43324 0.93203-0.89732 0.32647-0.08430 0.15722
  -4   7  -117684.74  584.46   1-0.26471-0.23402 0.38974 0.18187 0.88205-0.95506
  -4   7  -119692.80  818.61   1-0.12462-0.37369 0.50772 0.06366 0.85245-0.92536
   4  -7   2 6532.70  734.60   1-0.42135 0.92210-0.90396 0.31921-0.07285 0.21869
   4  -7   321781.03 1047.28   1-0.40566 0.90837-0.91218 0.31353-0.05792 0.27667
  -4   7  -320287.04  872.89   1-0.25794-0.24431 0.60809-0.00879 0.75078-0.96965
   4  -7   4 1154.59  456.13   1-0.38672 0.89139-0.92132 0.30876-0.04011 0.33178
  -4   7  -4  470.50  436.08   1-0.31980-0.18440 0.64892-0.03571 0.69037-0.98220
  -4   7  -5 1689.64  442.09   1-0.37737-0.12879 0.68306-0.05594 0.62531-0.99009
   4  -6  -9 8302.12  809.82   1-0.52481 0.98629-0.51628 0.16376-0.67676 0.02005
  -4   6   910725.02  684.02   1 0.41674-0.87743-0.05584 0.40832 0.90730-0.25173
   4  -6  -839968.14 2033.13   1-0.52058 0.98398-0.51661 0.15014-0.67977 0.09603
  -4   6   838391.02 1927.38   1 0.39364-0.85631-0.02566 0.39206 0.91890-0.33617
   4  -6  -7 9926.40  749.21   1-0.50932 0.97465-0.51741 0.13699-0.68765 0.17687
  -4   6   710310.86  778.81   1 0.36403-0.82867 0.01194 0.36837 0.93130-0.42142
  -4   6   651086.59 1697.95   1 0.48957-0.95671 0.51921-0.12507 0.70052-0.26276
  -4   6   655801.70 1853.04   1 0.32721-0.79383 0.05716 0.33706 0.94321-0.50617
  -4   6   511290.65  749.25   1 0.45885-0.92796 0.52042-0.11233 0.72014-0.35534
  -4   6   511448.26  830.16   1 0.28261-0.75131 0.10945 0.29861 0.95296-0.58852
   4  -6  -453361.97  970.49   1-0.32089 0.79191-0.94690 0.52512 0.01996-0.31163
  -4   6   455569.46 1153.80   1 0.41415-0.88521 0.52095-0.09891 0.74638-0.45454
  -4   6   456422.75 1189.71   1 0.23020-0.70084 0.16875 0.25325 0.95839-0.66683
   4  -6  -350821.01 1615.67   1-0.37937 0.85235-0.92464 0.48895-0.03327-0.18548
  -4   6   350386.08 1631.20   1 0.35115-0.82417 0.51940-0.08341 0.77904-0.56016
  -4   6   353268.53 1776.31   1 0.17030-0.64288 0.23338 0.20257 0.95735-0.73868
   4  -6  -271511.42 2265.39   1-0.40815 0.88308-0.91092 0.46133-0.06027-0.08555
  -4   6   275902.94 2382.76   1 0.26404-0.73902 0.51324-0.06329 0.81661-0.67069
  -4   6   275715.79 2433.42   1 0.10386-0.57841 0.30129 0.14856 0.94785-0.80210
   4  -6  -133042.17 1155.53   1-0.42068 0.89758-0.90432 0.44083-0.07222-0.00069
  -4   6   132604.26 1091.57   1 0.14561-0.62246 0.49804-0.03403 0.85484-0.78190
  -4   6   133482.54 1174.39   1 0.03269-0.50918 0.37010 0.09372 0.92841-0.85553
   4  -6   0 3146.92  354.82   1-0.42294 0.90179-0.90309 0.42571-0.07438 0.07438
  -4   6   0 2678.92  241.20   1-0.01237-0.46647 0.46644 0.01156 0.88446-0.88446
  -4   6   0 3229.84  357.11   1-0.04116-0.43727 0.43721 0.04056 0.89841-0.89841
   4  -6   1130099.4 2444.06   1-0.41800 0.89881-0.90576 0.41448-0.06965 0.14257
  -4   6  -1123795.8 2064.98   1-0.21579-0.26504 0.40709 0.08486 0.88752-0.96049
  -4   6  -1114419.3 2101.53   1-0.11552-0.36488 0.50030-0.00855 0.85810-0.93101
   4  -6   219389.55 1205.32   1-0.40767 0.89044-0.91116 0.40597-0.05982 0.20565
  -4   6  -217609.22  954.76   1-0.46090-0.02186 0.30505 0.20081 0.83337-0.97938
  -4   6  -217641.92 1053.60   1-0.18818-0.29419 0.55756-0.05186 0.80852-0.95433
   4  -6   359688.35 2013.08   1-0.39303 0.87776-0.91837 0.39928-0.04601 0.26477
   4  -6   437339.99 1290.29   1-0.37481 0.86149-0.92664 0.39365-0.02903 0.32071
   4  -6   528960.72 1587.90   1-0.35347 0.84212-0.93539 0.38850-0.00943 0.37402
  -4   6  -526918.22 1455.69   1-0.38180-0.10644 0.68552-0.13805 0.61990-0.98468
   4  -6   639201.78 1327.67   1-0.32935 0.81995-0.94412 0.38333 0.01239 0.42511
  -4   6  -631971.16 2059.84   1-0.43580-0.05419 0.71312-0.15172 0.54912-0.98693
   4  -6   7 3689.75  616.39   1-0.30266 0.79522-0.95241 0.37771 0.03613 0.47428
  -4   6  -7 3097.50  527.53   1-0.48408-0.00785 0.73387-0.15858 0.47653-0.98731
   4  -5 -10  548.85  336.02   1-0.52328 0.96488-0.51640 0.25751-0.67786-0.05181
  -4   5  10 1745.49  587.37   1 0.46966-0.91064-0.12785 0.38693 0.87353-0.14492
   4  -5  -9 3330.94  624.62   1-0.52622 0.96975-0.51617 0.24333-0.67575 0.01904
  -4   5   9 4769.31  649.59   1 0.45380-0.89674-0.10568 0.37866 0.88481-0.22905
   4  -5  -822947.55 1365.30   1-0.52326 0.96871-0.51640 0.22961-0.67787 0.09412
  -4   5   823572.28 1354.55   1 0.43189-0.87663-0.07607 0.36284 0.89871-0.31598
   4  -5  -7 1210.28  435.21   1-0.51327 0.96064-0.51715 0.21640-0.68491 0.17413
  -4   5   7 1633.13  454.85   1 0.40288-0.84960-0.03764 0.33834 0.91447-0.40458
  -4   5   612240.50  641.37   1 0.49473-0.94390 0.51893-0.20443 0.69709-0.25933
  -4   5   612612.42  800.18   1 0.36580-0.81450 0.00972 0.30488 0.93064-0.49359
  -4   5   583801.53 2662.21   1 0.46526-0.91638 0.52022-0.19177 0.71616-0.35136
  -4   5   589900.47 2853.55   1 0.31978-0.77045 0.06610 0.26242 0.94518-0.58097
   4  -5  -4  679.51  101.04   1-0.20966 0.66253-0.97088 0.62841 0.11587-0.40759
  -4   5   4  923.93  192.45   1 0.42178-0.87486 0.52095-0.17856 0.74208-0.45024
  -4   5   4  369.59  297.89   1 0.26433-0.71705 0.13044 0.21193 0.95556-0.66401
   4  -5  -368876.82 1400.09   1 0.79290-0.33817 0.10822-0.46448 0.59965-0.81846
   4  -5  -380487.14 1662.66   1-0.31007 0.76506-0.95025 0.59413 0.02958-0.24834
  -4   5   384850.42 1821.16   1 0.36001-0.81505 0.51977-0.16342 0.77473-0.55585
  -4   5   378292.23 1730.15   1 0.19983-0.65450 0.20193 0.15439 0.95879-0.74012
   4  -5  -226701.35 1284.81   1-0.35874 0.81570-0.93332 0.56330-0.01425-0.13158
  -4   5   225730.70 1388.96   1 0.27430-0.73129 0.51419-0.14389 0.81262-0.66670
  -4   5   225832.93 1456.99   1 0.12745-0.58406 0.27766 0.09259 0.95218-0.80640
   4  -5  -1224835.3 4506.91   1-0.38232 0.84123-0.92332 0.53940-0.03601-0.03690
  -4   5   1218593.3 4338.85   1 0.15789-0.61678 0.49996-0.11561 0.85153-0.77859
  -4   5   1216901.0 4358.20   1 0.04930-0.50788 0.35440 0.02978 0.93378-0.86091
   4  -5   050253.00 1216.18   1-0.39130 0.85217-0.91918 0.52136-0.04439 0.04439
  -4   5   046332.11 1018.68   1 0.00386-0.46472 0.47025-0.07196 0.88252-0.88252
  -4   5   048443.39 1153.13   1-0.03163-0.42888 0.42880-0.03065 0.90284-0.90284
   4  -5   1121496.2 1988.73   1-0.39073 0.85356-0.91945 0.50773-0.04386 0.11677
  -4   5  -1119517.1 1740.32   1-0.19089-0.27199 0.41551-0.00322 0.88932-0.96229
  -4   5  -1125996.6 1983.53   1-0.11253-0.34995 0.49785-0.08573 0.85992-0.93283
   4  -5   248320.32 1036.98   1-0.38334 0.84813-0.92286 0.49724-0.03696 0.18280
  -4   5  -248866.36  800.96   1-0.41871-0.04610 0.32537 0.10081 0.84782-0.99383
  -4   5  -248438.40  964.37   1-0.19062-0.27383 0.55940-0.13334 0.80667-0.95248
   4  -5   3105730.1 3378.83   1-0.37078 0.83752-0.92837 0.48884-0.02531 0.24407
  -4   5  -3102302.3 3108.01   1-0.65331 0.18635 0.19307 0.24714 0.73205-0.95088
  -4   5  -3103968.5 3258.10   1-0.26411-0.20231 0.61234-0.17235 0.74516-0.96403
   4  -5   4108624.1 3538.02   1-0.35405 0.82276-0.93517 0.48174-0.00996 0.30163
  -4   5  -493971.94 2891.26   1-0.84876 0.38022 0.02617 0.42786 0.52812-0.81997
  -4   5  -4104567.1 3334.99   1-0.33149-0.13689 0.65618-0.20227 0.67788-0.96971
   4  -5   523601.12  949.78   1-0.33383 0.80450-0.94259 0.47526 0.00836 0.35623
   4  -5   658870.38 2153.44   1-0.31057 0.78319-0.95010 0.46887 0.02914 0.40836
  -4   5  -654200.23 3231.06   1-0.44674-0.02535 0.71818-0.23645 0.53349-0.97131
   4  -5   726473.17 1278.94   1-0.28456 0.75914-0.95724 0.46211 0.05200 0.45841
  -4   5  -722935.76 2097.58   1-0.49468 0.02063 0.73783-0.24219 0.45922-0.97000
   4  -5   828414.01 1668.38   1-0.25612 0.73249-0.96360 0.45450 0.07660 0.50683
  -4   5  -821299.18 2257.89   1-0.53668 0.06068 0.75094-0.24140 0.38477-0.96852
   4  -4 -1110482.34 1031.59   1-0.50724 0.92897-0.51755 0.35229-0.68908-0.11356
  -4   4  1112955.07 1274.94   1 0.51266-0.93377-0.19051 0.35606 0.83718-0.03570
  -4   4  10 2753.60  473.10   1 0.50380-0.92687-0.17728 0.35673 0.84542-0.11680
   4  -4  -920960.57  996.48   1-0.52038 0.94595-0.51663 0.32346-0.67992 0.02320
  -4   4   921034.73  929.89   1 0.48972-0.91474-0.15659 0.34995 0.85769-0.20194
   4  -4  -8  785.07  482.90   1-0.51832 0.94581-0.51678 0.30967-0.68137 0.09763
  -4   4   8 1293.10  456.28   1 0.46934-0.89631-0.12740 0.33466 0.87377-0.29088
   4  -4  -7  452.29  344.66   1-0.50910 0.93852-0.51743 0.29636-0.68780 0.17702
  -4   4   7  661.34  391.32   1 0.44137-0.87017-0.08891 0.30999 0.89290-0.38301
  -4   4   6 8546.46  600.55   1 0.49114-0.92232 0.51913-0.28427 0.69948-0.26172
  -4   4   6 9136.34  561.52   1 0.40432-0.83509-0.03952 0.27451 0.91376-0.47671
  -4   4   563540.63 1468.72   1 0.46208-0.89522 0.52032-0.27152 0.71815-0.35334
  -4   4   565500.53 1518.92   1 0.35682-0.78957 0.02092 0.22798 0.93393-0.56973
   4  -4  -4 1476.77  118.87   1 0.76468-0.32990-0.09550-0.16729 0.63728-0.92907
   4  -4  -4 1549.53  133.77   1 0.00648 0.42842-0.95853 0.69565 0.28490-0.57664
  -4   4   4 1728.37  274.36   1 0.41875-0.85385 0.52096-0.25820 0.74380-0.45196
  -4   4   4 2493.34  404.80   1 0.29796-0.73269 0.09197 0.17084 0.95013-0.65876
   4  -4  -388478.19 1947.91   1 0.79258-0.35581 0.23742-0.51408 0.56164-0.78045
   4  -4  -393701.40 2062.99   1-0.18869 0.62559-0.97295 0.69620 0.13323-0.35202
  -4   4   396772.70 2218.43   1 0.35684-0.79389 0.51964-0.24293 0.77629-0.55741
  -4   4   398821.21 2266.35   1 0.22775-0.66451 0.17146 0.10522 0.95850-0.73983
   4  -4  -216652.98  766.71   1 0.77046-0.33176 0.40199-0.69247 0.49475-0.64063
   4  -4  -219145.79  898.02   1-0.27506 0.71404-0.95953 0.66907 0.06026-0.20610
  -4   4   219178.50  948.64   1 0.27080-0.70982 0.51387-0.22321 0.81399-0.66807
  -4   4   219593.81  971.51   1 0.14772-0.58642 0.25690 0.03372 0.95507-0.80929
   4  -4  -1  895.21  176.59   1-0.31891 0.75984-0.94753 0.64317 0.02173-0.09464
  -4   4   1 1049.63  166.29   1 0.15436-0.59528 0.49941-0.19472 0.85249-0.77956
  -4   4   1  134.01  220.58   1 0.06076-0.50142 0.34344-0.03888 0.93720-0.86432
   4  -4   0136885.5 2534.20   1-0.33998 0.78287-0.94042 0.62216 0.00281-0.00281
  -4   4   0132138.7 2379.42   1 0.00192-0.44485 0.46982-0.15115 0.88275-0.88275
  -4   4   0136092.1 2495.79   1-0.02900-0.41359 0.42646-0.10794 0.90403-0.90403
   4  -4   119911.51 1258.58   1-0.34720 0.79205-0.93778 0.60562-0.00372 0.07664
  -4   4  -117100.50 1015.70   1-0.18708-0.25784 0.41677-0.08415 0.88954-0.96251
  -4   4  -120136.96 1217.62   1-0.11764-0.32692 0.50203-0.16955 0.85680-0.92971
   4  -4   277882.67 1885.51   1-0.34511 0.79192-0.93855 0.59249-0.00182 0.14766
  -4   4  -269515.62 1553.06   1-0.56853 0.12180-0.51196 0.85858-0.64393 0.49799
  -4   4  -279319.53 1779.67   1-0.40204-0.04481 0.33307 0.01345 0.85289-0.99890
  -4   4  -281890.60 1928.90   1-0.20167-0.24486 0.56768-0.22126 0.79815-0.94397
   4  -4   3 2960.00  506.19   1-0.33630 0.78506-0.94173 0.58177 0.00613 0.21261
  -4   4  -3 3267.25  260.29   1-0.61711 0.16813 0.21685 0.14369 0.75640-0.97523
  -4   4  -3 2870.94  282.53   1-0.27908-0.16943 0.62250-0.26216 0.73116-0.95003
   4  -4   478472.17 2586.29   1-0.32233 0.77306-0.94644 0.57257 0.01867 0.27300
  -4   4  -470785.81 2171.89   1-0.79733 0.34660 0.07886 0.29559 0.59835-0.89021
  -4   4  -472214.79 2305.89   1-0.34850-0.10197 0.66644-0.29220 0.65908-0.95090
  -4   4  -547378.92  841.10   1-0.91484 0.46224-0.06217 0.45048 0.39899-0.76380
  -4   4  -550019.99 1075.88   1-0.40989-0.04254 0.70045-0.31230 0.58424-0.94903
   4  -4   636899.95 1372.91   1-0.28258 0.73722-0.95773 0.55607 0.05373 0.38377
   4  -4   771692.04 2557.44   1-0.25797 0.71445-0.96323 0.54762 0.07500 0.43549
  -4   4  -764624.37 2313.51   1-0.51036 0.05420 0.74322-0.32725 0.43259-0.94338
   4  -4   8 4487.08  724.61   1-0.23051 0.68894-0.96808 0.53858 0.09838 0.48505
  -4   4  -8 3560.48  633.41   1-0.55059 0.09220 0.75428-0.32432 0.35763-0.94143
   4  -4   955049.39 2953.45   1-0.20047 0.66087-0.97188 0.52849 0.12350 0.53285
  -4   4  -950867.81 2985.41   1-0.58521 0.12489 0.75958-0.31574 0.28380-0.94058
  -4   3  1117225.33 1102.77   1 0.49171-0.89512 0.51910-0.43364 0.69910 0.10345
  -4   3  1116608.20 1020.44   1 0.54306-0.94625-0.23747 0.32339 0.80541-0.00393
  -4   3  1022973.78 1009.67   1 0.53625-0.94140-0.22673 0.32655 0.81303-0.08441
   4  -3  -9 3473.20  611.52   1-0.50649 0.91411-0.51760 0.40411-0.68959 0.03288
  -4   3   878896.55 2570.82   1 0.50592-0.91497-0.18042 0.30806 0.84349-0.26060
  -4   3   716922.98  958.37   1 0.47948-0.89049-0.14183 0.28337 0.86601-0.35597
  -4   3   647049.73 1158.56   1 0.47786-0.89106 0.51975-0.36454 0.70816-0.27040
  -4   3   649508.08 1200.84   1 0.44293-0.85578-0.09104 0.24641 0.89191-0.45487
  -4   3   585710.48 1990.76   1 0.39406-0.80889-0.02621 0.19549 0.91870-0.55450
   4  -3  -434745.46  613.38   1 0.77734-0.36051-0.03022-0.15293 0.62834-0.92012
  -4   3   435422.35  827.76   1 0.40396-0.82108 0.52087-0.33775 0.75199-0.46015
  -4   3   436977.96  824.13   1 0.33113-0.74793 0.05242 0.13077 0.94212-0.65076
   4  -3  -376156.78 1526.44   1 0.76535-0.34660 0.42390-0.62088 0.48429-0.70310
   4  -3  -378585.39 1577.45   1 0.01473 0.40418-0.95662 0.75947 0.29093-0.50974
  -4   3   382819.79 1780.17   1 0.34050-0.75958 0.51889-0.32182 0.78409-0.56521
  -4   3   380705.64 1714.30   1 0.25368-0.67252 0.14251 0.05454 0.95672-0.73806
   4  -3  -2 9201.70  567.69   1 0.71480-0.29416 0.57153-0.78247 0.40299-0.54880
   4  -3  -211125.22  499.60   1-0.14042 0.56134-0.97496 0.76393 0.17241-0.31827
  -4   3   210908.58  566.25   1 0.25256-0.67354 0.51210-0.30100 0.82095-0.67508
  -4   3   210001.10  509.46   1 0.16352-0.58430 0.24049-0.02948 0.95677-0.81099
   4  -3  -142625.97 1908.72   1 0.68006-0.25752 0.64160-0.86647 0.35476-0.42766
   4  -3  -145377.82 1006.11   1-0.21963 0.64251-0.96963 0.74471 0.10753-0.18046
  -4   3   146663.43 1043.46   1 0.13428-0.55723 0.49619-0.27116 0.85776-0.78482
  -4   3   143718.59 1009.83   1 0.06490-0.48764 0.33947-0.11454 0.93837-0.86549
   4  -3   0 2455.18  235.03   1-0.26149 0.68633-0.96251 0.72371 0.07198-0.07198
  -4   3   0 2381.23  225.26   1-0.01815-0.40682 0.46505-0.22604 0.88509-0.88509
  -4   3   0 2847.64  246.78   1-0.03609-0.38858 0.43275-0.19386 0.90078-0.90078
   4  -3   146111.52 1106.96   1-0.28175 0.70862-0.95793 0.70534 0.05445 0.01846
  -4   3  -143186.86  957.59   1-0.20266-0.22430 0.41158-0.15862 0.88855-0.96152
  -4   3  -146494.67 1054.62   1-0.13384-0.29281 0.51516-0.26231 0.84657-0.91948
   4  -3   225500.63 1227.28   1-0.28868 0.71750-0.95620 0.68970 0.04841 0.09742
  -4   3  -224935.60 1149.23   1-0.40621-0.02270 0.33116-0.06431 0.85165-0.99767
   4  -3   224937.86 1129.82   1 0.38726 0.04160 0.52060-0.78743 0.76091-0.61499
  -4   3  -224722.45 1167.41   1-0.22400-0.20462 0.58407-0.31729 0.78017-0.92598
   4  -3   3 6515.67  626.59   1-0.28626 0.71704-0.95681 0.67642 0.05052 0.16822
  -4   3  -3 7506.25  485.24   1-0.60406 0.17305 0.22506 0.05581 0.76449-0.98333
   4  -3   3 6544.26  422.76   1 0.28844 0.14237 0.51541-0.79619 0.80693-0.58805
  -4   3  -3 7487.51  536.45   1-0.30459-0.12601 0.63926-0.35858 0.70608-0.92495
   4  -3   4 1804.65  446.36   1-0.27700 0.70974-0.95908 0.66478 0.05858 0.23308
  -4   3  -4  771.52  143.99   1-0.76927 0.33648 0.10426 0.19052 0.63035-0.92221
   4  -3   4  622.38  110.17   1 0.19146 0.24137 0.50481-0.79953 0.84172-0.54998
  -4   3  -4  530.79  338.63   1-0.37478-0.05777 0.68161-0.38702 0.62843-0.92025
   4  -3   5 4142.87  415.18   1-0.26252 0.69715-0.96230 0.65406 0.07109 0.29354
  -4   3  -5 3934.78  260.51   1-0.88399 0.44932-0.01672 0.32536 0.46720-0.83201
   4  -3   5 3662.94  232.64   1 0.10245 0.33236 0.49066-0.79930 0.86530-0.50063
  -4   3  -5 3678.30  501.28   1-0.43536 0.00100 0.71291-0.40440 0.54973-0.91457
   4  -3   6 1306.25  569.37   1-0.24368 0.68027-0.96592 0.64380 0.08722 0.35035
  -4   3  -6  628.31  196.89   1-0.94705 0.51062-0.12694 0.44963 0.29490-0.73286
  -4   3  -6  892.27  285.38   1-0.48709 0.05078 0.73502-0.41261 0.47167-0.90949
   4  -3   770937.74 2254.92   1-0.22124 0.65978-0.96942 0.63341 0.10618 0.40431
  -4   3  -765183.30 1978.35   1-0.96672 0.52837-0.22053 0.55715 0.12966-0.64061
  -4   3  -768604.25 2138.88   1-0.53118 0.09291 0.74948-0.41316 0.39511-0.90590
   4  -3   8 4330.15  467.95   1-0.19564 0.63614-0.97235 0.62245 0.12750 0.45592
   4  -3   911201.75  731.92   1-0.16719 0.60965-0.97431 0.61053 0.15082 0.50553
  -4   3  -9 7899.44 1189.19   1-0.60045 0.15808 0.76033-0.39618 0.24767-0.90445
  -4   2  11 9728.16  668.65   1 0.46764-0.85307 0.52014-0.51433 0.71466 0.08789
  -4   2  11 9656.66  656.99   1 0.57128-0.95655-0.28356 0.28985 0.77021 0.03126
  -4   2  1047972.19 2328.46   1 0.56672-0.95395-0.27593 0.29613 0.77632-0.04770
  -4   2   915360.25  807.51   1 0.48341-0.87275 0.51951-0.48579 0.70456-0.04792
  -4   2   916369.67  706.89   1 0.55724-0.94642-0.26028 0.29439 0.78850-0.13274
  -4   2   875316.55 1550.51   1 0.48187-0.87318 0.51958-0.47191 0.70556-0.12188
  -4   2   877940.33 1502.34   1 0.54141-0.93254-0.23484 0.28285 0.80729-0.22439
  -4   2   777564.46 1411.59   1 0.47251-0.86577 0.51997-0.45834 0.71158-0.20086
  -4   2   778553.61 1322.65   1 0.51718-0.91027-0.19734 0.25926 0.83280-0.32277
  -4   2   624482.94 1505.20   1 0.45354-0.84876 0.52055-0.44498 0.72340-0.28564
  -4   2   625359.93 1497.93   1 0.48179-0.87683-0.14514 0.22096 0.86417-0.42700
  -4   2   5314369.0 5555.95   1 0.42246-0.81963 0.52095-0.43143 0.74170-0.37690
  -4   2   5326077.018336.22   1 0.43184-0.82875-0.07601 0.16567 0.89873-0.53453
   4  -2  -412677.30  491.14   1 0.74824-0.34932-0.16146 0.05781 0.64347-0.93521
  -4   2   415709.69  728.90   1 0.37588-0.77502 0.52031-0.41684 0.76679-0.47495
  -4   2   415432.05  707.46   1 0.36406-0.76294 0.01190 0.09167 0.93129-0.63993
   4  -2  -3367598.715977.65   1 0.65302-0.25225 0.68638-0.80379 0.32006-0.53878
   4  -2  -3381112.216561.48   1 0.29468 0.10615-0.82831 0.71081 0.47650-0.69531
  -4   2   3388339.716923.73   1 0.30943-0.71052 0.51701-0.39958 0.79809-0.57920
  -4   2   3386852.716843.33   1 0.27694-0.67785 0.11600 0.00143 0.95385-0.73519
   4  -2  -2196324.5 2961.50   1 0.05749 0.34544-0.94508 0.81364 0.32173-0.46760
  -4   2   2193058.4 2931.38   1-0.58937 0.18642-0.76957 0.90105-0.24574 0.39159
  -4   2   2201650.8 3123.10   1 0.21798-0.62099 0.50822-0.37678 0.83317-0.68731
  -4   2   2199747.4 3075.28   1 0.17258-0.57544 0.23097-0.09960 0.95753-0.81175
   4  -2  -170699.25 1164.80   1-0.07294 0.47789-0.97154 0.82622 0.22534-0.29827
  -4   2   168396.64 2678.96   1-0.56079 0.15588-0.79979 0.94516-0.21406 0.28699
  -4   2   170259.75 1188.77   1 0.09665-0.50164 0.48959-0.34421 0.86657-0.79364
  -4   2   169266.36 1175.65   1 0.05780-0.46263 0.34629-0.20099 0.93634-0.86346
   4  -2   0102840.4 1657.75   1-0.14683 0.55374-0.97491 0.81571 0.16727-0.16727
  -4   2   0101798.0 1639.39   1-0.05642-0.35059 0.45539-0.29605 0.88850-0.88850
  -4   2   0105142.9 1708.19   1-0.05772-0.34904 0.45166-0.29240 0.89031-0.89031
   4  -2   1 2020.94  228.68   1-0.18817 0.59704-0.97299 0.79990 0.13366-0.06073
  -4   2  -1 1515.50  168.93   1-0.23627-0.17274 0.39992-0.22663 0.88557-0.95853
   4  -2   1 1782.22  160.30   1 0.32606 0.08286 0.51809-0.69132 0.79073-0.71777
  -4   2  -1 2325.73  260.43   1-0.16573-0.24300 0.54035-0.36714 0.82495-0.89786
   4  -2   2172396.9 3524.68   1-0.20929 0.62011-0.97092 0.78395 0.11618 0.02967
  -4   2  -2171167.1 3418.00   1-0.42800 0.01705 0.32101-0.13382 0.84484-0.99085
  -4   2  -2164123.1 3310.43   1-0.26139-0.14934 0.61047-0.42335 0.74765-0.89357
   4  -2   3 1239.34  484.67   1-0.21695 0.62973-0.96998 0.76912 0.10978 0.10900
  -4   2  -3  405.86  206.25   1-0.60880 0.19576 0.22210-0.02089 0.76159-0.98042
   4  -2   3  719.92  152.24   1 0.09165 0.32124 0.48866-0.68978 0.86764-0.64884
  -4   2  -3  559.89  251.16   1-0.34306-0.06963 0.66320-0.46216 0.66518-0.88405
  -4   2  -4 1031.95  165.39   1-0.75847 0.34362 0.11354 0.10156 0.64173-0.93359
  -4   2  -4 1862.91  274.09   1-0.41168-0.00297 0.70137-0.48643 0.58188-0.87371
   4  -2   5 8292.83  693.26   1-0.20621 0.62290-0.97127 0.74264 0.11874 0.24590
  -4   2  -5 6701.90  409.21   1-0.86562 0.44888 0.00653 0.22244 0.50064-0.86545
  -4   2  -5 6521.91  838.88   1-0.46908 0.05261 0.72788-0.49904 0.50013-0.86497
   4  -2   6  923.72  302.78   1-0.19180 0.61045-0.97269 0.73017 0.13067 0.30689
  -4   2  -6  611.84  189.42   1-0.93102 0.51229-0.09124 0.33415 0.35335-0.79113
  -4   2  -6  509.47  305.18   1-0.51690 0.09847 0.74531-0.50255 0.42110-0.85891
   4  -2   7 1005.25  327.36   1-0.17291 0.59352-0.97403 0.71762 0.14616 0.36433
  -4   2  -7  520.17  128.97   1-0.96172 0.54133-0.17673 0.43365 0.20939-0.72034
  -4   2  -7 1570.95  403.48   1-0.55684 0.13627 0.75555-0.49889 0.34504-0.85587
   4  -2   8 6719.77  614.37   1-0.15023 0.57280-0.97486 0.70456 0.16453 0.41889
  -4   2  -8 8192.89  601.31   1-0.96555 0.54307-0.24899 0.51997 0.07554-0.65931
  -4   2  -8 7857.40 1114.62   1-0.59034 0.16784 0.75996-0.48940 0.27194-0.85574
   4  -2   9 1618.88  420.11   1-0.12424 0.54876-0.97479 0.69061 0.18529 0.47106
  -4   2  -9  704.03  210.70   1-0.94958 0.52516-0.30981 0.59474-0.04806-0.60867
  -4   2 -1011145.73 1461.73   1-0.64180 0.21544 0.75519-0.45684 0.13329-0.86305
  -4   1  11 1724.34  345.10   1 0.43366-0.80111 0.52089-0.59471 0.73525 0.06730
  -4   1  11 2599.82  388.20   1 0.59707-0.96453-0.32786 0.25453 0.73213 0.06983
  -4   1  10  349.71  303.21   1 0.44477-0.81417 0.52074-0.58061 0.72869 0.00090
  -4   1  10 1029.70  485.24   1 0.59492-0.96433-0.32402 0.26460 0.73557-0.00651
  -4   1   926025.83  982.58   1 0.44975-0.82111 0.52064-0.56656 0.72570-0.06906
  -4   1   926083.99  944.77   1 0.58823-0.95958-0.31219 0.26667 0.74599-0.08984
  -4   1   821657.84  687.60   1 0.44768-0.82100 0.52068-0.55265 0.72695-0.14327
  -4   1   823620.78  628.01   1 0.57551-0.94880-0.29024 0.25864 0.76455-0.18130
  -4   1   748207.77 1058.66   1 0.43720-0.81248 0.52085-0.53887 0.73318-0.22246
  -4   1   748577.65  891.32   1 0.55428-0.92945-0.25547 0.23776 0.79215-0.28211
  -4   1   662464.32 1551.26   1 0.41641-0.79365 0.52095-0.52502 0.74511-0.30735
  -4   1   664714.85 1513.41   1 0.52105-0.89817-0.20323 0.19942 0.82897-0.39180
  -4   1   5172964.1 3149.68   1 0.38269-0.76188 0.52050-0.51061 0.76329-0.39849
  -4   1   5171853.8 3059.17   1 0.47064-0.84971-0.12923 0.13933 0.87280-0.50849
   4  -1  -455916.84 1109.50   1 0.78091-0.39997-0.00764-0.01626 0.62459-0.91638
  -4   1   454798.46 1095.51   1-0.40220 0.02108-0.91391 0.93787-0.05464 0.34632
  -4   1   459145.20 1334.60   1 0.33255-0.71371 0.51846-0.49463 0.78777-0.49593
  -4   1   456975.82 1224.38   1 0.39704-0.77799-0.03005 0.05401 0.91730-0.62594
   4  -1  -450556.42 1066.61   1 0.67990-0.29881-0.50342 0.47952 0.53319-0.82508
   4  -1  -3193536.0 2890.24   1 0.54243-0.15949-0.58494 0.54701 0.60299-0.82179
  -4   1   3205794.2 3210.57   1 0.26171-0.64482 0.51301-0.47522 0.81750-0.59862
  -4   1   3199108.2 3041.64   1 0.29605-0.67898 0.09422-0.05635 0.95051-0.73198
   4  -1  -3186944.6 2838.04   1 0.61741-0.23441-0.36553 0.32760 0.69655-0.91527
   4  -1  -2178589.8 2695.14   1 0.29177 0.09310-0.83033 0.77854 0.47477-0.62064
  -4   1   2169627.2 2589.30   1-0.35271-0.03231-0.93568 0.98745-0.00874 0.15457
  -4   1   2176128.5 2697.21   1 0.17036-0.55530 0.23331-0.18156 0.95736-0.81158
   4  -1  -2168086.8 2559.98   1 0.51404-0.12911-0.19259 0.14077 0.83586-0.98158
   4  -1  -112770.01  485.83   1 0.11750 0.26945-0.92413 0.85841 0.36355-0.43648
  -4   1   113095.35  512.07   1-0.36793-0.01904-0.92957 0.99523-0.02269 0.09561
  -4   1   112656.25  544.45   1 0.04058-0.42760 0.47842-0.41270 0.87718-0.80425
  -4   1   112633.40  488.58   1 0.03187-0.41878 0.37086-0.30519 0.92813-0.85526
   4  -1  -112436.45  470.21   1 0.37894 0.00793-0.00685-0.05885 0.92539-0.99823
   4  -1   0669814.625730.39   1 0.00643 0.38246-0.95854 0.87896 0.28486-0.28486
  -4   1   0594366.122844.17   1-0.39070 0.00175-0.91947 0.99903-0.04383 0.04383
  -4   1   0630553.324231.29   1-0.11261-0.27644 0.43985-0.36019 0.89097-0.89097
  -4   1   0668908.125696.79   1-0.10233-0.28650 0.48943-0.40980 0.86601-0.86601
   4  -1   0611429.223485.15   1 0.23584 0.15298 0.16249-0.24212 0.95810-0.95810
   4  -1   1 1810.37  234.71   1-0.06217 0.45302-0.97037 0.87691 0.23348-0.16054
  -4   1  -1 1700.88  185.15   1-0.41723 0.02633-0.90617 0.99964-0.06892-0.00399
  -4   1  -1 1580.28  204.38   1-0.28628-0.10473 0.38158-0.28799 0.87888-0.95188
   4  -1   1 1762.59  145.68   1 0.17592 0.21505 0.50264-0.59623 0.84640-0.77346
  -4   1  -1 1722.72  185.03   1-0.22031-0.17050 0.58140-0.48782 0.78322-0.85612
   4  -1   241010.01 1483.63   1-0.10298 0.49587-0.97394 0.86657 0.20203-0.05617
  -4   1  -238818.13 1371.63   1-0.46449 0.07149 0.30326-0.19575 0.83202-0.97804
   4  -1   233751.34 1188.94   1 0.04396 0.34899 0.47914-0.58667 0.87663-0.73076
  -4   1  -237130.60 1319.12   1-0.31808-0.07475 0.64784-0.54037 0.69218-0.83809
   4  -1   3176802.4 3608.88   1-0.12503 0.51988-0.97481 0.85355 0.18466 0.03412
  -4   1  -3171516.2 3432.59   1-0.62745 0.23238 0.21021-0.08868 0.74973-0.96857
  -4   1  -3175613.9 3531.27   1-0.39677 0.00198 0.69362-0.57224 0.60121-0.82008
   4  -1   460611.67 1438.05   1-0.13395 0.53076-0.97494 0.83980 0.17757 0.11413
  -4   1  -459693.63 1273.64   1-0.76088 0.36397 0.11149 0.02393 0.63924-0.93110
  -4   1  -458891.78 1305.73   1-0.46001 0.06339 0.72405-0.58877 0.51392-0.80580
   4  -1   5113528.1 2645.32   1-0.13328 0.53205-0.97494 0.82590 0.17810 0.18653
  -4   1  -5141326.6 3115.25   1-0.85800 0.45919 0.01558 0.13372 0.51340-0.87821
  -4   1  -5148095.2 3320.21   1-0.51096 0.11238 0.74342-0.59423 0.43155-0.79639
   4  -1   6 4213.00  384.97   1-0.12533 0.52605-0.97482 0.81190 0.18443 0.25314
  -4   1  -6 4989.97  357.72   1-0.92080 0.52000-0.07230 0.23554 0.38327-0.82104
  -4   1  -6 5512.17  636.83   1-0.55243 0.15174 0.75466-0.59160 0.35396-0.79182
   4  -1   766374.69 2196.27   1-0.11162 0.51429-0.97437 0.79757 0.19526 0.31524
  -4   1  -765822.03 2070.02   1-0.95507 0.55262-0.15031 0.32755 0.25541-0.76636
  -4   1  -766494.80 2174.62   1-0.58655 0.18393 0.75969-0.58273 0.28073-0.79157
   4  -1   8 7804.32  439.19   1-0.09317 0.49781-0.97331 0.78262 0.20969 0.37373
  -4   1  -8 7671.14  338.84   1-0.96664 0.56227-0.21779 0.40896 0.13479-0.71874
  -4   1  -8 7384.66  744.23   1-0.61477 0.21022 0.75990-0.56905 0.21116-0.79497
   4  -1   9 8450.55  771.10   1-0.07071 0.47730-0.97130 0.76673 0.22706 0.42930
  -4   1  -9 6844.53  519.11   1-0.96093 0.55446-0.27586 0.48110 0.02231-0.67905
  -4   1  -9 6494.48  757.67   1-0.63816 0.23169 0.75619-0.55144 0.14460-0.80139
   4  -1  10 5769.62  679.63   1-0.04449 0.45290-0.96801 0.74976 0.24692 0.48242
  -4   1 -10 4189.16  445.25   1-0.94174 0.53333-0.32594 0.54513-0.08288-0.64682
  -4   0  1117434.84  914.84   1 0.38799-0.73745 0.52062-0.67408 0.76053 0.04202
  -4   0  1117141.10  860.89   1 0.62014-0.96969-0.37079 0.21782 0.69132 0.11064
  -4   0  10 2000.27  381.67   1 0.39913-0.75055 0.52081-0.66033 0.75461-0.02500
  -4   0  10 2159.95  306.82   1 0.62041-0.97190-0.37131 0.23224 0.69080 0.03825
  -4   0   915349.15  679.47   1 0.40358-0.75696 0.52087-0.64643 0.75220-0.09556
  -4   0   917294.59  682.17   1 0.61669-0.97012-0.36415 0.23899 0.69791-0.04175
  -4   0   8 6619.18  272.93   1-0.27589-0.07940-0.95934 0.84813 0.05954 0.52379
  -4   0   8 7479.16  623.93   1 0.40031-0.75565 0.52083-0.63244 0.75397-0.17029
  -4   0   8 7373.58  443.09   1 0.60754-0.96291-0.34696 0.23571 0.71449-0.13124
  -4   0   7 9598.16  455.54   1 0.42190-0.77921-0.72291 0.62569 0.54715-0.03658
  -4   0   710421.20  497.91   1-0.43451 0.07725-0.89659 0.79928-0.08553 0.59596
  -4   0   712098.07  720.92   1 0.38788-0.74518 0.52062-0.61827 0.76059-0.24986
  -4   0   7 9430.59  520.38   1 0.59042-0.94773-0.31604 0.21869 0.74263-0.23229
  -4   0   693912.77 2039.30   1 0.34251-0.70178-0.79270 0.70926 0.50428-0.06666
  -4   0   6102704.7 2384.55   1 0.36425-0.72350 0.51993-0.60364 0.77264-0.33488
  -4   0   6104783.3 2355.21   1 0.56075-0.91994-0.26603 0.18260 0.78408-0.34691
   4   0  -5  733.18   95.86   1 0.75704-0.39617 0.45542-0.38585 0.46846-0.83316
  -4   0   5 1167.71   93.18   1 0.24478-0.60598-0.86082 0.79129 0.44616-0.08147
  -4   0   5  847.13  210.35   1 0.32669-0.68790 0.51812-0.58788 0.79045-0.42564
  -4   0   5  481.21  218.79   1 0.51116-0.87231-0.18826 0.11873 0.83861-0.47430
   4   0  -443370.56  885.67   1 0.78820-0.42522 0.05102 0.00469 0.61329-0.90507
  -4   0   444869.90 1064.59   1 0.27172-0.63489 0.51396-0.56976 0.81363-0.52179
  -4   0   442875.93  925.57   1 0.43060-0.79363-0.07433 0.01867 0.89947-0.60811
   4   0  -440692.93 1803.72   1 0.70523-0.34209-0.59424 0.65002 0.38666-0.67855
   4   0  -348355.85 1644.17   1 0.67706-0.31205-0.35672 0.39841 0.64368-0.86248
  -4   0   345443.76 1552.68   1 0.04510-0.41022-0.94871 0.90711 0.31289-0.09408
  -4   0   347950.63 1688.78   1 0.19534-0.56044 0.50534-0.54714 0.84051-0.62171
  -4   0   349265.07 1689.17   1 0.30808-0.67309 0.08004-0.12178 0.94798-0.72946
   4   0  -346884.39 1600.96   1 0.66022-0.29515-0.45559 0.49731 0.59710-0.81582
   4   0  -2363394.9 5405.91   1 0.49382-0.12686-0.64597 0.67375 0.58210-0.72798
  -4   0   2353227.6 5273.63   1-0.04141-0.32565-0.96755 0.93982 0.24925-0.10338
  -4   0   2351391.4 5308.48   1 0.09387-0.46095 0.48908-0.51695 0.86717-0.72130
  -4   0   2365241.8 5444.27   1 0.14609-0.51312 0.25859-0.28647 0.95487-0.80909
   4   0  -2354117.8 5269.08   1 0.54918-0.18217-0.24724 0.27505 0.79828-0.94401
   4   0  -124593.83  866.78   1 0.31957 0.04934-0.81034 0.82425 0.49113-0.56406
  -4   0   123193.01  818.48   1-0.11770-0.25137-0.97461 0.96072 0.19047-0.11754
  -4   0   124185.24  897.50   1-0.03417-0.33494 0.46109-0.47504 0.88669-0.81372
  -4   0   124526.86  864.76   1-0.02961-0.33937 0.42701-0.44097 0.90375-0.83088
   4   0  -122544.18  779.82   1 0.37501-0.00606-0.00187 0.01578 0.92701-0.99985
   4   0   0384971.2 3705.48   1 0.18542 0.18542-0.89377 0.89377 0.40839-0.40839
  -4   0   0376330.5 3647.54   1-0.18552-0.18552-0.97320 0.97320 0.13585-0.13585
   4   0   0367607.7 3506.37   1 0.18545 0.18545 0.21733-0.21733 0.95831-0.95831
   4   0   1646041.0 6148.16   1 0.09152 0.28139-0.93388 0.92002 0.34564-0.27271
  -4   0  -1611863.3 5834.74   1-0.35022-0.02284 0.35581-0.34189 0.86645-0.93946
  -4   0  -1631008.6 5968.21   1-0.30750-0.06545 0.64113-0.62722 0.70312-0.77608
   4   0   1603368.6 5702.15   1 0.02682 0.34605 0.37559-0.38955 0.92639-0.85351
   4   0   2198008.1 3067.48   1 0.02907 0.34579-0.95306 0.92533 0.30135-0.15548
  -4   0  -2189566.7 2921.11   1-0.51228 0.13717 0.27808-0.25018 0.81254-0.95843
  -4   0  -2194423.6 2980.51   1-0.39848 0.02356 0.69452-0.66671 0.59903-0.74494
  -4   0  -3267550.3 4075.98   1-0.65662 0.27952 0.19082-0.14896 0.72967-0.94851
  -4   0  -3265844.1 4054.50   1-0.46660 0.08982 0.72685-0.68513 0.50394-0.72285
   4   0   458098.14 1330.30   1-0.03270 0.41148-0.96617 0.91070 0.25580 0.03593
  -4   0  -457928.96 1249.21   1-0.77327 0.39431 0.10075-0.04500 0.62601-0.91787
  -4   0  -458710.75 2170.29   1-0.51859 0.13985 0.74583-0.69021 0.41808-0.70996
   4   0   5264856.4 4741.96   1-0.04271 0.42343-0.96774 0.89841 0.24827 0.11640
  -4   0  -5271791.6 4757.10   1-0.85902 0.47813 0.01439 0.05525 0.51173-0.87654
  -4   0  -5273084.4 4828.26   1-0.55933 0.17853 0.75603-0.68655 0.33993-0.70481
   4   0   6118469.1 2759.85   1-0.04326 0.42593-0.96783 0.88463 0.24785 0.18975
  -4   0  -6115233.5 2577.75   1-0.91645 0.53358-0.06485 0.14843 0.39484-0.83261
  -4   0  -6115005.9 2794.73   1-0.59199 0.20925 0.76005-0.67669 0.26804-0.70590
   4   0   761873.91 1246.55   1-0.03642 0.42104-0.96677 0.86971 0.25301 0.25752
  -4   0  -762338.16 1076.88   1-0.95038 0.56588-0.13598 0.23352 0.27976-0.79072
  -4   0  -764057.93 1251.96   1-0.61859 0.23392 0.75958-0.66231 0.20093-0.71176
   4   0   853737.66 1854.11   1-0.02362 0.41020-0.96461 0.85368 0.26260 0.32087
  -4   0  -852775.63 1751.53   1-0.96518 0.57876-0.19849 0.30997 0.17033-0.75428
  -4   0  -852061.16 3336.34   1-0.64046 0.25386 0.75557-0.64441 0.13749-0.72130
   4   0   911305.29  826.09   1-0.00588 0.39440-0.96119 0.83640 0.27579 0.38062
  -4   0  -910344.13  672.29   1-0.96505 0.57652-0.25326 0.37881 0.06722-0.72396
  -4   0  -9 8629.75  854.98   1-0.65858 0.26995 0.74857-0.62359 0.07683-0.73366
   4   0  1086428.35 6817.38   1 0.01611 0.37435-0.95630 0.81763 0.29194 0.43740
  -4   0 -1080039.54 2926.10   1-0.95300 0.56253-0.30142 0.44092-0.03032-0.69938
  -4   0 -1084776.53 6742.57   1-0.67339 0.28281 0.73905-0.60018 0.01838-0.74819
   4   0  11  479.39  318.89   1 0.04188 0.35053-0.94962 0.79709 0.31058 0.49169
  -4   0 -11  -71.20  172.16   1-0.93107 0.53884-0.34369 0.49724-0.12238-0.67999
  -4   0 -11 1025.26  622.29   1-0.68536 0.29283 0.72718-0.57443-0.03841-0.76437
  -4  -1  11  578.07  368.41   1 0.32831-0.65980 0.51822-0.75133 0.78971 0.01285
  -4  -1  11  731.68  319.86   1 0.64027-0.97190-0.41130 0.17868 0.64874 0.15321
  -4  -1  1014528.01  869.95   1 0.33912-0.67256 0.51882-0.73797 0.78473-0.05513
  -4  -1  1014699.64  821.30   1 0.64282-0.97639-0.41670 0.19799 0.64274 0.08630
  -4  -1   9 1443.95  445.39   1 0.34248-0.67788 0.51899-0.72419 0.78316-0.12651
  -4  -1   9  330.48  247.38   1 0.64206-0.97757-0.41508 0.21027 0.64456 0.01158
  -4  -1   8  294.62  133.81   1-0.49650 0.15933-0.85560 0.66487-0.14635 0.72976
  -4  -1   8  479.68  311.45   1 0.33730-0.67465 0.51872-0.70997 0.78558-0.20190
  -4  -1   8  363.15  210.82   1 0.63680-0.97425-0.40406 0.21316 0.65666-0.07342
  -4  -1   710085.32  500.08   1 0.59987-0.93930-0.50052 0.32369 0.62419-0.11366
  -4  -1   712401.53  610.87   1-0.60512 0.26598-0.75118 0.57433-0.26372 0.77420
  -4  -1   713316.81  788.38   1 0.32200-0.66131 0.51784-0.69514 0.79255-0.28183
  -4  -1   713083.84  682.31   1 0.62463-0.96402-0.37954 0.20254 0.68248-0.17214
   4   1  -6  746.58   99.62   1 0.70503-0.36384 0.59301-0.42983 0.38891-0.82635
  -4  -1   6  505.41   83.31   1 0.55956-0.90092-0.56131 0.39836 0.60976-0.17216
  -4  -1   6 1176.68  403.36   1 0.29446-0.63573 0.51590-0.67924 0.80444-0.36668
  -4  -1   6  701.36  107.55   1-0.62787 0.28624 0.75836-0.92142 0.17511 0.26274
  -4  -1   6 1011.33  204.98   1 0.60060-0.94193-0.33423 0.17115 0.72633-0.28889
   4   1  -5 7763.07  597.10   1 0.77657-0.43367 0.37218-0.22303 0.50833-0.87302
  -4  -1   5 6933.46  348.25   1 0.50095-0.84422-0.63752 0.48846 0.58532-0.22063
  -4  -1   5 8138.50  481.50   1 0.25195-0.59513 0.51204-0.66137 0.82117-0.45651
  -4  -1   5 7673.16  573.42   1-0.66485 0.32143 0.74507-0.89419 0.05330 0.31160
  -4  -1   5 8222.34  432.49   1 0.55438-0.89761-0.25563 0.10648 0.79202-0.42771
   4   1  -431531.17 1310.45   1 0.79241-0.44746 0.09943 0.03581 0.60182-0.89358
  -4  -1   427790.24 1103.38   1 0.42321-0.76842-0.72164 0.58647 0.54783-0.25607
  -4  -1   432455.32 1361.11   1 0.19110-0.53625 0.50476-0.64016 0.84183-0.55010
  -4  -1   431242.32 1236.02   1 0.46578-0.81096-0.12238-0.01285 0.87639-0.58494
   4   1  -3 1901.74  141.29   1 0.73860-0.39149-0.19457 0.31589 0.64545-0.86425
  -4  -1   3 1777.37  142.50   1 0.33002-0.67720-0.80244 0.68111 0.49716-0.27834
  -4  -1   3 2427.39  297.96   1 0.10867-0.45581 0.49178-0.61324 0.86390-0.64510
  -4  -1   3 2209.28  140.69   1 0.30425-0.65133 0.08457-0.20594 0.94882-0.73030
   4   1  -3 1830.41  119.23   1 0.70655-0.35935-0.60591 0.72747 0.36557-0.58451
   4   1  -2  930.90  122.46   1 0.62613-0.27710-0.45630 0.56368 0.63225-0.77812
  -4  -1   2 1342.59  105.03   1 0.22845-0.57755-0.87049 0.76307 0.43594-0.29007
  -4  -1   2  540.98  322.06   1 0.00249-0.35165 0.46996-0.57752 0.88268-0.73675
  -4  -1   2  590.45   87.37   1 0.06612-0.41525 0.33829-0.44584 0.93871-0.79295
   4   1  -2  400.53   60.44   1 0.62365-0.27456-0.37762 0.48508 0.68443-0.83024
   4   1  -1185918.1 1851.88   1 0.48950-0.13850-0.65103 0.74452 0.58012-0.65306
  -4  -1   1174492.7 1753.60   1 0.12625-0.47733-0.92060 0.82715 0.36951-0.29658
  -4  -1   1180489.5 1863.88   1-0.12663-0.22452 0.43573-0.52934 0.89112-0.81815
  -4  -1   1184368.6 1783.94   1-0.16966-0.18137 0.54339-0.63697 0.82215-0.74924
   4   1  -1184031.9 1771.42   1 0.39285-0.04182-0.02465 0.11818 0.91926-0.99210
   4   1   0 5875.95  308.88   1 0.36089-0.00796-0.77785 0.85745 0.51448-0.51448
  -4  -1   0 6834.12  315.93   1 0.02934-0.38238-0.95299 0.87341 0.30155-0.30155
  -4  -1   0 6440.05  270.03   1-0.33388-0.01920 0.65764-0.73730 0.67529-0.67529
   4   1   0 6229.74  254.28   1 0.12147 0.23151 0.28371-0.20408 0.95118-0.95118
  -4  -1  -2101511.3 1610.27   1-0.50222 0.14528 0.74049-0.79234 0.44658-0.59251
   4   1   293482.21 1472.59   1-0.19726 0.55421 0.56439-0.51264 0.80158-0.65577
   4   1   3305134.7 4668.01   1 0.12217 0.23670-0.92226 0.96025 0.36674-0.14793
  -4  -1  -3310502.6 4706.83   1-0.69333 0.33431 0.16480-0.20266 0.70151-0.92041
  -4  -1  -3304227.2 4616.75   1-0.54856 0.18967 0.75379-0.79173 0.36176-0.58066
   4   1   4246334.2 3820.00   1 0.08560 0.27523-0.93596 0.96008 0.34152-0.04978
  -4  -1  -4251418.1 3850.56   1-0.79285 0.43182 0.08306-0.10698 0.60372-0.89558
  -4  -1  -4262352.0 4050.35   1-0.58323 0.22230 0.75941-0.78353 0.28831-0.58022
   4   1   5 1037.99  176.92   1 0.06367 0.29911-0.94318 0.95343 0.32611 0.03856
  -4  -1  -5  701.69  152.08   1-0.86660 0.50365 0.00534-0.01535 0.49895-0.86376
  -4  -1  -5  451.91  181.36   1-0.61037 0.24751 0.76016-0.77039 0.22268-0.58756
   4   1   6256546.4 5652.73   1 0.05319 0.31154-0.94637 0.94275 0.31867 0.11893
  -4  -1  -6250473.8 5461.66   1-0.91717 0.55222-0.06606 0.06998 0.39297-0.83074
  -4  -1  -6279918.3 6170.68   1-0.63230 0.26751 0.75754-0.75387 0.16223-0.60009
   4   1   721590.18 1117.49   1 0.05177 0.31491-0.94679 0.92931 0.31765 0.19288
  -4  -1  -722091.83 1102.08   1-0.94848 0.58192-0.13072 0.14858 0.28860-0.79955
  -4  -1  -723293.21 1414.89   1-0.65043 0.28362 0.75221-0.73470 0.10539-0.61625
   4   1   891421.88 1769.32   1 0.05765 0.31098-0.94503 0.91369 0.32184 0.26163
  -4  -1  -891576.54 1683.25   1-0.96379 0.59532-0.18827 0.22006 0.18881-0.77276
  -4  -1  -891170.33 1782.06   1-0.66541 0.29665 0.74472-0.71331 0.05111-0.63495
   4   1   9 7623.72  705.53   1 0.06955 0.30102-0.94131 0.89610 0.33027 0.32614
  -4  -1  -9 7131.63  609.60   1-0.96635 0.59575-0.23940 0.28526 0.09405-0.75079
  -4  -1  -9 6415.00  890.65   1-0.67781 0.30711 0.73522-0.68993-0.00133-0.65549
   4   1  1023771.44 1284.52   1 0.08657 0.28596-0.93562 0.87655 0.34220 0.38714
  -4  -1 -1024340.78 1267.02   1-0.95849 0.58596-0.28507 0.34488 0.00356-0.73327
  -4  -1 -1023392.40 1265.97   1-0.68796 0.31530 0.72384-0.66467-0.05246-0.67734
   4   1  11 5291.26  578.16   1 0.10804 0.26644-0.92780 0.85486 0.35707 0.44521
  -4  -1 -11 3946.12  465.97   1-0.94180 0.56734-0.32583 0.39959-0.08264-0.72003
  -4  -2  1128427.81 1574.78   1 0.25199-0.56533 0.51204-0.82464 0.82116-0.01889
  -4  -2  1010396.31  775.19   1 0.26180-0.57726 0.51302-0.81181 0.81747-0.08787
  -4  -2  1010870.76  726.61   1 0.66225-0.97754-0.45867 0.15987 0.59248 0.13725
  -4  -2   938651.61 1042.23   1-0.49392 0.17671-0.85753 0.57329-0.14373 0.80006
  -4  -2   941011.42 1209.72   1 0.26351-0.58093 0.51319-0.79803 0.81681-0.16017
  -4  -2   942930.08 1186.28   1 0.66418-0.98146-0.46323 0.17838 0.58674 0.07001
  -4  -2   841886.58 1374.66   1-0.58172 0.26254-0.77804 0.50768-0.23715 0.82056
  -4  -2   840928.31 1429.79   1 0.25567-0.57504 0.51241-0.78330 0.81979-0.23610
  -4  -2   843003.02 1425.20   1 0.66270-0.98198-0.45973 0.18881 0.59115-0.00737
   4   2  -7 4552.32  536.34   1 0.66387-0.34254 0.66924-0.41253 0.33374-0.84408
  -4  -2   7 4911.71  423.23   1 0.23671-0.55797 0.51040-0.76726 0.82670-0.31617
  -4  -2   7 4556.40  332.79   1 0.65557-0.97704-0.44479 0.18815 0.61022-0.09988
   4   2  -637044.25 1026.42   1 0.73342-0.41046 0.52767-0.28503 0.42854-0.86618
  -4  -2   645649.66 1188.14   1 0.20428-0.52751 0.50651-0.74943 0.83768-0.40008
  -4  -2   640160.12  939.92   1-0.50339 0.17995 0.74089-0.98365 0.44458-0.00677
  -4  -2   641983.55 1003.65   1 0.63920-0.96261-0.40906 0.16632 0.65121-0.21378
  -4  -2   529392.73 1687.09   1 0.60219-0.92755-0.49677 0.26811 0.62496-0.26028
  -4  -2   534748.52  820.77   1 0.15594-0.48115 0.49966-0.72865 0.85206-0.48740
  -4  -2   533276.05 1892.76   1-0.53071 0.20532 0.74935-0.97819 0.39599-0.03115
  -4  -2   533378.77 1899.39   1 0.60117-0.92652-0.33527 0.10644 0.72537-0.36085
   4   2  -495287.50 2053.75   1 0.79430-0.46732 0.14622 0.06862 0.58966-0.88141
  -4  -2   484190.78 1717.09   1 0.55204-0.87932-0.57183 0.35706 0.60683-0.31509
  -4  -2   495800.62 2032.90   1 0.08894-0.41613 0.48815-0.70321 0.86821-0.57647
  -4  -2   492254.94 1853.87   1-0.56109 0.23355 0.75635-0.97132 0.33631-0.04440
  -4  -2   491732.89 1822.70   1 0.50564-0.83291-0.18000-0.03486 0.84375-0.55230
   4   2  -325546.66  910.65   1 0.76852-0.43950-0.07754 0.27858 0.63510-0.85394
  -4  -2   323494.72  847.08   1 0.48568-0.81492-0.65543 0.45455 0.57836-0.35955
  -4  -2   325594.09  979.69   1 0.00116-0.33038 0.46965-0.67083 0.88285-0.66395
  -4  -2   324886.38  865.61   1-0.60377 0.27431 0.76034-0.96142 0.23944-0.02051
  -4  -2   325318.65  862.35   1 0.24298-0.57223 0.15453-0.35562 0.95763-0.73897
   4   2  -2135746.6 2096.42   1 0.70284-0.37172-0.29641 0.48345 0.64664-0.79251
  -4  -2   2120992.4 1879.36   1 0.40416-0.73533-0.73979 0.55279 0.53792-0.39204
  -4  -2   2135601.1 2146.14   1-0.10761-0.22359 0.44130-0.62853 0.89087-0.74494
  -4  -2   2131164.0 1943.69   1-0.28573-0.04540 0.62693-0.81408 0.72478-0.57896
   4   2  -1  186.12  150.51   1 0.60913-0.27609-0.48539 0.65849 0.62717-0.70010
  -4  -2   1  201.62  149.91   1 0.31121-0.64436-0.81651 0.64339 0.48625-0.41331
  -4  -2   1  348.98   53.00   1-0.51240 0.17920 0.74388-0.91711 0.42903-0.35606
   4   2  -1  235.33   38.84   1 0.48692-0.15380-0.15254 0.32569 0.86001-0.93288
   4   2   013240.56  514.63   1 0.50563-0.17060-0.63188 0.79110 0.58741-0.58741
  -4  -2   011264.10  446.08   1 0.21251-0.54759-0.87948 0.72027 0.42584-0.42584
  -4  -2   013396.76  569.38   1-0.37048 0.03531 0.34712-0.50646 0.86153-0.86153
  -4  -2   013347.29  475.58   1-0.56548 0.23022 0.75710-0.91650 0.32713-0.32713
   4   2   013014.30  456.60   1 0.02693 0.30816 0.37548-0.21622 0.92643-0.92643
  -4  -2  -111624.84  535.69   1-0.50567 0.16848 0.28162-0.42701 0.81546-0.88840
  -4  -2  -113254.19  535.81   1-0.59325 0.25606 0.76012-0.90562 0.26506-0.33804
   4   2   111433.08  418.76   1-0.21104 0.54811 0.57462-0.42929 0.79073-0.71782
  -4  -2  -255832.44 1944.09   1-0.62936 0.29018 0.20898-0.34042 0.74848-0.89437
  -4  -2  -253954.39 1911.97   1-0.61362 0.27450 0.75998-0.89159 0.21418-0.36014
   4   2   249002.86 1677.56   1-0.32183 0.66093 0.65020-0.51870 0.68822-0.54231
   4   2   3 2844.24  254.80   1 0.26121 0.07966-0.85062 0.96811 0.45629-0.23748
  -4  -2  -3 4087.94  482.11   1-0.63040 0.28935 0.75791-0.87562 0.16779-0.38672
   4   2   3 2306.45  168.86   1-0.37635 0.71740 0.68249-0.56491 0.62654-0.40767
   4   2   465597.72 2291.71   1 0.21370 0.12910-0.87882 0.98241 0.42660-0.13485
  -4  -2  -462645.26 2192.61   1-0.81711 0.47403 0.05967-0.16327 0.57337-0.86523
  -4  -2  -467428.29 2372.82   1-0.64486 0.30188 0.75424-0.85806 0.12353-0.41544
   4   2   5  511.03  277.76   1 0.18102 0.16371-0.89597 0.98566 0.40552-0.04083
  -4  -2  -5  461.11  267.63   1-0.87882 0.53380-0.00995-0.07971 0.47703-0.84184
  -4  -2  -5  668.96  264.80   1-0.65758 0.31260 0.74906-0.83901 0.08044-0.44534
   4   2   676270.61 1824.88   1 0.16074 0.18592-0.90573 0.98151 0.39217 0.04544
  -4  -2  -673692.29 1723.63   1-0.92179 0.57478-0.07405-0.00168 0.38053-0.81830
  -4  -2  -676196.22 2030.56   1-0.66873 0.32180 0.74253-0.81859 0.03787-0.47576
   4   2   7 7676.07  633.17   1 0.15067 0.19792-0.91033 0.97220 0.38547 0.12508
  -4  -2  -7 7034.98  539.75   1-0.94916 0.60055-0.13257 0.07074 0.28549-0.79645
  -4  -2  -710744.24 1121.64   1-0.67848 0.32959 0.73460-0.79677-0.00439-0.50647
   4   2   810958.30  693.43   1 0.14902 0.20150-0.91106 0.95903 0.38437 0.19912
  -4  -2  -811238.96  615.35   1-0.96329 0.61277-0.18521 0.13732 0.19429-0.77823
  -4  -2  -810602.06  724.72   1-0.68688 0.33605 0.72526-0.77355-0.04655-0.53728
   4   2   9150408.0 9187.97   1 0.15440 0.19805-0.90864 0.94270 0.38796 0.26847
  -4  -2  -9145187.1 4402.80   1-0.96666 0.61400-0.23256 0.19872 0.10713-0.76387
  -4  -2  -9152329.6 9317.65   1-0.69398 0.34120 0.71450-0.74889-0.08873-0.56809
   4   2  10  538.84  285.29   1 0.16575 0.18864-0.90338 0.92354 0.39549 0.33388
  -4  -2 -10  985.95  359.27   1-0.96104 0.60645-0.27540 0.25552 0.02323-0.75293
   4   2  1142129.09 1315.71   1 0.18226 0.17406-0.89536 0.90160 0.40633 0.39598
  -4  -2 -1137468.83 1167.09   1-0.94764 0.59112-0.31413 0.30819-0.05730-0.74537
  -4  -3  10  622.64  232.75   1 0.16365-0.46101 0.50084-0.87916 0.84992-0.12059
  -4  -3   941767.17 1471.09   1-0.55031 0.25108-0.80998 0.44610-0.20270 0.85903
  -4  -3   944200.35 1599.18   1 0.16326-0.46259 0.50078-0.86516 0.85003-0.19363
  -4  -3   948821.93 1691.85   1 0.68164-0.98098-0.50828 0.14374 0.52632 0.13043
   4   3  -814701.29  438.05   1 0.62401-0.32253 0.72766-0.37742 0.28480-0.86805
  -4  -3   815122.08  476.55   1 0.15213-0.45343 0.49907-0.84952 0.85310-0.26963
  -4  -3   816195.99  379.53   1 0.68329-0.98462-0.51300 0.16241 0.51954 0.06423
   4   3  -725907.84 1529.48   1 0.68833-0.38495 0.62638-0.29007 0.36582-0.87616
  -4  -3   728010.33  712.44   1 0.12869-0.43197 0.49526-0.83177 0.85915-0.34862
  -4  -3   726888.22  596.18   1 0.68169-0.98501-0.50842 0.17177 0.52611-0.01530
   4   3  -668866.80 1516.28   1 0.74260-0.43762 0.50195-0.17973 0.44337-0.88101
  -4  -3   670026.25 1528.79   1 0.09099-0.39626 0.48854-0.81112 0.86778-0.43018
  -4  -3   668821.49 1425.68   1 0.67401-0.97933-0.48767 0.16496 0.55487-0.11703
   4   3  -5 4893.89  487.42   1 0.77948-0.47252 0.35616-0.04786 0.51532-0.88001
  -4  -3   5 4128.48  332.39   1 0.03694-0.34418 0.47764-0.78629 0.87777-0.51310
  -4  -3   5 4518.44  290.03   1-0.27539-0.03209 0.62002-0.92852 0.73466-0.36988
  -4  -3   5 4013.84  275.07   1 0.65013-0.95756-0.43254 0.12407 0.62468-0.26015
   4   3  -4157025.0 2798.04   1 0.79435-0.48534 0.19147 0.10297 0.57648-0.86823
  -4  -3   4158145.8 2851.24   1-0.03523-0.27403 0.46083-0.75562 0.88678-0.59492
  -4  -3   4156007.4 2683.68   1-0.15649-0.15278 0.53314-0.82781 0.83142-0.53979
  -4  -3   4148701.6 2559.02   1 0.55929-0.86864-0.26364-0.03084 0.78592-0.49447
   4   3  -3148823.8 2986.20   1 0.78384-0.47277 0.01333 0.26732 0.62081-0.83965
  -4  -3   3149039.6 3020.16   1-0.12595-0.18530 0.43593-0.71678 0.89111-0.67222
   4   3  -216033.56  635.37   1 0.74656-0.43336-0.16746 0.43413 0.64389-0.78976
  -4  -3   216300.95  671.29   1-0.23327-0.07998 0.40098-0.66788 0.88588-0.73995
   4   3  -1133732.1 2092.67   1 0.68627-0.37116-0.33610 0.58888 0.64502-0.71795
  -4  -3   1131998.5 2093.55   1-0.35189 0.03666 0.35510-0.60804 0.86606-0.79305
   4   3   0118648.2 1876.16   1 0.61133-0.29429-0.48172 0.72054 0.62786-0.62786
   4   3   0113274.2 1694.52   1-0.14795 0.46512 0.52641-0.28751 0.83725-0.83725
   4   3   0116824.3 1752.93   1 0.70687-0.38954-0.60811 0.84718 0.36129-0.36129
  -4  -3  -165539.82 2269.06   1-0.58914 0.26992 0.23423-0.45929 0.77333-0.84627
   4   3   159102.13 2000.65   1-0.37715 0.69638 0.68294-0.45788 0.62557-0.55261
   4   3   217904.47  704.95   1 0.45761-0.13661-0.68653 0.89757 0.56503-0.41915
  -4  -3  -217402.11  683.61   1-0.69168 0.37055 0.16600-0.37715 0.70285-0.84878
  -4  -3  -218450.06  697.14   1-0.69378 0.37257 0.71486-0.92615-0.08741-0.05854
   4   3   215958.01  586.52   1-0.45023 0.77138 0.71976-0.50859 0.52842-0.38248
   4   3   320692.77  813.03   1 0.39310-0.07017-0.74992 0.94707 0.53205-0.31323
  -4  -3  -320341.65  820.74   1-0.77684 0.45371 0.09759-0.29480 0.62207-0.84097
  -4  -3  -320270.91  795.08   1-0.69051 0.36735 0.72019-0.91760-0.06712-0.15182
   4   3   317467.37 1037.57   1-0.47915 0.80225 0.73195-0.53469 0.48441-0.26550
   4   3   432216.17 1344.99   1 0.34101-0.01614-0.79396 0.97723 0.50331-0.21156
  -4  -3  -430231.20 1265.91   1-0.84386 0.51874 0.03162-0.21489 0.53563-0.82747
  -4  -3  -428861.61 1237.13   1-0.69067 0.36556 0.71995-0.90347-0.06809-0.22383
   4   3   5 1029.52  179.10   1 0.30129 0.02556-0.82366 0.99295 0.48042-0.11573
  -4  -3  -5 1658.56  243.20   1-0.89391 0.56681-0.03030-0.13903 0.44721-0.81203
  -4  -3  -5 1824.52  276.13   1-0.69273 0.36567 0.71665-0.88629-0.08071-0.28418
   4   3   6 3667.52  382.25   1 0.27339 0.05538-0.84274 0.99812 0.46372-0.02609
  -4  -3  -6 3414.05  413.51   1-0.92910 0.60001-0.08749-0.06791 0.35932-0.79710
  -4  -3  -6 3004.26  334.40   1-0.69572 0.36671 0.71124-0.86699-0.10048-0.33740
   4   3   749031.87 1009.41   1 0.25578 0.07493-0.85404 0.99552 0.45296 0.05759
  -4  -3  -749328.81  974.70   1-0.95182 0.62115-0.14014-0.00137 0.27273-0.78368
   4   3   820960.97  660.44   1 0.24705 0.08559-0.85944 0.98701 0.44757 0.13592
  -4  -3  -823476.55  737.59   1-0.96374 0.63116-0.18797 0.06039 0.18934-0.77329
   4   3   937407.39 1353.03   1 0.24596 0.08861-0.86010 0.97377 0.44689 0.20954
  -4  -3  -937162.07 1329.40   1-0.96669 0.63197-0.23146 0.11793 0.10922-0.76595
   4   3  10  467.94  294.08   1 0.25146 0.08504-0.85673 0.95649 0.45030 0.27907
  -4  -3 -10  572.85  410.21   1-0.96198 0.62533-0.27128 0.17171 0.03152-0.76123
   4   3  1133800.26 1138.60   1 0.26272 0.07571-0.84965 0.93551 0.45722 0.34508
  -4  -3 -1127918.81  979.81   1-0.95048 0.61190-0.30769 0.22206-0.04356-0.75911
  -4  -4   918883.83 1167.31   1-0.58143 0.30020-0.77835 0.33485-0.23683 0.89316
  -4  -4   921698.13  933.55   1 0.03711-0.31847 0.47768-0.92172 0.87774-0.22134
   4   4  -815366.70  902.88   1 0.64456-0.36104 0.69906-0.26922 0.30959-0.89284
  -4  -4   817360.85 1026.68   1 0.02277-0.30611 0.47454-0.90465 0.87993-0.29646
  -4  -4   817271.28  956.21   1 0.69807-0.98145-0.56160 0.13133 0.44417 0.13961
   4   4  -7 7117.26  779.32   1 0.69881-0.41337 0.60591-0.19000 0.38017-0.89051
  -4  -4   7 7033.08  485.30   1-0.00494-0.28038 0.46821-0.88451 0.88359-0.37283
  -4  -4   7 7436.99  471.05   1 0.69982-0.98520-0.56865 0.15232 0.43229 0.07852
   4   4  -6197146.6 6110.54   1 0.74450-0.45749 0.49630-0.09450 0.44653-0.88417
  -4  -4   6210226.9 6383.60   1-0.04722-0.24010 0.45778-0.86013 0.88780-0.45001
   4   4  -560507.64 1461.70   1 0.77654-0.48756 0.37236 0.01551 0.50825-0.87295
  -4  -4   562936.38 1378.52   1-0.10538-0.18393 0.44194-0.83035 0.89082-0.52599
  -4  -4   557464.53 1152.86   1 0.02565-0.31520 0.37668-0.76501 0.92598-0.56159
  -4  -4   558660.35 1194.22   1 0.69250-0.98187-0.54155 0.15311 0.47660-0.11174
   4   4  -4 4990.54  473.46   1 0.79267-0.50162 0.23576 0.13827 0.56220-0.85395
  -4  -4   4 4059.51  358.95   1-0.17974-0.11156 0.41918-0.79364 0.88993-0.59806
  -4  -4   4 3773.14  224.42   1 0.28990-0.58124 0.10141-0.47555 0.95166-0.66030
  -4  -4   4 4041.39  241.24   1 0.64782-0.93917-0.42620 0.05171 0.63140-0.33951
   4   4  -3271382.3 4752.90   1 0.79172-0.49866 0.08874 0.27138 0.60439-0.82321
  -4  -4   3274908.7 4817.04   1-0.26875-0.02455 0.38823-0.74867 0.88150-0.66247
   4   4  -215104.52  682.98   1 0.77177-0.47672-0.06124 0.40760 0.63294-0.77883
  -4  -4   214777.45  691.71   1-0.36899 0.07369 0.34777-0.69430 0.86191-0.71590
   4   4  -1218281.1 3353.88   1 0.73445-0.43724-0.20788 0.54027 0.64603-0.71896
  -4  -4   1219213.3 3383.18   1-0.47412 0.17684 0.29841-0.63102 0.82834-0.75533
   4   4   060501.91 2099.16   1 0.68356-0.38444-0.34227 0.66077 0.64465-0.64465
  -4  -4   059179.45 2060.99   1-0.57670 0.27744 0.24169-0.56039 0.78037-0.78037
   4   4   055181.54 1855.40   1-0.44372 0.74307 0.71680-0.39816 0.53786-0.53786
   4   4   057685.99 1940.69   1 0.49680-0.19756-0.16693 0.48543 0.85165-0.85165
   4   4   1195364.0 3027.58   1 0.62461-0.32357-0.45897 0.76350 0.63182-0.55888
  -4  -4  -1198717.6 3087.54   1-0.67082 0.36957 0.18099-0.48573 0.71918-0.79213
   4   4   1185495.0 2798.52   1-0.53867 0.83998 0.75144-0.44671 0.38099-0.30802
   4   4   1192049.6 2884.43   1 0.67461-0.37329-0.48924 0.79401 0.55275-0.47977
   4   4   286349.82 1441.65   1 0.56401-0.26105-0.55497 0.84561 0.61146-0.46559
  -4  -4  -288092.64 1482.61   1-0.75216 0.44897 0.11884-0.40967 0.64816-0.79409
   4   4   284078.87 1363.57   1-0.56124 0.86447 0.75638-0.46537 0.33598-0.19003
   4   4   287730.49 1410.11   1 0.70472-0.40140-0.59143 0.88226 0.39188-0.24594
   4   4   3178119.6 2800.65   1 0.50681-0.20178-0.63044 0.90721 0.58793-0.36912
  -4  -4  -3178409.8 2810.72   1-0.81885 0.51365 0.05793-0.33482 0.57107-0.78997
   4   4   3154668.2 2413.90   1-0.56540 0.87055 0.75709-0.47998 0.32730-0.10837
   4   4   3180827.1 2813.01   1 0.70937-0.40397-0.63340 0.91030 0.30917-0.09024
   4   4   479376.11 1711.13   1 0.45675-0.14978-0.68744 0.95032 0.56461-0.27286
  -4  -4  -475328.78 1622.68   1-0.87112 0.56394-0.00020-0.26272 0.49105-0.78290
   4   4   475428.89 1630.96   1 0.70964-0.40226-0.65222 0.91517 0.26645 0.02545
   4   4   520443.23 1026.18   1 0.41557-0.10667-0.72902 0.97801 0.54388-0.17919
  -4  -4  -521486.09 1042.52   1-0.91025 0.60108-0.05474-0.19426 0.41040-0.77521
   4   4   6128341.0 2934.70   1 0.38381-0.07298-0.75822 0.99331 0.52705-0.08942
   4   4   712201.50  750.66   1 0.36118-0.04841-0.77761 0.99881 0.51464-0.00407
  -4  -4  -712362.21  710.76   1-0.95569 0.64297-0.15239-0.06881 0.25184-0.76279
   4   4   8  976.06  458.33   1 0.34699-0.03229-0.78920 0.99652 0.50670 0.07680
  -4  -4  -8 1156.35  415.54   1-0.96482 0.65018-0.19552-0.01175 0.17573-0.75968
   4   4   8  594.67  367.62   1 0.70959-0.39421-0.65389 0.86101 0.26248 0.32133
   4   4   912562.21  953.38   1 0.34040-0.02378-0.79444 0.98786 0.50297 0.15347
  -4  -4  -912824.95  975.56   1-0.96657 0.64979-0.23514 0.04192 0.10221-0.75894
   4   4   912702.06  954.20   1 0.70972-0.39234-0.64619 0.83935 0.28057 0.37622
   4   4  10  533.51  307.63   1 0.34062-0.02206-0.79427 0.97380 0.50309 0.22629
  -4  -4 -10  400.98  286.73   1-0.96186 0.64315-0.27184 0.09257 0.03041-0.76012
   4   4  10  787.07  376.87   1 0.70951-0.39013-0.63643 0.81564 0.30255 0.42722
   4   4  1120024.25 1025.06   1 0.34690-0.02641-0.78927 0.95492 0.50665 0.29567
  -4  -4 -1117542.94  931.23   1-0.95129 0.63065-0.30574 0.14042-0.03942-0.76325
   4   4  1117781.87  915.10   1 0.70876-0.38738-0.62477 0.79002 0.32757 0.47517
  -4  -5   9  471.23  218.90   1-0.59821 0.33497-0.75941 0.23629-0.25578 0.91211
   4   5  -831266.31 1558.92   1 0.65406-0.38849 0.68477-0.17533 0.32136-0.90461
  -4  -5   830688.58 1486.32   1-0.13620-0.12918 0.43285-0.94277 0.89111-0.30738
   4   5  -7 1628.24  249.19   1 0.70180-0.43432 0.59978-0.10426 0.38435-0.89470
  -4  -5   7 1074.08  228.97   1-0.16612-0.10125 0.42356-0.91953 0.89050-0.37973
  -4  -5   7  883.48  156.56   1 0.70852-0.97599-0.62209 0.12594 0.33315 0.17769
   4   5  -6 4803.93  530.11   1 0.74236-0.47333 0.50264-0.02126 0.44298-0.88062
  -4  -5   6 5635.73  338.60   1-0.21036-0.05901 0.40896-0.89098 0.88797-0.45017
  -4  -5   6 6407.99  302.25   1 0.70949-0.97896-0.63591 0.15372 0.30369 0.13417
   4   5  -589357.68 1443.00   1 0.77189-0.50088 0.39542 0.07203 0.49781-0.86251
  -4  -5   595997.99 1492.56   1-0.26850-0.00288 0.38832-0.85628 0.88153-0.51650
  -4  -5   597323.88 1395.72   1 0.70971-0.98118-0.64413 0.17589 0.28528 0.07960
   4   5  -431318.08 1351.64   1 0.78930-0.51621 0.27934 0.17430 0.54677-0.83853
  -4  -5   430555.14  744.47   1-0.33983 0.06645 0.36017-0.81420 0.86878-0.57675
  -4  -5   428427.16  578.83   1 0.46092-0.73443-0.11557-0.33816 0.87988-0.58843
  -4  -5   430476.92  635.26   1 0.70956-0.98302-0.63756 0.18328 0.30005-0.00814
   4   5  -3130770.0 2997.83   1 0.79445-0.51936 0.15548 0.28424 0.58707-0.80589
  -4  -5   3135570.8 3003.21   1-0.42105 0.14570 0.32428-0.76440 0.84708-0.62806
   4   5  -222067.24 1045.94   1 0.78575-0.50865 0.02860 0.39739 0.61787-0.76377
  -4  -5   222481.24 1070.83   1-0.50747 0.23014 0.28066-0.70693 0.81467-0.66878
   4   5  -173532.80 1574.69   1 0.76420-0.48518-0.09765 0.50971 0.63753-0.71047
  -4  -5   173380.61 1559.47   1-0.59382 0.31450 0.23138-0.64370 0.77060-0.69766
   4   5  -174336.03 1456.54   1-0.60941 0.88889 0.76021-0.34782 0.22516-0.29814
  -4  -5   0172942.8 3485.93   1-0.67494 0.39364 0.17809-0.57646 0.71605-0.71605
   4   5   0170864.4 3364.10   1-0.64509 0.92650 0.75417-0.35568 0.12280-0.12280
   4   5   0171253.8 3354.46   1 0.30662-0.02531 0.08177 0.31633 0.94831-0.94831
   4   5   126580.19 1123.62   1 0.68995-0.40682-0.32760 0.71182 0.64547-0.57253
  -4  -5  -126142.40 1108.56   1-0.74713 0.46389 0.12301-0.50745 0.65318-0.72615
   4   5   124385.00  997.36   1-0.64426 0.92761 0.75443-0.36984 0.12546-0.05248
   4   5   125934.20 1029.67   1 0.55424-0.27097-0.25541 0.63963 0.79219-0.71933
   4   5   292535.58 1943.44   1 0.64418-0.35913-0.42333 0.79358 0.63703-0.49116
  -4  -5  -289174.83 1875.39   1-0.80838 0.52313 0.06829-0.43879 0.58468-0.73061
   4   5   280863.09 1675.65   1-0.63735 0.92262 0.75640-0.38569 0.14711-0.00115
   4   5   290705.45 1841.08   1 0.64605-0.36088-0.42362 0.79405 0.63494-0.48913
   4   5   330488.90 1274.74   1 0.59800-0.31103-0.50352 0.85989 0.62358-0.40477
  -4  -5  -332910.18 1365.15   1-0.85822 0.57095 0.01533-0.37186 0.51305-0.73193
   4   5   325030.95 1035.77   1-0.62759 0.91480 0.75840-0.40159 0.17589 0.04303
   4   5   331304.85 1268.51   1 0.68228-0.39492-0.51011 0.86668 0.52370-0.30478
   4   5   4111086.2 2094.40   1 0.55460-0.26571-0.56828 0.91075 0.60783-0.31610
  -4  -5  -4109413.7 2057.04   1-0.89725 0.60800-0.03507-0.30752 0.44011-0.73196
   4   5   4109006.2 2028.37   1 0.69669-0.40733-0.55635 0.89897 0.45286-0.16097
   4   5   578893.71 1880.09   1 0.51637-0.22557-0.61873 0.94732 0.59204-0.22737
  -4  -5  -576474.49 1823.66   1-0.92645 0.63521-0.08250-0.24616 0.36724-0.73205
   4   5   574473.75 1757.95   1 0.70277-0.41143-0.58166 0.91034 0.40959-0.04472
   4   5   640199.38 1015.21   1 0.48459-0.19166-0.65668 0.97139 0.57786-0.14023
  -4  -5  -637132.27  943.10   1-0.94711 0.65425-0.12710-0.18773 0.29464-0.73260
   4   5   642851.78 1063.77   1 0.70535-0.41201-0.59493 0.90966 0.38539 0.05244
   4   5   7132340.5 4124.01   1 0.46009-0.16523-0.68386 0.98468 0.56624-0.05567
  -4  -5  -7133051.2 4141.53   1-0.95993 0.66515-0.16848-0.13241 0.22391-0.73487
   4   5   7124917.1 3898.30   1 0.70632-0.41098-0.60062 0.90141 0.37464 0.13616
   4   5   841885.39 1467.59   1 0.44281-0.14601-0.70202 0.98894 0.55774 0.02576
  -4  -5  -842328.92 1509.75   1-0.96602 0.66933-0.20704-0.07992 0.15470-0.73865
   4   5   840031.32 1419.53   1 0.70640-0.40907-0.60113 0.88797 0.37367 0.21011
   4   5   981100.17 2461.30   1 0.43244-0.13371-0.71252 0.98555 0.55253 0.10390
  -4  -5  -983338.03 2550.16   1-0.96611 0.66728-0.24284-0.03007 0.08745-0.74419
   4   5   984448.45 2601.79   1 0.70585-0.40653-0.59780 0.87070 0.37999 0.27676
   4   5  10  488.09  297.15   1 0.42856-0.12789-0.71638 0.97553 0.55056 0.17882
  -4  -5 -10  268.15  285.39   1-0.96081 0.66005-0.27635 0.01739 0.02130-0.75101
   4   5  10 1466.66  503.93   1 0.70472-0.40340-0.59141 0.85037 0.39191 0.33782
   4   5  1127978.33 1270.96   1 0.43066-0.12806-0.71430 0.95955 0.55163 0.25069
  -4  -5 -1126445.12 1276.04   1-0.95050 0.64780-0.30764 0.06263-0.04345-0.75922
   4   5  1131637.15 1460.87   1 0.70294-0.39963-0.58243 0.82744 0.40821 0.39448
   4   6  -813385.47  619.49   1 0.65668-0.40905 0.68071-0.09167 0.32464-0.90789
   4   6  -711411.93 1478.72   1 0.70009-0.45055 0.60330-0.02819 0.38195-0.89230
   4   6  -6 6624.27  763.66   1 0.73745-0.48639 0.51667 0.04427 0.43497-0.87261
  -4  -6   6 7928.80  580.94   1-0.39561 0.14415 0.33598-0.89753 0.85475-0.41671
   4   6  -5 1654.98  222.62   1 0.76564-0.51261 0.42270 0.12432 0.48487-0.84957
  -4  -6   5 1166.71  189.20   1-0.44740 0.19396 0.31169-0.85932 0.83825-0.47322
   4   6  -4 2424.10  289.52   1 0.78423-0.52911 0.32233 0.21091 0.53016-0.82192
  -4  -6   4 1625.53  194.24   1-0.50796 0.25256 0.28040-0.81425 0.81445-0.52268
   4   6  -4 1522.42  190.15   1-0.67490 0.93064 0.73780-0.20412 0.01176-0.30369
   4   6  -3 8932.91  884.67   1 0.79363-0.53650 0.21609 0.30323 0.56871-0.78753
  -4  -6   3 7353.18  489.60   1-0.57371 0.31633 0.24347-0.76337 0.78203-0.56319
   4   6  -3 7214.49  433.93   1-0.62139 0.87906 0.75928-0.23940 0.19328-0.41221
  -4  -6   3 6696.31  363.43   1 0.64446-0.90201-0.42019-0.09940 0.63882-0.42010
   4   6  -2 9453.66 1012.62   1 0.79283-0.53370 0.10686 0.39855 0.59999-0.74586
  -4  -6   2 8587.76  584.03   1-0.64065 0.38129 0.20156-0.70751 0.74089-0.59500
   4   6  -2 8395.97  502.31   1-0.46290 0.72257 0.72529-0.21952 0.50957-0.65551
  -4  -6   2 7912.61  464.46   1 0.70339-0.96284-0.58461 0.07864 0.40431-0.25836
   4   6  -1  554.77  230.93   1 0.78173-0.52066-0.00199 0.49368 0.62360-0.69655
  -4  -6   1  359.60  238.44   1-0.70492 0.44362 0.15620-0.64819 0.69186-0.61890
   4   6  -1  407.91   87.85   1-0.14009 0.40154 0.52017-0.02841 0.84249-0.91539
   4   6   064195.89 1294.14   1 0.76183-0.49883-0.10810 0.58586 0.63868-0.63868
  -4  -6   061362.37 1207.18   1-0.76369 0.50038 0.10908-0.58714 0.63629-0.63629
   4   6   062477.91 1123.44   1 0.20097 0.06243 0.20070 0.27707 0.95881-0.95881
   4   6   1 1379.24  203.46   1 0.73441-0.46918-0.20802 0.67187 0.64603-0.57310
  -4  -6  -1 1757.30  243.20   1-0.81505 0.54975 0.06172-0.52584 0.57608-0.64904
   4   6   1 1384.84  131.98   1-0.69084 0.95632 0.71969-0.25544-0.06908 0.14207
   4   6   1 1616.48  159.26   1 0.43031-0.16495-0.07395 0.53776 0.89964-0.82680
   4   6   2139625.5 2562.50   1 0.70201-0.43487-0.29849 0.74843 0.64659-0.50072
  -4  -6  -2133443.9 2453.93   1-0.85823 0.59087 0.01532-0.46544 0.51303-0.65895
   4   6   350133.85 1249.52   1 0.66716-0.39811-0.37786 0.81390 0.64195-0.42315
  -4  -6  -350208.06 1252.48   1-0.89336 0.62402-0.02953-0.40666 0.44836-0.66725
   4   6   348907.57 1165.37   1 0.62129-0.35209-0.37301 0.80917 0.68909-0.47037
   4   6   4 3088.72  389.70   1 0.63230-0.36133-0.44528 0.86736 0.63396-0.34222
  -4  -6  -4 2626.83  310.69   1-0.92082 0.64949-0.07233-0.34992 0.38321-0.67506
   4   6   4 2893.44  311.52   1 0.65521-0.38407-0.44396 0.86622 0.61121-0.31959
   4   6   592432.95 2015.96   1 0.59989-0.32700-0.50049 0.90868 0.62420-0.25953
  -4  -6  -588768.94 1943.90   1-0.94141 0.66841-0.11316-0.29529 0.31769-0.68266
   4   6   591551.66 1955.09   1 0.67414-0.40074-0.48801 0.89636 0.55441-0.18954
   4   6   632972.63  769.31   1 0.57142-0.29661-0.54421 0.93851 0.61424-0.17664
  -4  -6  -635004.67  879.32   1-0.95544 0.68052-0.15154-0.24298 0.25330-0.69126
   4   6   631351.74  776.96   1 0.68395-0.40855-0.51489 0.90931 0.51681-0.07897
   4   6   721552.59  630.23   1 0.54797-0.27125-0.57743 0.95784 0.60522-0.09468
  -4  -6  -721111.84  693.75   1-0.96371 0.68687-0.18774-0.19284 0.18976-0.70071
   4   6   720439.80  620.05   1 0.68915-0.41177-0.53065 0.91112 0.49342 0.01738
   4   6   815874.81  561.77   1 0.53011-0.25146-0.60123 0.96775 0.59790-0.01443
  -4  -6  -816399.04  685.17   1-0.96674 0.68800-0.22187-0.14478 0.12717-0.71112
   4   6   814864.48  584.14   1 0.69165-0.41227-0.53871 0.90524 0.48103 0.10275
   4   6   961882.14 1707.74   1 0.51801-0.23745-0.61668 0.96931 0.59275 0.06365
   4   6   961591.37 1757.37   1 0.69239-0.41102-0.54118 0.89376 0.47718 0.17957
   4   6  1024769.02 1101.54   1 0.51150-0.22874-0.62470 0.96345 0.59000 0.13938
  -4  -6 -1026941.02 1208.67   1-0.95873 0.67591-0.28425-0.05440 0.00526-0.73497
   4   6  1026331.80 1153.66   1 0.69184-0.40847-0.53932 0.87796 0.48008 0.24964
   4   6  11 3010.28  516.02   1 0.51063-0.22594-0.62577 0.95063 0.58962 0.21270
  -4  -6 -11 1337.81  406.25   1-0.94823 0.66346-0.31285-0.01184-0.05457-0.74810
   4   6  11 1641.51  565.26   1 0.69019-0.40483-0.53396 0.85865 0.48836 0.31433
   4   7  -846942.13 2515.78   1 0.65449-0.42482 0.68412-0.01547 0.32189-0.90514
   4   7  -720838.98 1145.20   1 0.69496-0.46338 0.61359 0.04111 0.37485-0.88520
   4   7  -6 5602.56  769.83   1 0.73029-0.49721 0.53588 0.10463 0.42366-0.86129
   4   7  -514956.91 1287.36   1 0.75780-0.52274 0.45271 0.17389 0.46986-0.83456
  -4  -7   515143.44  529.94   1-0.63198 0.39654 0.20727-0.83475 0.74674-0.38202
   4   7  -4 1542.09  298.49   1 0.77802-0.54098 0.36436 0.24833 0.51177-0.80352
  -4  -7   4 1152.97  181.28   1-0.67282 0.43539 0.17959-0.79312 0.71767-0.42589
   4   7  -4 1016.35  160.41   1-0.61619 0.85398 0.75979-0.14633 0.20738-0.49928
   4   7  -329103.11 1747.18   1 0.78995-0.55079 0.27243 0.32649 0.54931-0.76813
  -4  -7   328353.67  951.06   1-0.71642 0.47707 0.14746-0.74701 0.68190-0.46300
   4   7  -325514.39 1215.02   1-0.52220 0.76202 0.74692-0.14758 0.41159-0.63049
   4   7  -2 1220.80  246.33   1 0.79452-0.55335 0.17765 0.40736 0.58065-0.72653
  -4  -7   2  869.83  210.04   1-0.76021 0.51885 0.11206-0.69767 0.63993-0.49400
   4   7  -2  438.09   70.22   1-0.35397 0.59568 0.66967-0.08427 0.65287-0.79878
  -4  -7   2  507.82   78.30   1 0.68336-0.92486-0.51319-0.07245 0.51927-0.37332
  -4  -7   1  839.80  160.24   1-0.80173 0.55838 0.07469-0.64636 0.59298-0.52002
   4   7  -1  492.15   78.46   1-0.11694 0.36046 0.50146 0.06992 0.85723-0.93014
  -4  -7   1  546.74   82.44   1 0.70500-0.94850-0.59297 0.02127 0.38902-0.31604
   4   7   015314.68  918.29   1 0.78047-0.53542-0.01056 0.56795 0.62509-0.62509
  -4  -7   013914.33  813.98   1-0.83931 0.59385 0.03658-0.59423 0.54241-0.54241
   4   7   013847.21  749.46   1 0.12925 0.11623 0.27583 0.28156 0.95247-0.95247
  -4  -7   013290.13  731.35   1 0.70972-0.95531-0.64543 0.08759 0.28231-0.28231
   4   7   1 2546.88  311.69   1 0.76370-0.51672-0.09992 0.64338 0.63778-0.56484
  -4  -7  -1 2629.25  296.71   1-0.87231 0.62487-0.00168-0.54203 0.48893-0.56190
   4   7   1 2491.85  214.72   1 0.32678-0.07934 0.05769 0.48573 0.94333-0.87049
   4   7   219379.69 1105.83   1 0.74198-0.49276-0.18330 0.71287 0.64486-0.49899
  -4  -7  -217633.36 1015.56   1-0.90019 0.65076-0.03935-0.49043 0.43371-0.57963
   4   7   217850.89  968.82   1 0.46096-0.21157-0.11564 0.64520 0.87985-0.73412
   4   7   383335.28 1846.08   1 0.71726-0.46612-0.25847 0.77414 0.64708-0.42828
  -4  -7  -378898.44 1725.25   1-0.92289 0.67148-0.07600-0.43984 0.37747-0.59635
   4   7   382059.96 1709.60   1 0.54509-0.29375-0.24069 0.75635 0.80308-0.58449
   4   7   4 2373.21  374.79   1 0.69128-0.43822-0.32450 0.82627 0.64562-0.35388
  -4  -7  -4 1854.30  286.71   1-0.94075 0.68760-0.11163-0.39044 0.32019-0.61216
   4   7   4 1798.86  238.07   1 0.59671-0.34350-0.32722 0.82912 0.73270-0.44107
   4   7   513299.52  847.62   1 0.66578-0.41080-0.38074 0.86861 0.64168-0.27701
  -4  -7  -510631.56  715.87   1-0.95365 0.69859-0.14570-0.34244 0.26328-0.62825
   4   7   510899.03  645.42   1 0.62799-0.37283-0.38619 0.87418 0.67563-0.31110
   4   7   614454.37  891.95   1 0.64212-0.38522-0.42722 0.90112 0.63652-0.19891
  -4  -7  -614329.60  903.13   1-0.96205 0.70507-0.17836-0.29585 0.20650-0.64446
   4   7   614922.00  894.57   1 0.64708-0.38998-0.42585 0.89994 0.63240-0.19496
   4   7   719898.38  868.73   1 0.62174-0.36293-0.46398 0.92399 0.63099-0.12045
  -4  -7  -719925.33  934.32   1-0.96621 0.70732-0.20960-0.25067 0.14999-0.66094
   4   7   719353.02  615.06   1 0.65867-0.39963-0.45194 0.91212 0.60158-0.09124
   4   7   8 8179.78  566.59   1 0.60533-0.34460-0.49165 0.93778 0.62597-0.04249
  -4  -7  -8 9756.30  775.05   1-0.96635 0.70534-0.23932-0.20692 0.09422-0.67799
   4   7   8 8810.49  633.05   1 0.66623-0.40480-0.46819 0.91439 0.58045 0.00333
   4   7   9 2215.23  362.08   1 0.59337-0.33072-0.51086 0.94310 0.62203 0.03437
  -4  -7  -9 2822.72  421.72   1-0.96270 0.69975-0.26782-0.16447 0.03845-0.69519
   4   7  1016036.26  782.90   1 0.58611-0.32154-0.52215 0.94050 0.61953 0.10980
  -4  -7 -1018351.79  992.02   1-0.95534 0.69045-0.29501-0.12333-0.01692-0.71278
   4   7  1017489.83  904.25   1 0.67123-0.40581-0.48055 0.89887 0.56437 0.16536
   4   8  -727523.75 2445.29   1 0.68708-0.47345 0.62875 0.10556 0.36412-0.87447
   4   8  -6 3299.80  563.50   1 0.72110-0.50599 0.55872 0.16137 0.40967-0.84730
   4   8  -535495.96 1769.88   1 0.74832-0.53123 0.48454 0.22164 0.45302-0.81771
   4   8  -4 1227.43  318.07   1 0.76947-0.55040 0.40641 0.28585 0.49267-0.78443
   4   8  -348487.19 2179.06   1 0.78377-0.56257 0.32563 0.35289 0.52883-0.74764
  -4  -8   348887.16 1528.98   1-0.83840 0.61699 0.03756-0.71678 0.54374-0.32485
   4   8  -2 1987.44  287.37   1 0.79226-0.56905 0.24260 0.42200 0.55987-0.70575
  -4  -8   2 1960.88  240.38   1-0.85866 0.63511 0.01481-0.67998 0.51232-0.36639
   4   8  -2 1728.70  148.21   1-0.31282 0.53662 0.64452 0.02052 0.69765-0.84356
   4   8  -133478.60 1258.71   1 0.79449-0.56928 0.15912 0.49158 0.58604-0.65898
  -4  -8   131411.27  672.00   1-0.87952 0.65398-0.01086-0.64037 0.47572-0.40275
   4   8  -132423.30  613.63   1-0.12391 0.34952 0.50714 0.14388 0.85290-0.92581
   4   8   039823.41 1383.65   1 0.79054-0.56344 0.07715 0.55986 0.60752-0.60752
  -4  -8   043415.83 1408.76   1-0.89939 0.67186-0.03817-0.59913 0.43547-0.43547
   4   8   043308.26 1363.98   1 0.07061 0.15699 0.33395 0.30309 0.93994-0.93994
   4   8   129327.88 1099.21   1 0.78167-0.55264-0.00242 0.62551 0.62368-0.55073
  -4  -8  -124375.33 1201.64   1-0.91736 0.68785-0.06639-0.55698 0.39246-0.46542
   4   8   127317.43 1308.43   1 0.24033-0.01081 0.15750 0.46558 0.95782-0.88493
   4   8   215978.81  910.70   1 0.76850-0.53754-0.07764 0.68680 0.63511-0.48922
  -4  -8  -215486.08  831.66   1-0.93290 0.70140-0.09497-0.51447 0.34738-0.49330
   4   8   217777.94  888.78   1 0.37131-0.13982 0.00280 0.60633 0.92850-0.78282
   4   8   3 8639.11  550.49   1 0.75217-0.51929-0.14704 0.74227 0.64234-0.42350
  -4  -8  -3 8759.44  613.18   1-0.94580 0.71252-0.12375-0.47195 0.30022-0.51919
   4   8   3 7782.83  460.20   1 0.46462-0.23120-0.12076 0.71604 0.87723-0.65864
   4   8   4  612.22  297.98   1 0.73391-0.49876-0.20959 0.79099 0.64609-0.35435
  -4  -8  -4  464.77  248.34   1-0.95559 0.72039-0.15205-0.42972 0.25242-0.54439
   4   8   4  183.66  216.10   1 0.52829-0.29291-0.21434 0.79572 0.82156-0.53011
   4   8   5 6760.78  528.56   1 0.71519-0.47812-0.26414 0.83164 0.64708-0.28241
  -4  -8  -5 5839.34  585.31   1-0.96234 0.72522-0.17987-0.38796 0.20382-0.56879
   4   8   5 5966.93  432.03   1 0.57105-0.33373-0.28317 0.85065 0.77052-0.40621
   4   8   6 1793.85  350.54   1 0.69716-0.45818-0.31043 0.86403 0.64621-0.20860
  -4  -8  -6 2206.72  425.60   1-0.96602 0.72699-0.20707-0.34683 0.15464-0.59260
   4   8   6 1002.37  185.76   1 0.59973-0.36055-0.33266 0.88639 0.72777-0.29034
   4   8   716144.70  996.28   1 0.68088-0.43998-0.34829 0.88799 0.64427-0.13372
  -4  -8  -715055.83 1021.45   1-0.96663 0.72549-0.23345-0.30643 0.10544-0.61623
   4   8   714727.81  935.00   1 0.61855-0.37744-0.36773 0.90756 0.69437-0.18403
   4   8   8 8055.64  745.62   1 0.66720-0.42439-0.37778 0.90358 0.64196-0.05848
  -4  -8  -8 7908.73  784.78   1-0.96422 0.72115-0.25918-0.26675 0.05559-0.63936
   4   8   8 8269.97  815.34   1 0.63078-0.38772-0.39177 0.91770 0.66979-0.08654
   4   8   9  232.92  267.92   1 0.65673-0.41200-0.39912 0.91102 0.63983 0.01657
  -4  -8  -9  937.45  514.50   1-0.95877 0.71376-0.28411-0.22787 0.00554-0.66227
   4   8   9  473.94  350.44   1 0.63838-0.39338-0.40735 0.91936 0.65309 0.00306
   4   8  10  849.13  363.37   1 0.64975-0.40310-0.41266 0.91062 0.63837 0.09096
  -4  -8 -10  546.63  510.27   1-0.95027 0.70332-0.30820-0.18983-0.04465-0.68505
   4   8  10 1734.66  646.78   1 0.64262-0.39568-0.41626 0.91437 0.64324 0.08581
   4   9  -5 1762.29  320.59   1 0.73712-0.53801 0.51759 0.26817 0.43444-0.79914
   4   9  -432176.93 2704.98   1 0.75910-0.55801 0.44800 0.32384 0.47227-0.76403
   4   9  -319595.26 1328.95   1 0.77582-0.57275 0.37614 0.38178 0.50657-0.72539
  -4  -9   231000.83  864.73   1-0.92954 0.72391-0.08834-0.65649 0.35797-0.21205
   4   9  -111308.09 1381.72   1 0.79302-0.58577 0.22951 0.50079 0.56430-0.63724
  -4  -9   110200.87  723.25   1-0.93499 0.72731-0.09912-0.63201 0.34051-0.26752
   4   9  -1 9501.29  628.46   1-0.14390 0.35159 0.52320 0.20745 0.83996-0.91287
   4   9   096485.07 2994.98   1 0.79447-0.58521 0.15669 0.55969 0.58673-0.58673
  -4  -9   092444.53 2816.40   1-0.94177 0.73218-0.11400-0.60320 0.31631-0.31631
   4   9   094654.83 2828.91   1 0.01808 0.19159 0.38372 0.33295 0.92327-0.92327
   4   9   178652.61 2513.84   1 0.79123-0.58015 0.08633 0.61638 0.60539-0.53244
  -4  -9  -172224.25 2241.47   1-0.94882 0.73731-0.13165-0.57161 0.28703-0.36002
   4   9   176737.27 2322.91   1 0.16619 0.04540 0.23768 0.46503 0.95701-0.88412
   4   9   225267.29 1022.74   1 0.78456-0.57155 0.01888 0.66990 0.61976-0.47386
  -4  -9  -226977.14  966.63   1-0.95533 0.74190-0.15116-0.53816 0.25395-0.39993
   4   9   226020.43  879.27   1 0.28957-0.07600 0.10180 0.58695 0.95172-0.80604
   4   9   327260.45 1075.27   1 0.77494-0.56001-0.04411 0.71898 0.63048-0.41164
  -4  -9  -326946.58  988.04   1-0.96070 0.74536-0.17188-0.50351 0.21794-0.43692
   4   9   326102.91  883.25   1 0.38499-0.16945-0.01456 0.68940 0.92280-0.70427
   4   9   4 6674.86  667.19   1 0.76331-0.54644-0.10165 0.76258 0.63798-0.34619
  -4  -9  -4 6782.07  638.59   1-0.96453 0.74728-0.19335-0.46811 0.17965-0.47163
   4   9   4 5777.11  444.50   1 0.45616-0.23871-0.10895 0.76996 0.88319-0.59175
   4   9   556532.90 1569.98   1 0.75061-0.53183-0.15289 0.79989 0.64280-0.27806
  -4  -9  -555865.87 1601.40   1-0.96653 0.74737-0.21523-0.43229 0.13956-0.50453
   4   9   556060.44 1499.70   1 0.50753-0.28813-0.18282 0.82992 0.84200-0.47770
   4   9   6 3159.91  457.36   1 0.73776-0.51668-0.19730 0.83052 0.64558-0.20797
  -4  -9  -6 3533.73  450.28   1-0.96647 0.74521-0.23714-0.39638 0.09839-0.53621
   4   9   6 4039.16  432.43   1 0.54417-0.32281-0.23922 0.87242 0.80414-0.36697
   4   9   718867.72 1065.99   1 0.72577-0.50278-0.23427 0.85360 0.64681-0.13626
  -4  -9  -719618.38 1151.95   1-0.96423 0.74103-0.25912-0.36045 0.05571-0.56650
   4   9   718998.58 1082.09   1 0.56998-0.34667-0.28137 0.90066 0.77197-0.26194
   4   9   8  219.74  289.81   1 0.71534-0.49044-0.26372 0.86914 0.64708-0.06361
  -4  -9  -8  580.99  334.06   1-0.95965 0.73452-0.28091-0.32471 0.01207-0.59584
   4   9   8 1851.29  481.86   1 0.58805-0.36292-0.31187 0.91744 0.74627-0.16302
   4   9   9  -71.56  247.57   1 0.70711-0.48029-0.28552 0.87705 0.64688 0.00952
  -4  -9  -9  -45.78  342.79   1-0.95263 0.72556-0.30238-0.28929-0.03235-0.62438
   4   9   9  754.64  354.17   1 0.60015-0.37307-0.33342 0.92508 0.72707-0.07092
   4  10  -443669.30 2355.16   1 0.74685-0.56373 0.48913 0.36228 0.45050-0.74226
   4  10  -3  -66.69  270.38   1 0.76506-0.57996 0.42508 0.41242 0.48371-0.70253
   4  10  -235112.02 2238.42   1 0.77880-0.59172 0.36004 0.46355 0.51364-0.65952
   4  10  -132205.25 2193.74   1 0.78766-0.59837 0.29497 0.51492 0.54089-0.61383
   4  10   0  477.27  259.47   1 0.79297-0.60168 0.23041 0.56557 0.56400-0.56400
  -4 -10   0  881.49  284.45   1-0.96400 0.77235-0.18965-0.60724 0.18633-0.18633
   4  10   0  444.97  179.77   1-0.03172 0.22349 0.42888 0.36742 0.90280-0.90280
   4  10   115338.53 1434.87   1 0.79454-0.60124 0.16751 0.61456 0.58363-0.51069
  -4 -10  -118505.49  813.01   1-0.96494 0.77137-0.19647-0.58648 0.17400-0.24700
   4  10   117971.78  723.73   1 0.09939 0.09431 0.30573 0.47661 0.94691-0.87403
   4  10   240814.68 2626.80   1 0.79285-0.59755 0.10725 0.66091 0.59989-0.45401
  -4 -10  -243272.38 1563.11   1-0.96602 0.77054-0.20703-0.56199 0.15472-0.30071
   4  10   239850.30 1386.70   1 0.21402-0.01839 0.18653 0.58187 0.95885-0.81307
   4  10   323747.16  994.73   1 0.78820-0.59122 0.05102 0.70346 0.61329-0.39445
  -4 -10  -323473.07 1005.04   1-0.96671 0.76931-0.22018-0.53490 0.13033-0.34931
   4  10   322618.16  857.64   1 0.30865-0.11103 0.07937 0.67508 0.94785-0.72933
   4  10   4 6386.57  681.63   1 0.78185-0.58294-0.00117 0.74173 0.62345-0.33167
  -4 -10  -4 5495.54  555.10   1-0.96657 0.76712-0.23506-0.50605 0.10236-0.39424
   4  10   4 8667.61  766.18   1 0.38311-0.18352-0.01216 0.75271 0.92361-0.63225
   4  10   514560.21  890.52   1 0.77422-0.57338-0.04815 0.77478 0.63107-0.26634
  -4 -10  -513756.14  884.66   1-0.96529 0.76390-0.25131-0.47586 0.07103-0.43588
   4  10   512850.80  714.23   1 0.44031-0.23874-0.08747 0.81410 0.89357-0.52936
   4  10   623778.69  878.90   1 0.76604-0.56328-0.08927 0.80197 0.63655-0.19887
  -4 -10  -622949.12  869.35   1-0.96257 0.75925-0.26843-0.44479 0.03724-0.47506
   4  10   624887.23  900.91   1 0.48353-0.28009-0.14764 0.86046 0.86278-0.42561
   4  10   7  798.01  272.64   1 0.75804-0.55334-0.12401 0.82279 0.64030-0.12967
  -4 -10  -7 1563.12  575.19   1-0.95819 0.75293-0.28611-0.41315 0.00144-0.51223
   4  10   7  636.09  283.71   1 0.51545-0.31005-0.19471 0.89363 0.83450-0.32447
   4  10   825882.11 2326.63   1 0.53876-0.33141-0.23066 0.91567 0.81026-0.22737
   4  11  -111593.65 2008.89   1 0.77944-0.60836 0.35638 0.53287 0.51522-0.58816
   4  11   0 1917.57  336.24   1 0.78719-0.61386 0.29912 0.57647 0.53930-0.53930
   4  11   1 2643.91  486.83   1 0.79222-0.61689 0.24318 0.61849 0.55967-0.48673
   4  11   2 1011.58  221.32   1 0.79439-0.61704 0.18950 0.65826 0.57708-0.43120
  -4 -11  -2  522.44  218.76   1-0.96372 0.78608-0.26228-0.58642 0.04946-0.19540
   4  11   2  840.57  211.88   1 0.14381 0.03389 0.26093 0.58710 0.95458-0.80880
   4  11   3 6627.40 1048.38   1 0.79412-0.61477 0.13885 0.69500 0.59167-0.37285
  -4 -11  -3 7108.09  538.59   1-0.96262 0.78304-0.26820-0.56655 0.03769-0.25660
   4  11   3 5822.18  442.49   1 0.23520-0.05555 0.16321 0.67088 0.95814-0.73947
   4  11   422882.83 2067.08   1 0.79194-0.61058 0.09198 0.72795 0.60362-0.31186
  -4 -11  -425007.87 1213.44   1-0.96065 0.77914-0.27703-0.54378 0.01994-0.31183
   4  11   421953.20  982.71   1 0.31104-0.12937 0.07652 0.74363 0.94730-0.65594
   4  11   5 1054.95  440.13   1 0.78811-0.60522 0.05006 0.75619 0.61349-0.24875
  -4 -11  -5  487.69  277.87   1-0.95763 0.77418-0.28797-0.51888-0.00237-0.36247
  -5   8   522077.96 1255.99   1 0.30004-0.89786 0.51632 0.05104 0.80210-0.43730
  -5   8   521461.20 1293.02   1 0.14763-0.74489 0.25700 0.31032 0.95506-0.59061
  -5   8   416194.32  807.30   1 0.24398-0.84358 0.51120 0.07031 0.82410-0.53236
  -5   8   414906.94  852.47   1 0.10230-0.70153 0.30284 0.27835 0.94753-0.65602
  -5   8   3 8885.96  435.81   1 0.16985-0.77144 0.50176 0.09368 0.84816-0.62936
  -5   8   310910.02  669.41   1 0.05269-0.65386 0.35117 0.24398 0.93482-0.71619
   5  -8  -256164.47 1558.19   1-0.32340 0.92705-0.94609 0.33738 0.01771-0.16355
  -5   8   252323.92 1415.07   1 0.07337-0.67693 0.48515 0.12423 0.87134-0.72547
  -5   8   251775.12 1567.25   1-0.00053-0.60258 0.40083 0.20828 0.91615-0.77039
   5  -8  -1 4494.18  508.22   1-0.33941 0.94501-0.94063 0.31801 0.00333-0.07625
   5  -8   067531.50 2786.55   1-0.34581 0.95337-0.93829 0.30178-0.00246 0.00246
  -5   8   069456.4010656.03   1-0.11402-0.49297 0.49907 0.13801 0.85902-0.85902
   5  -8   118713.12 1028.18   1-0.34515 0.95466-0.93854 0.28812-0.00186 0.07477
  -5   8  -118909.90  986.18   1-0.17211-0.43685 0.54528 0.10573 0.82038-0.89329
   5  -8   221827.51 1388.62   1-0.33898 0.95045-0.94078 0.27646 0.00372 0.14211
  -5   8  -218662.03 1121.99   1-0.22966-0.38128 0.58816 0.07680 0.77544-0.92126
  -5   7   7 1330.61  373.46   1 0.39084-0.96676 0.52068-0.06085 0.75903-0.24830
  -5   7   7 2211.17  413.05   1 0.25911-0.83457 0.13637 0.32344 0.95616-0.44594
  -5   7   6 5265.22  632.86   1 0.36303-0.94091 0.51989-0.04611 0.77325-0.33548
  -5   7   6 6435.28  744.92   1 0.22269-0.80010 0.17703 0.29672 0.95867-0.52133
  -5   7   5 1278.89  455.51   1 0.32396-0.90380 0.51796-0.03023 0.79168-0.42687
  -5   7   5 1058.97  356.29   1 0.18049-0.75984 0.22261 0.26508 0.95805-0.59360
  -5   7   4 8080.22  762.95   1 0.27101-0.85281 0.51389-0.01221 0.81391-0.52207
  -5   7   4 8193.85  785.49   1 0.13275-0.71404 0.27227 0.22936 0.95301-0.66145
   5  -7  -3 2072.01  232.70   1-0.26320 0.84666-0.96215 0.44660 0.07051-0.28930
  -5   7   3 2390.53  329.10   1 0.20096-0.78458 0.50608 0.00970 0.83874-0.61994
  -5   7   3 1904.18  446.77   1 0.07995-0.66320 0.32486 0.19066 0.94237-0.72374
   5  -7  -227356.47 1045.42   1-0.30152 0.88718-0.95273 0.42358 0.03714-0.18298
  -5   7   228334.75 1047.46   1 0.10959-0.69518 0.49194 0.03777 0.86369-0.71783
  -5   7   228705.09 1121.89   1 0.02309-0.60829 0.37906 0.15042 0.92507-0.77932
   5  -7  -1 5922.65  521.72   1-0.32295 0.91057-0.94623 0.40319 0.01811-0.09103
  -5   7   1 6474.49  501.72   1-0.00740-0.58018 0.46763 0.07610 0.88389-0.81092
  -5   7   1 6010.97  556.36   1-0.03674-0.55039 0.43332 0.11012 0.90048-0.82760
   5  -7   029646.61 1217.48   1-0.33288 0.92246-0.94292 0.38597 0.00921-0.00921
  -5   7   029443.65 1062.21   1-0.15439-0.43518 0.42726 0.13041 0.89084-0.89084
  -5   7   030280.17 1186.95   1-0.09831-0.49076 0.48608 0.07136 0.86836-0.86836
   5  -7   140570.95 2046.92   1-0.33461 0.92614-0.94232 0.37147 0.00766 0.06525
  -5   7  -138132.02 1880.73   1-0.16022-0.43083 0.53606 0.03532 0.82883-0.90174
   5  -7   210165.97  875.76   1-0.33011 0.92360-0.94386 0.35911 0.01171 0.13412
  -5   7  -2 7769.41  734.74   1-0.22120-0.37182 0.58205 0.00327 0.78248-0.92829
   5  -7   362255.22 1844.53   1-0.32064 0.91609-0.94698 0.34833 0.02018 0.19857
  -5   7  -359969.20 1771.94   1-0.28029-0.31471 0.62330-0.02400 0.73001-0.94888
   5  -7   4 6493.70  830.30   1-0.30705 0.90446-0.95114 0.33858 0.03225 0.25941
  -5   6   8 1018.17  404.50   1 0.41893-0.97491 0.52096-0.15472 0.74370-0.16002
  -5   6   8  201.10  388.60   1 0.32522-0.88063 0.05956 0.30683 0.94375-0.36102
  -5   6   716547.91 1149.14   1 0.40199-0.95993 0.52085-0.14066 0.75306-0.24234
  -5   6   717465.17 1209.37   1 0.29408-0.85145 0.09653 0.28378 0.95089-0.44100
  -5   6   6  905.86  334.20   1 0.37596-0.93586 0.52032-0.12618 0.76675-0.32899
  -5   6   6  561.35  334.02   1 0.25639-0.81587 0.13945 0.25466 0.95645-0.51912
  -5   6   5 8375.63  656.55   1 0.33886-0.90071 0.51881-0.11072 0.78486-0.42006
  -5   6   5 9162.53  746.98   1 0.21218-0.77361 0.18854 0.21952 0.95886-0.59442
  -5   6   414525.59 1861.85   1 0.28814-0.85196 0.51539-0.09335 0.80705-0.51521
  -5   6   415697.46  679.22   1 0.16155-0.72492 0.24254 0.17946 0.95659-0.66503
   5  -6  -3 2094.01  215.47   1-0.21073 0.77626-0.97075 0.53480 0.11498-0.33377
  -5   6   3 2253.61  275.73   1 0.22075-0.78641 0.50856-0.07242 0.83224-0.61344
  -5   6   3 2157.30  289.10   1 0.10505-0.67039 0.30010 0.13579 0.94810-0.72947
   5  -6  -246115.41 1467.79   1-0.26382 0.83130-0.96202 0.51219 0.06998-0.21584
  -5   6   245982.58 1479.01   1 0.13276-0.70039 0.49594-0.04587 0.85814-0.71227
  -5   6   241409.61 1404.34   1 0.04388-0.61116 0.35955 0.09030 0.93209-0.78633
   5  -6  -1 1899.46  287.22   1-0.29330 0.86294-0.95498 0.49150 0.04436-0.11728
  -5   6   1 3006.73  283.17   1 0.02037-0.58998 0.47401-0.01000 0.88028-0.80734
  -5   6   1 1870.91  371.08   1-0.02062-0.54860 0.41898 0.04483 0.90775-0.83487
   5  -6   0 6727.12  461.81   1-0.30880 0.88039-0.95063 0.47324 0.03071-0.03071
  -5   6   0 5867.85  261.57   1-0.11954-0.45207 0.43783 0.04018 0.89107-0.89107
  -5   6   0 6597.59  494.28   1-0.08683-0.48432 0.47647 0.00133 0.87488-0.87488
   5  -6   110010.71  776.74   1-0.31431 0.88786-0.94896 0.45768 0.02582 0.04709
  -5   6  -1 9562.68  655.18   1-0.28729-0.28626 0.38119 0.11075 0.87872-0.95172
  -5   6  -1 8701.90  699.44   1-0.15308-0.42005 0.53046-0.03871 0.83376-0.90667
   5  -6   2 1656.13  562.47   1-0.31249 0.88800-0.94952 0.44433 0.02744 0.11839
  -5   6  -2  860.65  147.29   1-0.47770-0.09783 0.29659 0.20927 0.82693-0.97295
  -5   6  -2 1422.43  355.15   1-0.21782-0.35728 0.57959-0.07389 0.78525-0.93106
   5  -6   334067.23 1389.99   1-0.30497 0.88244-0.95175 0.43266 0.03409 0.18465
  -5   6  -331676.24 1244.71   1-0.27994-0.29714 0.62307-0.10342 0.73034-0.94921
   5  -6   423540.14 1219.91   1-0.29284 0.87226-0.95511 0.42212 0.04477 0.24689
  -5   6  -419995.17 1313.43   1-0.33831-0.24074 0.66033-0.12677 0.67044-0.96227
   5  -6   511855.37  704.38   1-0.27682 0.85820-0.95912 0.41223 0.05874 0.30584
  -5   6  -510926.88  614.13   1-0.39245-0.18855 0.69131-0.14384 0.60668-0.97147
   5  -6   631668.85 2863.87   1-0.25760 0.84075-0.96330 0.40238 0.07532 0.36224
  -5   5   963691.05 2598.67   1 0.38442-0.91992-0.01382 0.28668 0.92305-0.26748
  -5   5   827886.78 1291.31   1 0.42109-0.95909 0.52096-0.23436 0.74248-0.15879
  -5   5   828348.25 1242.03   1 0.35963-0.89711 0.01743 0.26934 0.93293-0.35020
  -5   5   740508.42 1534.64   1 0.40534-0.94530 0.52089-0.22034 0.75124-0.24052
  -5   5   741462.21 1573.44   1 0.32808-0.86753 0.05612 0.24456 0.94298-0.43309
  -5   5   639741.30 1347.31   1 0.38051-0.92242 0.52044-0.20594 0.76442-0.32666
  -5   5   640524.73 1330.67   1 0.28913-0.83070 0.10187 0.21262 0.95185-0.51451
  -5   5   538298.07 1390.76   1 0.34465-0.88852 0.51910-0.19065 0.78214-0.41734
  -5   5   540349.12 1457.74   1 0.24261-0.78612 0.15495 0.17348 0.95766-0.59321
   5  -5  -495289.44 2933.56   1 0.01178 0.53379-0.95732 0.61486 0.28878-0.58052
  -5   5   4103808.7 3311.07   1 0.29527-0.84110 0.51596-0.17356 0.80411-0.51227
  -5   5   4104280.9 3324.83   1 0.18855-0.73401 0.21402 0.12835 0.95845-0.66689
   5  -5  -3 7429.15  377.36   1-0.12815 0.67575-0.97487 0.61852 0.18219-0.40098
  -5   5   3 6958.23  437.12   1 0.22940-0.77709 0.50958-0.15310 0.82927-0.61047
  -5   5   3 7476.70  537.19   1 0.12764-0.67504 0.27747 0.07885 0.95221-0.73354
   5  -5  -266443.81 2085.31   1-0.20360 0.75315-0.97155 0.60132 0.12091-0.26677
  -5   5   265761.56 2089.31   1 0.14339-0.69306 0.49768-0.12727 0.85542-0.70955
  -5   5   268292.17 2197.27   1 0.06113-0.61049 0.34309 0.02713 0.93730-0.79155
   5  -5  -1 4163.72  379.67   1-0.24684 0.79835-0.96536 0.58123 0.08453-0.15746
  -5   5   1 3195.15  318.41   1 0.03391-0.58555 0.47699-0.09264 0.87825-0.80531
  -5   5   1 3528.89  368.14   1-0.00899-0.54231 0.40852-0.02433 0.91270-0.83982
   5  -5   044584.21 1510.34   1-0.27051 0.82412-0.96057 0.56275 0.06420-0.06420
  -5   5   041914.94 1356.35   1-0.10132-0.45233 0.44310-0.04476 0.89072-0.89072
  -5   5   042715.50 1486.74   1-0.08071-0.47253 0.47129-0.07312 0.87827-0.87827
   5  -5   121835.12  679.95   1-0.28188 0.83745-0.95790 0.54618 0.05434 0.01857
  -5   5  -120644.20  507.08   1-0.26141-0.29419 0.39096 0.02131 0.88250-0.95550
  -5   5  -121154.95  641.48   1-0.15188-0.40332 0.52952-0.11740 0.83458-0.90749
   5  -5   2 5055.47  523.65   1-0.28421 0.84174-0.95733 0.53170 0.05231 0.09352
  -5   5  -2 3482.95  289.68   1-0.43998-0.11760 0.31528 0.11090 0.84083-0.98684
  -5   5  -2 4037.93  457.85   1-0.22067-0.33651 0.58166-0.15561 0.78292-0.92873
   5  -5   332793.64 1257.41   1-0.27974 0.83923-0.95842 0.51890 0.05620 0.16255
  -5   5  -333538.03 1068.89   1-0.62221 0.06247 0.21359 0.22663 0.75314-0.97197
  -5   5  -334143.98 1246.63   1-0.28582-0.27335 0.62699-0.18700 0.72469-0.94356
   5  -5   4 1677.30  441.43   1-0.27010 0.83140-0.96066 0.50710 0.06455 0.22716
  -5   5  -4 1104.59  266.04   1-0.34618-0.21495 0.66506-0.21116 0.66169-0.95352
   5  -5   5 1820.94  578.93   1-0.25584 0.81910-0.96365 0.49621 0.07683 0.28781
  -5   5  -5 1741.07  429.12   1-0.40139-0.16169 0.69605-0.22824 0.59530-0.96008
   5  -5   6 1806.69  420.78   1-0.23784 0.80305-0.96691 0.48559 0.09218 0.34539
  -5   5  -6 1365.56  362.32   1-0.45143-0.11340 0.72029-0.23856 0.52666-0.96448
  -5   4  10  876.46  481.91   1 0.42356-0.93966 0.52095-0.34190 0.74107-0.01147
  -5   4  10 1220.66  525.71   1 0.43524-0.95085-0.08059 0.25992 0.89669-0.16828
  -5   4   931637.77 1392.57   1 0.42281-0.94087 0.52095-0.32795 0.74150-0.08486
  -5   4   940142.55 1637.83   1 0.41746-0.93504-0.05679 0.25003 0.90691-0.25134
  -5   4   836934.68 1447.40   1 0.41548-0.93550 0.52095-0.31400 0.74563-0.16195
  -5   4   836140.40 1387.57   1 0.39309-0.91265-0.02496 0.23211 0.91915-0.33642
  -5   4   726668.47 1047.42   1 0.40047-0.92244 0.52083-0.29993 0.75389-0.24316
  -5   4   726303.74  935.16   1 0.36121-0.88274 0.01545 0.20561 0.93235-0.42246
  -5   4   670815.27 2350.78   1 0.37627-0.90020 0.52032-0.28547 0.76660-0.32883
  -5   4   670179.46 2310.24   1 0.32095-0.84445 0.06470 0.17028 0.94488-0.50783
  -5   4   536099.39  897.18   1 0.34094-0.86683 0.51891-0.27011 0.78388-0.41908
  -5   4   537683.94  915.21   1 0.27167-0.79726 0.12205 0.12675 0.95461-0.59016
   5  -4  -4 4885.44  265.04   1 0.19840 0.32898-0.88708 0.62427 0.41680-0.70855
  -5   4   4 5385.33  449.08   1 0.29203-0.81988 0.51570-0.25294 0.80545-0.51361
  -5   4   4 4839.35  395.98   1 0.21340-0.74094 0.18720 0.07554 0.95885-0.66729
   5  -4  -3191161.0 2665.07   1-0.00612 0.53572-0.96124 0.68450 0.27561-0.49442
  -5   4   3197399.8 2909.70   1 0.22667-0.75639 0.50926-0.23244 0.83022-0.61142
  -5   4   3191983.5 2830.82   1 0.14689-0.67638 0.25776 0.01893 0.95497-0.73630
   5  -4  -227072.35  664.59   1-0.11454 0.64616-0.97449 0.68386 0.19295-0.33881
  -5   4   228104.11  774.18   1 0.14144-0.67314 0.49736-0.20661 0.85593-0.71006
  -5   4   228247.20  816.23   1 0.07378-0.60523 0.33087-0.04027 0.94078-0.79503
   5  -4  -1100964.6 2093.34   1-0.17761 0.71118-0.97375 0.66923 0.14233-0.21526
  -5   4   1102306.7 2129.68   1 0.03350-0.56718 0.47690-0.17221 0.87831-0.80538
  -5   4   1102654.3 2188.10   1-0.00329-0.53009 0.40335-0.09878 0.91503-0.84216
   5  -4   018662.17 1073.53   1-0.21447 0.75001-0.97030 0.65189 0.11185-0.11185
  -5   4   020361.87 1132.82   1-0.09858-0.43712 0.44388-0.12521 0.89064-0.89064
  -5   4   019207.97 1141.85   1-0.08156-0.45376 0.47202-0.15347 0.87780-0.87780
   5  -4   1138071.6 2154.61   1-0.23457 0.77207-0.96744 0.63515 0.09494-0.02202
  -5   4  -1134031.7 1976.11   1-0.25283-0.28482 0.39412-0.06151 0.88359-0.95660
  -5   4  -1137486.6 2143.83   1-0.15831-0.37898 0.53457-0.20209 0.83016-0.90306
   5  -4   2 1564.52  299.06   1-0.24311 0.78256-0.96602 0.61984 0.08770 0.05815
  -5   4  -2 2193.15  239.92   1-0.42199-0.11763 0.32384 0.02268 0.84678-0.99279
  -5   4  -2 2021.30  340.87   1-0.23131-0.30795 0.58935-0.24293 0.77405-0.91986
   5  -4   396420.85 1873.03   1-0.24321 0.78462-0.96600 0.60594 0.08762 0.13116
  -5   4  -3100466.4 1721.74   1-0.59203 0.05026 0.23247 0.12808 0.77165-0.99048
  -5   4  -398929.50 1831.89   1-0.29924-0.24202 0.63580-0.27546 0.71147-0.93034
   5  -4   416055.26 1028.58   1-0.23683 0.78020-0.96708 0.59313 0.09303 0.19868
  -5   4  -416608.68  922.69   1-0.74504 0.20158 0.12473 0.24972 0.65524-0.94710
  -5   4  -416956.57 1071.15   1-0.36105-0.18217 0.67379-0.29954 0.64470-0.93652
   5  -4   527947.22 1111.47   1-0.22529 0.77061-0.96885 0.58101 0.10278 0.26186
  -5   4  -525677.64  798.12   1-0.86373 0.31840 0.00880 0.37950 0.50386-0.86867
  -5   4  -529024.02 1606.62   1-0.41671-0.12827 0.70381-0.31565 0.57531-0.94016
   5  -4   620269.35  974.81   1-0.20945 0.75673-0.97090 0.56918 0.11604 0.32153
  -5   4  -615544.44 1477.82   1-0.46619-0.08075 0.72668-0.32461 0.50458-0.94239
   5  -4   7 1066.66  536.60   1-0.18993 0.73917-0.97285 0.55724 0.13221 0.37828
  -5   4  -7  773.00  314.97   1-0.50989-0.03899 0.74307-0.32710 0.43340-0.94418
   5  -4   817871.07 1202.20   1-0.16716 0.71835-0.97432 0.54482 0.15085 0.43258
  -5   4  -814324.74 1901.16   1-0.54826-0.00257 0.75372-0.32384 0.36235-0.94610
  -5   3  10 3475.87  499.81   1 0.40848-0.90660 0.52091-0.42150 0.74952-0.01991
  -5   3  10 3943.93  413.41   1 0.46584-0.96372-0.12247 0.22230 0.87634-0.14773
  -5   3   9  972.63  399.69   1 0.40836-0.90843 0.52091-0.40755 0.74959-0.09294
  -5   3   9  936.98  461.63   1 0.44922-0.94905-0.09936 0.21309 0.88787-0.23211
  -5   3   826076.78 1004.03   1 0.40148-0.90351 0.52084-0.39353 0.75334-0.16966
  -5   3   827628.22  884.78   1 0.42558-0.92721-0.06760 0.19514 0.90238-0.31966
  -5   3   7 3967.14  559.19   1 0.38671-0.89071 0.52059-0.37933 0.76120-0.25047
  -5   3   7 4413.11  444.73   1 0.39349-0.89709-0.02546 0.16691 0.91897-0.40908
  -5   3   675914.79 1479.94   1 0.35169-0.85727 0.02728 0.12808 0.93571-0.49867
  -5   3   555810.11 1085.67   1 0.32705-0.83496 0.51815-0.34898 0.79028-0.42548
  -5   3   555414.50 1022.95   1 0.29914-0.80670 0.09059 0.07869 0.94989-0.58569
   5  -3  -4 6704.82  415.72   1 0.78734-0.27781 0.29778-0.48093 0.53982-0.83158
   5  -3  -4 7747.45  423.12   1 0.42932 0.08018-0.71563 0.53236 0.55095-0.84270
  -5   3   4 7878.11  555.74   1 0.27778-0.78765 0.51450-0.33139 0.81124-0.51940
  -5   3   4 8477.88  586.13   1 0.23554-0.74517 0.16283 0.02028 0.95812-0.66656
   5  -3  -377963.62 1719.24   1 0.72866-0.21722 0.54008-0.73707 0.42113-0.63995
   5  -3  -382800.99 1822.23   1 0.15793 0.35349-0.90703 0.70993 0.39031-0.60912
  -5   3   387800.01 2061.63   1 0.21196-0.72372 0.50748-0.31032 0.83517-0.61637
  -5   3   383045.78 1937.65   1 0.16177-0.67334 0.24231-0.04525 0.95661-0.73794
   5  -3  -2 2969.65  402.88   1 0.68378-0.17050 0.63485-0.84579 0.35970-0.50552
   5  -3  -2 4316.04  307.74   1 0.00860 0.50501-0.95805 0.74703 0.28645-0.43231
  -5   3   2 4351.08  433.33   1 0.12650-0.64024 0.49489-0.28379 0.85969-0.71382
  -5   3   2 4875.32  411.25   1 0.08010-0.59363 0.32472-0.11375 0.94241-0.79665
   5  -3  -1182208.2 3986.36   1-0.08110 0.59675-0.97233 0.74741 0.21905-0.29198
  -5   3   1182428.1 4019.50   1 0.01912-0.53483 0.47373-0.24869 0.88046-0.80752
  -5   3   1188382.9 4151.93   1-0.00575-0.50971 0.40558-0.18065 0.91403-0.84116
   5  -3   082236.39 1909.48   1-0.13592 0.65352-0.97495 0.73615 0.17600-0.17600
  -5   3   078477.03 1817.74   1-0.11074-0.40701 0.44040-0.20139 0.89094-0.89094
  -5   3   081762.64 1898.45   1-0.09189-0.42551 0.48072-0.24181 0.87204-0.87204
   5  -3   184137.39 1970.92   1-0.16851 0.68807-0.97425 0.72156 0.14975-0.07682
  -5   3  -181452.14 1861.53   1-0.25999-0.25970 0.39149-0.13855 0.88268-0.95569
  -5   3  -183571.66 1958.65   1-0.17478-0.34460 0.54734-0.29449 0.81845-0.89135
   5  -3   2182077.2 3728.67   1-0.18603 0.70754-0.97316 0.70658 0.13543 0.01042
  -5   3  -2182425.4 3640.32   1-0.42068-0.10100 0.32446-0.05760 0.84720-0.99321
  -5   3  -2182962.9 3707.04   1-0.25196-0.26944 0.60394-0.33716 0.75615-0.90206
   5  -3   364004.58 1242.04   1-0.19278 0.71626-0.97260 0.69214 0.12986 0.08891
  -5   3  -366926.21 1096.02   1-0.57959 0.05579 0.23998 0.04089 0.77877-0.99760
  -5   3  -366377.13 1184.57   1-0.32182-0.20153 0.65019-0.36950 0.68824-0.90710
   5  -3   4106852.5 3407.02   1-0.19148 0.71691-0.97272 0.67837 0.13094 0.16077
  -5   3  -4107406.9 3292.10   1-0.72211 0.19659 0.14305 0.15172 0.67681-0.96867
  -5   3  -4102999.2 3223.90   1-0.38404-0.14127 0.68674-0.39215 0.61716-0.90898
   5  -3   574295.74 2471.40   1-0.18389 0.71127-0.97332 0.66508 0.13718 0.22745
  -5   3  -572752.82 2295.17   1-0.83543 0.30790 0.04075 0.26796 0.54807-0.91290
  -5   3  -571365.32 2377.08   1-0.43891-0.08818 0.71458-0.40607 0.54473-0.90957
   5  -3   662934.08 2070.04   1-0.17121 0.70056-0.97412 0.65199 0.14755 0.29002
  -5   3  -655034.90 1619.65   1-0.91338 0.38399-0.05978 0.38235 0.40267-0.84044
  -5   3  -655463.51 1754.45   1-0.48679-0.04225 0.73490-0.41249 0.47216-0.90997
   5  -3   739878.94 1619.11   1-0.15427 0.68558-0.97477 0.63876 0.16128 0.34922
  -5   3  -732222.06 1554.87   1-0.52843-0.00256 0.74872-0.41240 0.40021-0.91099
  -5   3  -8 6654.28  999.52   1-0.56449 0.03125 0.75694-0.40668 0.32922-0.91303
   5  -3   928355.72 2564.75   1-0.10976 0.64498-0.97429 0.61051 0.19672 0.45963
  -5   3  -922852.97 3173.48   1-0.59561 0.06044 0.76022-0.39607 0.25944-0.91622
  -5   2  10 1507.72  528.15   1 0.38482-0.86495 0.52055-0.50078 0.76219-0.03258
  -5   2  10  772.12  414.46   1 0.49495-0.97491-0.16422 0.18442 0.85325-0.12464
  -5   2   9 9043.94  830.20   1 0.38500-0.86710 0.52055-0.48683 0.76209-0.10545
  -5   2   9 8292.48  643.95   1 0.47975-0.96166-0.14221 0.17631 0.86580-0.21004
  -5   2   8  155.13  378.82   1 0.37817-0.86223 0.52038-0.47271 0.76562-0.18194
  -5   2   8  737.47  371.29   1 0.45696-0.94082-0.11006 0.15807 0.88264-0.29975
  -5   2   7   75.76  402.01   1 0.36316-0.84917 0.51989-0.45827 0.77318-0.26246
  -5   2   7  673.14  305.40   1 0.42487-0.91055-0.06665 0.12848 0.90279-0.39290
  -5   2   610650.08  819.89   1 0.33843-0.82640 0.51878-0.44321 0.78506-0.34729
  -5   2   6 9365.95  575.49   1 0.38134-0.86900-0.00990 0.08565 0.92437-0.48733
  -5   2   5  470.71  310.11   1 0.30203-0.79196 0.51647-0.42695 0.80126-0.43645
  -5   2   5  456.92  193.40   1 0.32466-0.81429 0.06024 0.02941 0.94390-0.57970
   5  -2  -495394.18 2061.26   1 0.69461-0.20310 0.61428-0.71776 0.37437-0.66599
   5  -2  -4101493.4 2187.85   1 0.61776-0.12612-0.47085 0.36719 0.62981-0.92155
  -5   2   4104208.6 2349.93   1 0.25401-0.74571 0.14214-0.03865 0.95669-0.66513
   5  -2  -3158185.0 2756.02   1 0.34514 0.14839-0.79068 0.67313 0.50565-0.72447
  -5   2   3150020.8 2629.38   1-0.60510 0.11139-0.75121 0.86879-0.26369 0.48247
  -5   2   3153997.8 2825.09   1 0.18446-0.67825 0.50385-0.38634 0.84386-0.62505
  -5   2   3157385.0 2832.52   1 0.17035-0.66400 0.23331-0.11588 0.95736-0.73869
   5  -2  -242469.80  825.85   1 0.16243 0.33304-0.90494 0.77354 0.39329-0.53917
  -5   2   239412.26  796.12   1-0.56192 0.06626-0.79867 0.93015-0.21529 0.36114
  -5   2   243859.41  986.66   1 0.09798-0.59375 0.48984-0.35839 0.86628-0.72041
  -5   2   242669.07  894.86   1 0.07711-0.57272 0.32763-0.19630 0.94165-0.79589
   5  -2  -122820.06 1057.42   1 0.04401 0.45362-0.94902 0.80372 0.31210-0.38504
  -5   2   119701.10  921.77   1-0.54259 0.04495-0.81718 0.96254-0.19442 0.26735
  -5   2   123925.80 1146.05   1-0.00945-0.48835 0.46714-0.32175 0.88412-0.81116
  -5   2   123396.32 1095.06   1-0.02011-0.47744 0.41853-0.27323 0.90797-0.83509
   5  -2   0309684.4 5409.12   1-0.03268 0.53226-0.96616 0.80699 0.25582-0.25582
  -5   2   0301313.2 5271.79   1-0.13741-0.36238 0.43249-0.27315 0.89110-0.89110
  -5   2   0311305.9 5445.99   1-0.11559-0.38390 0.50035-0.34108 0.85806-0.85806
   5  -2   1 4096.31  321.63   1-0.08136 0.58298-0.97235 0.79926 0.21885-0.14592
  -5   2  -1 3110.76  290.76   1-0.28171-0.22003 0.38333-0.21007 0.87959-0.95260
  -5   2  -1 3115.81  260.13   1-0.20475-0.29670 0.56997-0.39676 0.79573-0.86864
   5  -2   2240512.8 5288.86   1-0.11086 0.61445-0.97434 0.78736 0.19585-0.04999
  -5   2  -2236545.1 5155.88   1-0.43388-0.06984 0.31821-0.13103 0.84290-0.98891
  -5   2  -2229390.2 5018.88   1-0.28505-0.21843 0.62648-0.43936 0.72543-0.87134
   5  -2   321442.12 1363.63   1-0.12667 0.63221-0.97484 0.77398 0.18337 0.03541
  -5   2  -320919.45 1234.37   1-0.58171 0.07588 0.23871-0.03750 0.77757-0.99641
  -5   2  -319631.36 1211.37   1-0.35540-0.15004 0.67051-0.46947 0.65123-0.87010
   5  -2   499465.71 1701.46   1-0.13233 0.63983-0.97493 0.76018 0.17887 0.11284
  -5   2  -4102534.4 1562.30   1-0.71342 0.20583 0.14976 0.06533 0.68454-0.97640
  -5   2  -495511.12 1548.19   1-0.41632-0.09092 0.70362-0.48868 0.57583-0.86770
  -5   2  -528364.49  957.21   1-0.81939 0.30980 0.05738 0.17165 0.57035-0.93517
  -5   2  -530637.65 2000.89   1-0.46859-0.04061 0.72768-0.49883 0.50089-0.86574
   5  -2   677750.33 2585.97   1-0.12193 0.63334-0.97473 0.73221 0.18712 0.25045
  -5   2  -676642.10 2427.28   1-0.89580 0.38433-0.03298 0.27589 0.44323-0.88100
  -5   2  -676653.16 2509.96   1-0.51334 0.00219 0.74419-0.50144 0.42737-0.86518
   5  -2   790948.37 2783.60   1-0.10859 0.62196-0.97424 0.71783 0.19764 0.31285
  -5   2  -785022.16 2465.78   1-0.94327 0.43010-0.11754 0.37446 0.31049-0.82145
  -5   2  -793569.82 2927.58   1-0.55162 0.03826 0.75449-0.49783 0.35559-0.86642
   5  -2   820984.57 1244.62   1-0.09096 0.60629-0.97315 0.70286 0.21141 0.37201
  -5   2  -817638.06  902.50   1-0.96458 0.44949-0.19370 0.46456 0.17902-0.76297
  -5   2  -817114.69 1370.55   1-0.58436 0.06907 0.75951-0.48895 0.28575-0.86956
   5  -2   954743.70 2301.60   1-0.06960 0.58689-0.97119 0.68701 0.22791 0.42845
  -5   2  -945901.06 2007.16   1-0.61228 0.09506 0.76007-0.47562 0.21771-0.87449
  -5   1  1022739.67  951.14   1 0.35147-0.81362 0.51942-0.57929 0.77888-0.04928
  -5   1  1024251.62  843.56   1 0.52231-0.98434-0.20515 0.14572 0.82770-0.09909
  -5   1   9  943.93  358.27   1 0.35164-0.81575 0.51942-0.56534 0.77880-0.12216
  -5   1   9  894.75  326.18   1 0.50882-0.97281-0.18475 0.13923 0.84081-0.18505
  -5   1   882961.46 2678.88   1 0.34442-0.81049 0.51909-0.55106 0.78225-0.19856
  -5   1   879173.30 2443.79   1 0.48727-0.95321-0.15303 0.12142 0.85973-0.27684
  -5   1   7  569.33  353.89   1 0.32862-0.79665 0.51824-0.53626 0.78957-0.27884
  -5   1   7  358.65  178.11   1 0.45523-0.92313-0.10767 0.08996 0.88383-0.37380
  -5   1   612733.78  749.03   1 0.30270-0.77269 0.51652-0.52059 0.80097-0.36321
  -5   1   611226.99  590.78   1 0.40977-0.87951-0.04666 0.04279 0.91099-0.47394
   5  -1  -5  -30.46   30.72   1 0.77230-0.30070 0.39117-0.40120 0.50052-0.86521
   5  -1  -468498.85 1495.65   1 0.71195-0.23825-0.27285 0.24882 0.64704-0.93878
  -5   1   469157.59 1525.03   1-0.41339-0.06046-0.90821 0.93217-0.06525 0.35693
  -5   1   470865.76 1690.36   1 0.21239-0.68624 0.50754-0.48362 0.83503-0.54330
  -5   1   470564.03 1623.05   1 0.26704-0.74082 0.12735-0.10349 0.95523-0.66367
   5  -1  -3 3461.49  208.38   1 0.51116-0.03551-0.62513 0.58719 0.58985-0.80866
  -5   1   3 3492.24  230.68   1-0.37805-0.09775-0.92522 0.96309-0.03204 0.25079
  -5   1   3 4102.17  408.21   1 0.14323-0.61906 0.49765-0.45980 0.85546-0.63666
  -5   1   3 3708.15  278.11   1 0.16903-0.64476 0.23471-0.19691 0.95725-0.73858
   5  -1  -216887.94  712.89   1 0.32825 0.14933-0.80379 0.75200 0.49614-0.64201
  -5   1   214870.43  642.06   1-0.37270-0.10505-0.92755 0.97931-0.02709 0.17293
  -5   1   215794.61  750.23   1 0.05524-0.53305 0.48150-0.42971 0.87470-0.72883
  -5   1   214790.44  651.87   1 0.05927-0.53697 0.34488-0.29317 0.93677-0.79101
   5  -1  -112045.92  531.08   1 0.19029 0.28923-0.89129 0.82559 0.41155-0.48449
  -5   1   110046.93  488.53   1-0.38170-0.09802-0.92360 0.98926-0.03543 0.10835
  -5   1   112390.35  636.37   1-0.05239-0.42745 0.45644-0.39072 0.88820-0.81524
  -5   1   111994.69  552.35   1-0.05294-0.42669 0.44752-0.38185 0.89270-0.81982
   5  -1   012669.37  596.27   1 0.09318 0.38846-0.93329 0.85371 0.34680-0.34680
  -5   1   011547.53  578.09   1-0.17811-0.30373 0.41971-0.34004 0.89001-0.89001
  -5   1   013495.65  621.63   1-0.15889-0.32267 0.53502-0.45539 0.82975-0.82975
   5  -1   1 2142.49  300.60   1 0.02683 0.45675-0.95364 0.86019 0.29973-0.22679
  -5   1  -1 1663.33  260.09   1-0.31677-0.16701 0.36959-0.27600 0.87352-0.94653
  -5   1  -1 2096.46  225.00   1-0.25324-0.23037 0.60483-0.51127 0.75500-0.82796
   5  -1   2 1306.56  200.82   1-0.01680 0.50234-0.96335 0.85603 0.26769-0.12182
  -5   1  -2 1836.65  239.71   1-0.45971-0.02606 0.30564-0.19813 0.83381-0.97982
  -5   1  -2 1952.99  267.97   1-0.33394-0.15163 0.65768-0.55021 0.67522-0.82114
   5  -1   336123.73  949.20   1-0.04376 0.53126-0.96790 0.84672 0.24747-0.02867
  -5   1  -333613.10 1948.99   1-0.59593 0.10807 0.23008-0.10855 0.76936-0.98819
  -5   1  -333667.69 1962.45   1-0.40172-0.08581 0.69623-0.57485 0.59487-0.81374
   5  -1   4 7340.06  570.37   1-0.05826 0.54771-0.96989 0.83484 0.23647 0.05526
  -5   1  -4 7190.70  506.46   1-0.71625 0.22661 0.14759-0.01216 0.68204-0.97390
  -5   1  -4 7300.95  862.53   1-0.45841-0.03094 0.72336-0.58808 0.51633-0.80820
   5  -1   525589.19  743.68   1-0.06320 0.55460-0.97049 0.82157 0.23269 0.13198
  -5   1  -526630.53  606.82   1-0.81358 0.32193 0.06319 0.08617 0.57800-0.94283
  -5   1  -528020.65 1317.97   1-0.50573 0.01442 0.74169-0.59250 0.44058-0.80543
   5  -1   6 5830.93  497.33   1-0.06064 0.55399-0.97018 0.80740 0.23465 0.20295
  -5   1  -6 5923.02  406.78   1-0.88568 0.39214-0.01898 0.18223 0.46389-0.90167
  -5   1  -6 7592.27  770.16   1-0.54544 0.05218 0.75308-0.58999 0.36790-0.80572
   5  -1   715430.99  592.37   1-0.05199 0.54730-0.96907 0.79242 0.24123 0.26930
  -5   1  -714086.99  407.21   1-0.93338 0.43785-0.09595 0.27312 0.34581-0.85655
  -5   1  -715241.66 1340.06   1-0.57890 0.08349 0.75896-0.58200 0.29805-0.80888
   5  -1   823754.66 1384.34   1-0.03829 0.53555-0.96707 0.77655 0.25160 0.33187
  -5   1  -826006.58  808.58   1-0.95945 0.46231-0.16646 0.35764 0.22744-0.81139
  -5   1  -823326.87 1930.05   1-0.60718 0.10984 0.76028-0.56942 0.23086-0.81466
   5  -1   926765.16 1242.24   1-0.02027 0.51947-0.96400 0.75962 0.26511 0.39130
  -5   1  -923376.71  953.88   1-0.96673 0.46747-0.22947 0.43471 0.11299-0.76973
  -5   1  -921375.74 2415.52   1-0.63106 0.13179 0.75778-0.55303 0.16588-0.82266
   5  -1  1037328.32 2058.42   1 0.00155 0.49959-0.95962 0.74137 0.28127 0.44806
  -5   1 -1028649.98 3532.47   1-0.65122 0.14994 0.75190-0.53334 0.10269-0.83250
  -5   0  1054005.48 1635.62   1 0.30706-0.75124 0.51684-0.65635 0.79911-0.06950
  -5   0  1053767.29 1505.74   1 0.54770-0.99181-0.24486 0.10581 0.80004-0.07142
  -5   0   916178.79  812.78   1 0.30686-0.75300 0.51683-0.64239 0.79919-0.14255
  -5   0   915705.63  743.53   1 0.53624-0.98231-0.22671 0.10157 0.81304-0.15728
  -5   0   851839.59 1777.96   1 0.29881-0.74690 0.51623-0.62784 0.80262-0.21894
  -5   0   853783.09 1705.92   1 0.51630-0.96432-0.19600 0.08476 0.83367-0.25078
  -5   0   755782.58 1209.63   1 0.28170-0.73175 0.51484-0.61250 0.80967-0.29895
  -5   0   758062.85 1094.34   1 0.48463-0.93461-0.14923 0.05189 0.86189-0.35185
   5   0  -6163204.3 2245.92   1 0.69516-0.24337 0.61320-0.52962 0.37513-0.81256
  -5   0   6153802.6 2114.95   1 0.00730-0.45931-0.95835 0.87515 0.28550 0.15210
  -5   0   6176045.5 2690.93   1 0.25406-0.70598 0.51225-0.59586 0.82039-0.38279
  -5   0   6173597.5 2490.86   1 0.43676-0.88857-0.08265-0.00083 0.89576-0.45872
   5   0  -532216.03 1705.20   1 0.79237-0.33873 0.24092-0.17136 0.56044-0.92514
  -5   0   529014.32 1650.98   1-0.01627-0.43768-0.96325 0.89392 0.26809 0.09658
  -5   0   535284.89  974.95   1 0.21378-0.66768 0.50771-0.57739 0.83457-0.46991
  -5   0   533041.01  820.14   1 0.36692-0.82070 0.00832-0.07790 0.93021-0.56600
   5   0  -527774.54 1598.70   1 0.70969-0.25576-0.64272 0.71250 0.28850-0.65339
   5   0  -425532.79 1137.91   1 0.75325-0.29759-0.14295 0.19866 0.64200-0.93379
  -5   0   423018.78 1034.78   1-0.05276-0.40313-0.96917 0.91371 0.24065 0.05108
  -5   0   426007.91 1271.42   1 0.15890-0.61478 0.50011-0.55585 0.85125-0.55951
  -5   0   427636.89 1256.53   1 0.27099-0.72686 0.12283-0.17859 0.95471-0.66315
   5   0  -425104.41 1134.11   1 0.69342-0.23750-0.54468 0.60045 0.47167-0.76357
   5   0  -3269987.0 5294.71   1 0.62680-0.16907-0.45511 0.49678 0.63244-0.85124
  -5   0   3242344.3 4775.61   1-0.09509-0.36283-0.97345 0.93179 0.20820 0.01058
  -5   0   3268440.5 5357.50   1 0.08739-0.54524 0.48786-0.52966 0.86853-0.64973
  -5   0   3269789.4 5312.00   1 0.15002-0.60783 0.25453-0.29636 0.95535-0.73668
   5   0  -3253613.4 4981.99   1 0.63509-0.17729-0.40054 0.44226 0.66047-0.87918
   5   0  -261828.65 1284.67   1 0.47622-0.01655-0.66617 0.69395 0.57395-0.71982
  -5   0   257990.74 1224.94   1-0.14032-0.31955-0.97496 0.94719 0.17249-0.02663
  -5   0   264119.23 1435.29   1-0.00211-0.45778 0.46888-0.49677 0.88325-0.73732
  -5   0   259571.42 1238.45   1 0.01500-0.47478 0.38657-0.41449 0.92213-0.77638
   5   0  -258578.94 1205.84   1 0.52739-0.06765-0.21295 0.24076 0.82249-0.96822
   5   0  -130007.41 1208.95   1 0.34013 0.12146-0.79465 0.80854 0.50281-0.57575
  -5   0   127672.10 1124.02   1-0.18627-0.27556-0.97314 0.95926 0.13523-0.06230
  -5   0   129957.51 1203.31   1-0.11653-0.34515 0.50112-0.51506 0.85749-0.78458
   5   0  -127999.95 1117.10   1 0.38289 0.07879-0.01187 0.02579 0.92371-0.99655
   5   0   0117165.7 1860.69   1 0.23178 0.23178-0.86855 0.86855 0.43804-0.43804
  -5   0   0116402.6 1895.95   1-0.23194-0.23194 0.40145-0.40145 0.88602-0.88602
  -5   0   0117187.0 1845.07   1-0.23182-0.23182 0.58971-0.58971 0.77362-0.77362
   5   0   0108354.6 1693.92   1 0.23182 0.23182 0.16696-0.16696 0.95832-0.95832
   5   0   1 1378.49  246.35   1 0.15104 0.31445-0.91016 0.89625 0.38572-0.31278
  -5   0  -1 1891.56  269.35   1-0.36367-0.10215 0.35007-0.33615 0.86324-0.93624
  -5   0  -1 3437.73  227.99   1-0.32634-0.13937 0.65300-0.63909 0.68343-0.75639
   5   0   286709.14 1839.90   1 0.09373 0.37387-0.93309 0.90536 0.34718-0.20131
  -5   0  -288247.57 1854.85   1-0.49597 0.02807 0.28673-0.25883 0.81962-0.96551
  -5   0  -284242.57 1755.54   1-0.40164-0.06602 0.69618-0.66837 0.59497-0.74089
   5   0   310206.76  645.08   1 0.05478 0.41477-0.94589 0.90430 0.31980-0.10099
  -5   0  -3 9143.37  540.58   1-0.62001 0.15013 0.21500-0.17314 0.75455-0.97338
  -5   0  -3 9953.18  718.58   1-0.46168-0.00782 0.72477-0.68305 0.51141-0.73032
  -5   0  -440244.78 1011.57   1-0.72835 0.25665 0.13816-0.08241 0.67112-0.96298
  -5   0  -440417.95 1601.74   1-0.50995 0.03848 0.74309-0.68747 0.43331-0.72518
   5   0   525952.90 1448.02   1 0.01692 0.45653-0.95610 0.88677 0.29253 0.07214
  -5   0  -527076.31  697.72   1-0.81612 0.34242 0.06066 0.00903 0.57467-0.93950
  -5   0  -528805.89 1309.93   1-0.54931 0.07590 0.75395-0.68443 0.36026-0.72511
   5   0   6 8415.26  702.36   1 0.01255 0.46285-0.95714 0.87394 0.28934 0.14826
  -5   0  -6 7181.11  431.82   1-0.88226 0.40665-0.01443 0.09801 0.47053-0.90830
  -5   0  -6 7548.83  662.82   1-0.58186 0.10634 0.75928-0.67591 0.29141-0.72927
   5   0   7 1141.10  381.14   1 0.01540 0.46195-0.95646 0.85940 0.29142 0.21911
  -5   0  -7  730.55  224.58   1-0.92776 0.45016-0.08495 0.18246 0.36336-0.87410
  -5   0  -7 1734.45  385.19   1-0.60901 0.13156 0.76022-0.66296 0.22617-0.73700
   5   0   811299.14  866.82   1 0.02421 0.45509-0.95431 0.84338 0.29783 0.28564
  -5   0  -810846.60  752.85   1-0.95500 0.47580-0.15008 0.26156 0.25580-0.83975
  -5   0  -810472.66 1137.23   1-0.63179 0.15240 0.75764-0.64648 0.16373-0.74754
   5   0   9 2679.57  529.29   1 0.03807 0.44319-0.95067 0.82587 0.30784 0.34856
  -5   0  -9 1114.37  264.02   1-0.96617 0.48506-0.20902 0.33443 0.15106-0.80800
  -5   0  -9 1524.34  316.90   1-0.65099 0.16958 0.75199-0.62701 0.10349-0.76032
   5   0  10 9196.92  687.11   1 0.05630 0.42691-0.94544 0.80678 0.32088 0.40846
  -5   0 -10 7376.37  508.83   1-0.96376 0.48051-0.26204 0.40153 0.04995-0.77966
  -5   0 -10 7952.99 1097.53   1-0.66694 0.18359 0.74374-0.60487 0.04505-0.77486
  -5  -1  10 2149.99  450.74   1 0.25018-0.67622 0.51185-0.73086 0.82183-0.09250
  -5  -1   948414.29 1759.71   1 0.24923-0.67725 0.51175-0.71683 0.82218-0.16578
  -5  -1   945006.16 1587.62   1 0.56174-0.98989-0.26767 0.06290 0.78280-0.12705
  -5  -1   8 1533.53  309.85   1 0.23986-0.66986 0.51075-0.70189 0.82558-0.24211
  -5  -1   8 1242.94  206.83   1 0.54385-0.97395-0.23872 0.04786 0.80450-0.22161
   5   1  -760149.43 1039.14   1 0.65530-0.22337 0.68286-0.50575 0.32291-0.83325
  -5  -1   767354.12 1384.33   1 0.22088-0.65286 0.50858-0.68578 0.83219-0.32166
  -5  -1   762479.91 1140.68   1 0.51288-0.94494-0.19084 0.01388 0.83697-0.32694
   5   1  -622063.11 1055.64   1 0.75089-0.31727 0.47632-0.31325 0.45746-0.89510
  -5  -1   622664.73 1192.70   1 0.19078-0.62473 0.50472-0.66799 0.84193-0.40433
  -5  -1   620443.06  961.17   1-0.65297 0.21873 0.75117-0.91418 0.09669 0.34119
  -5  -1   622989.90  462.21   1 0.46174-0.89575-0.11672-0.04632 0.87929-0.44212
   5   1  -5276515.0 5947.52   1 0.79330-0.35763 0.22387-0.07471 0.56617-0.93086
  -5  -1   5245818.5 5301.34   1 0.28263-0.71865-0.83658 0.68744 0.46930-0.10461
  -5  -1   5285058.0 6244.97   1 0.14780-0.58374 0.49838-0.64772 0.85426-0.48959
  -5  -1   5234393.9 5057.50   1-0.68808 0.25189 0.72368-0.87280-0.05313 0.41803
  -5  -1   5270649.0 5829.94   1 0.38005-0.81592-0.00826-0.14093 0.92492-0.56072
   5   1  -453688.18  997.13   1 0.77372-0.33601-0.05088 0.18622 0.63147-0.92326
  -5  -1   449174.89  935.02   1 0.22012-0.65808-0.87524 0.74001 0.43068-0.13893
  -5  -1   454611.16 1181.60   1 0.09015-0.52807 0.48838-0.62378 0.86795-0.57622
  -5  -1   454114.76 1010.01   1 0.25678-0.69474 0.13901-0.27440 0.95641-0.66485
   5   1  -3129596.3 2588.60   1 0.69779-0.25800-0.30889 0.43021 0.64626-0.86507
  -5  -1   3115998.6 2332.85   1 0.15200-0.59189-0.90973 0.78841 0.38636-0.16754
  -5  -1   3131760.2 2732.12   1 0.01636-0.45625 0.47311-0.59457 0.88085-0.66205
  -5  -1   3123237.6 2445.74   1 0.09239-0.53231 0.31266-0.43417 0.94536-0.72672
   5   1  -3122242.7 2420.08   1 0.68677-0.24680-0.52328 0.64479 0.50448-0.72341
   5   1  -2120913.9 2427.02   1 0.58881-0.14708-0.51798 0.62537 0.62047-0.76633
  -5  -1   2108696.2 2198.23   1 0.08139-0.52326-0.93740 0.83009 0.33858-0.19271
  -5  -1   2123580.8 2552.67   1-0.07409-0.36785 0.45068-0.55824 0.88960-0.74367
  -5  -1   2119053.4 2365.20   1-0.08423-0.35756 0.47427-0.58179 0.87633-0.73052
   5   1  -2116418.9 2304.37   1 0.58067-0.13885-0.29907 0.40653 0.75721-0.90302
   5   1  -1132466.0 2068.14   1 0.47294-0.02923-0.66983 0.76333 0.57239-0.64533
  -5  -1   1115712.8 1822.44   1 0.01124-0.45507-0.95744 0.86399 0.28838-0.21545
  -5  -1   1113656.1 1862.58   1-0.17994-0.26398 0.41911-0.51273 0.88992-0.81695
  -5  -1   1132358.2 2025.33   1-0.23628-0.20748 0.59290-0.68647 0.76982-0.69692
   5   1  -1129802.5 1977.39   1 0.39403 0.04972-0.02617 0.11970 0.91872-0.99156
   5   1   0121028.6 1922.66   1 0.36784 0.07779-0.77202 0.85163 0.51833-0.51833
  -5  -1   0118813.2 1945.32   1-0.29747-0.14842 0.37725-0.45692 0.87703-0.87703
  -5  -1   0117860.5 1827.12   1-0.34917-0.09667 0.66684-0.74650 0.65832-0.65832
   5   1   0114670.5 1768.42   1 0.19249 0.25323 0.20981-0.13018 0.95860-0.95860
   5   1   127098.59 1008.34   1 0.28117 0.16643-0.83756 0.90326 0.46842-0.39548
  -5  -1  -126316.85  957.19   1-0.42980-0.01791 0.71026-0.77601 0.55749-0.63045
   5   1   124977.33  884.27   1 0.02886 0.41883 0.37369-0.30802 0.92710-0.85422
   5   1   240185.56 1828.47   1 0.21413 0.23541-0.87859 0.93038 0.42687-0.28100
  -5  -1  -240126.55 1821.16   1-0.54089 0.09096 0.26238-0.31415 0.79911-0.94500
  -5  -1  -239424.00 1642.76   1-0.48860 0.03893 0.73559-0.78744 0.46922-0.61515
   5   1   314879.45  744.07   1 0.16482 0.28665-0.90382 0.94171 0.39487-0.17606
  -5  -1  -314428.60  691.96   1-0.65178 0.19986 0.19411-0.23192 0.73314-0.95197
  -5  -1  -315673.88  922.82   1-0.53318 0.08156 0.75002-0.78796 0.39138-0.61029
   5   1   417647.43  928.78   1 0.13056 0.32301-0.91882 0.94294 0.37243-0.08069
  -5  -1  -417178.64  875.42   1-0.74764 0.29388 0.12259-0.14651 0.65268-0.94454
  -5  -1  -417920.45 1587.99   1-0.56829 0.11457 0.75755-0.78167 0.32116-0.61307
   5   1   557207.80 1442.56   1 0.10858 0.34694-0.92760 0.93785 0.35744 0.00723
  -5  -1  -567950.88 1612.19   1-0.82528 0.36952 0.05138-0.06136 0.56236-0.92719
  -5  -1  -573745.02 1795.97   1-0.59671 0.14107 0.76025-0.77048 0.25677-0.62165
   5   1   6 1096.60  477.84   1 0.09665 0.36082-0.93204 0.92843 0.34920 0.08839
  -5  -1  -6 -162.08  216.47   1-0.88443 0.42675-0.01730 0.02122 0.46634-0.90411
  -5  -1  -6  683.87  222.17   1-0.62022 0.16264 0.75941-0.75574 0.19649-0.63434
   5   1   732242.68  883.32   1 0.09298 0.36644-0.93337 0.91589 0.34666 0.16388
  -5  -1  -737027.92  853.32   1-0.92614 0.46648-0.08193 0.09977 0.36814-0.87888
  -5  -1  -736484.63 1429.79   1-0.63991 0.18040 0.75573-0.73816 0.13921-0.65005
   5   1   8 1560.14  548.54   1 0.09616 0.36521-0.93222 0.90087 0.34887 0.23460
  -5  -1  -8 1085.79  405.26   1-0.95244 0.49119-0.14200 0.17379 0.26958-0.85353
  -5  -1  -8 1296.73  287.25   1-0.65655 0.19502 0.74956-0.71816 0.08413-0.66798
   5   1   9 1617.36  341.62   1 0.10515 0.35817-0.92890 0.88369 0.35508 0.30133
  -5  -1  -9 1614.84  286.41   1-0.96499 0.50182-0.19685 0.24258 0.17331-0.83025
  -5  -1  -9 2044.62  391.66   1-0.67047 0.20699 0.74129-0.69600 0.03072-0.68755
   5   1  10 9182.08  549.34   1 0.11914 0.34614-0.92348 0.86440 0.36467 0.36467
  -5  -1 -1010208.95  553.54   1-0.96578 0.50047-0.24671 0.30652 0.07996-0.80967
  -5  -1 -1011337.90  783.47   1-0.68204 0.21661 0.73099-0.67181-0.02147-0.70833
  -5  -2  10 1175.26  454.93   1 0.17828-0.58635 0.50298-0.80164 0.84570-0.11637
  -5  -2   917647.11  999.40   1 0.17636-0.58641 0.50270-0.78743 0.84627-0.18987
  -5  -2   8  774.53  430.91   1 0.16540-0.57743 0.50110-0.77189 0.84943-0.26596
  -5  -2   8  719.49  247.63   1 0.56963-0.98181-0.28078 0.01029 0.77245-0.18955
   5   2  -747743.01  909.52   1 0.70118-0.28720 0.60105-0.34434 0.38349-0.89383
  -5  -2   750924.61 1175.34   1 0.14425-0.55826 0.49782-0.75468 0.85519-0.34466
  -5  -2   745830.45  852.44   1 0.53977-0.95391-0.23226-0.02431 0.80913-0.29910
   5   2  -6 6517.75  535.63   1 0.76355-0.34791 0.43111-0.18847 0.48075-0.91838
  -5  -2   6 7118.02  554.91   1 0.11152-0.52751 0.49229-0.73521 0.86325-0.42565
  -5  -2   6 6562.49  538.02   1-0.53163 0.11546 0.74960-0.99235 0.39427 0.04354
  -5  -2   6 8148.88  422.85   1 0.48412-0.90021-0.14849-0.09418 0.86230-0.42513
   5   2  -5 1794.57  217.79   1 0.79269-0.37499 0.23545-0.00669 0.56230-0.92700
  -5  -2   5 1615.42  293.97   1 0.06573-0.48370 0.48363-0.71262 0.87279-0.50813
  -5  -2   5 1853.18  269.10   1-0.57153 0.15314 0.75803-0.98690 0.31421 0.05067
  -5  -2   5 2292.09  188.63   1 0.38031-0.79825-0.00859-0.22022 0.92481-0.56061
   5   2  -4211636.5 3701.23   1 0.78503-0.36527 0.02267 0.19229 0.61903-0.91082
  -5  -2   4213521.9 3826.61   1 0.00554-0.42549 0.47064-0.68569 0.88230-0.59057
  -5  -2   4212468.7 3668.24   1-0.62232 0.20200 0.75916-0.97414 0.19071 0.10119
   5   2  -320272.84  947.39   1 0.74024-0.31835-0.18915 0.39009 0.64518-0.86398
  -5  -2   320667.54 1031.18   1-0.06979-0.35219 0.45184-0.65301 0.88936-0.67046
  -5  -2   320502.09  908.70   1-0.68822 0.26605 0.72349-0.92453-0.05391 0.27285
  -5  -2   320674.39  913.63   1-0.09426-0.32763 0.48271-0.68380 0.87068-0.65197
   5   2  -289979.00 1843.44   1 0.66654-0.24273-0.37916 0.56621 0.64183-0.78770
  -5  -2   291291.42 1927.65   1-0.15980-0.26418 0.42556-0.61279 0.89070-0.74477
  -5  -2   292130.08 1815.92   1-0.34056-0.08345 0.66169-0.84882 0.66796-0.52204
   5   2  -289249.04 1756.34   1 0.68376-0.25975-0.51436 0.70161 0.51757-0.66352
   5   2  -1107050.5 1704.75   1 0.57752-0.15178-0.53518 0.70829 0.61647-0.68940
  -5  -2   1103613.6 1711.07   1-0.26215-0.16380 0.39069-0.56395 0.88240-0.80939
  -5  -2   1109138.9 1659.77   1-0.46151 0.03559 0.72470-0.89792 0.51167-0.43870
   5   2  -1104662.0 1582.29   1 0.44462-0.01876-0.09305 0.26620 0.89087-0.96373
   5   2   0241446.1 3686.21   1 0.48693-0.05919-0.65399 0.81321 0.57894-0.57894
  -5  -2   0242572.1 3740.00   1-0.37255-0.05538 0.34622-0.50556 0.86100-0.86100
  -5  -2   0251219.3 3782.75   1-0.52165 0.09377 0.74675-0.90607 0.41258-0.41258
   5   2   0229034.4 3423.00   1 0.14802 0.27978 0.25660-0.09734 0.95511-0.95511
   5   2   1130814.8 2084.77   1 0.40440 0.02526-0.73956 0.88489 0.53804-0.46511
  -5  -2  -1132540.2 2149.97   1-0.48456 0.05458 0.29266-0.43805 0.82434-0.89728
  -5  -2  -1136108.5 2129.08   1-0.55933 0.12935 0.75603-0.90153 0.33994-0.41292
   5   2   1124149.6 1906.68   1-0.05812 0.48790 0.45201-0.30671 0.89011-0.81723
   5   2   2250857.6 5000.78   1 0.33472 0.09693-0.79881 0.93021 0.49985-0.35397
  -5  -2  -2268343.4 5314.84   1-0.58682 0.15491 0.75971-0.89132 0.28012-0.42607
   5   2   2224143.4 4421.52   1-0.18235 0.61411 0.55313-0.42174 0.81289-0.66707
  -5  -2  -3265928.9 5309.01   1-0.68919 0.25537 0.16782-0.28536 0.70487-0.92377
  -5  -2  -3280521.612242.42   1-0.60880 0.17496 0.76023-0.87794 0.22671-0.44564
   5   2   412574.16  742.79   1 0.23766 0.19786-0.86510 0.96868 0.44172-0.14997
  -5  -2  -412977.09  748.07   1-0.77216 0.33634 0.10173-0.20532 0.62722-0.91908
  -5  -2  -413525.59 1357.48   1-0.62723 0.19146 0.75846-0.86228 0.17693-0.46883
   5   2   5227579.2 5038.98   1 0.20808 0.22937-0.88190 0.97158 0.42301-0.05832
  -5  -2  -5221387.9 4867.38   1-0.83942 0.40165 0.03646-0.12614 0.54224-0.90705
  -5  -2  -5223432.4 4940.06   1-0.64305 0.20535 0.75481-0.84474 0.12932-0.49420
   5   2   632789.87  857.79   1 0.18895 0.25043-0.89198 0.96775 0.41068 0.02694
  -5  -2  -631781.33  712.40   1-0.89099 0.45124-0.02622-0.04951 0.45325-0.89102
  -5  -2  -632274.56 1723.18   1-0.65685 0.21714 0.74942-0.82548 0.08309-0.52098
   5   2   742282.62 1495.91   1 0.17870 0.26260-0.89712 0.95900 0.40400 0.10655
  -5  -2  -744129.90 1490.44   1-0.92795 0.48621-0.08532 0.02350 0.36278-0.87352
  -5  -2  -753400.50 3108.49   1-0.66878 0.22712 0.74250-0.80467 0.03768-0.54855
   5   2   865853.78 2178.08   1 0.17600 0.26724-0.89845 0.94642 0.40223 0.18126
  -5  -2  -867638.70 2130.10   1-0.95196 0.50866-0.14057 0.09267 0.27201-0.85596
  -5  -2  -871510.68 2374.16   1-0.67907 0.23547 0.73403-0.78231-0.00718-0.57665
   5   2   9 6077.36  590.72   1 0.17974 0.26543-0.89661 0.93067 0.40468 0.25175
  -5  -2  -9 5716.94  465.00   1-0.96426 0.51904-0.19140 0.15744 0.18318-0.84012
  -5  -2  -9 3771.37  620.03   1-0.68783 0.24228 0.72401-0.75841-0.05176-0.60506
   5   2  1017906.10 1290.74   1 0.18906 0.25804-0.89192 0.91208 0.41075 0.31862
  -5  -2 -1016829.60 1110.81   1-0.96643 0.51906-0.23801 0.21813 0.09672-0.82643
  -5  -2 -1016081.24 1178.17   1-0.69510 0.24759 0.71244-0.73295-0.09619-0.63361
   5   2  11 7465.02  849.10   1 0.20329 0.24574-0.88448 0.89073 0.41994 0.38236
  -5  -2 -11 6671.73  743.77   1-0.95966 0.51036-0.28087 0.27494 0.01214-0.81482
  -5  -3  10 1876.62  427.90   1 0.08929-0.47940 0.48822-0.86654 0.86813-0.13880
  -5  -3   9 1498.21  426.51   1 0.08636-0.47844 0.48766-0.85205 0.86874-0.21234
   5   3  -8 1321.43  291.58   1 0.65531-0.26119 0.68284-0.33260 0.32292-0.90617
  -5  -3   8  152.01  245.37   1 0.07371-0.46778 0.48521-0.83567 0.87128-0.28781
   5   3  -711083.79 1184.07   1 0.72012-0.32443 0.56106-0.22492 0.40820-0.91877
  -5  -3   714747.31  923.00   1 0.05034-0.44639 0.48048-0.81700 0.87555-0.36502
  -5  -3   712502.93  698.44   1 0.56494-0.96116-0.27296-0.06324 0.77866-0.26863
   5   3  -675698.99 2368.65   1 0.76660-0.36893 0.41874-0.09652 0.48679-0.92442
  -5  -3   680820.80 2564.44   1 0.01512-0.41315 0.47283-0.79541 0.88102-0.44342
  -5  -3   673036.59 2220.79   1 0.50178-0.89995-0.17428-0.14802 0.84725-0.41008
   5   3  -534410.78  983.92   1 0.79110-0.39136 0.25884 0.04951 0.55420-0.91890
  -5  -3   535741.40  941.04   1-0.03305-0.36699 0.46137-0.77011 0.88658-0.52175
  -5  -3   535987.85  725.09   1-0.22144-0.17859 0.58222-0.89083 0.78228-0.41775
  -5  -3   534307.32  693.66   1 0.33568-0.73570 0.04691-0.35535 0.94080-0.57660
   5   3  -432255.51 1861.00   1 0.79122-0.38941 0.08627 0.20832 0.60540-0.89719
  -5  -3   435739.19  991.00   1-0.09482-0.30722 0.44495-0.73974 0.89052-0.59865
   5   3  -318391.37  886.05   1 0.76599-0.36225-0.08949 0.37016 0.63658-0.85542
  -5  -3   318577.99  936.69   1-0.17009-0.23394 0.42229-0.70314 0.89035-0.67145
   5   3  -218885.66  816.28   1 0.71792-0.31203-0.25665 0.52332 0.64708-0.79295
  -5  -3   218117.89  842.44   1-0.25734-0.14867 0.39246-0.65932 0.88303-0.73701
   5   3  -178918.14 1654.74   1 0.65392-0.24611-0.40469 0.65746 0.63921-0.71215
  -5  -3   179503.60 1700.00   1-0.35370-0.05429 0.35433-0.60727 0.86564-0.79263
   5   3   072461.12 1525.48   1 0.58225-0.17251-0.52806 0.76687 0.61817-0.61817
  -5  -3   074662.69 1613.89   1-0.45438 0.04439 0.30827-0.54729 0.83576-0.83576
  -5  -3   074063.29 1487.18   1-0.69262 0.28254 0.71684-0.95591-0.08002 0.08002
   5   3   068793.76 1366.47   1 0.09230 0.31760 0.31274-0.07385 0.94534-0.94534
   5   3   138156.67 1551.77   1 0.51094-0.09916-0.62539 0.85033 0.58975-0.51681
  -5  -3  -140347.08 1838.28   1-0.55365 0.14164 0.25514-0.48021 0.79269-0.86563
  -5  -3  -136221.67 1459.79   1-0.67685 0.26481 0.73611-0.96129 0.00308-0.07606
   5   3   137710.83 1476.76   1-0.16801 0.57989 0.54212-0.31715 0.82332-0.75042
  -5  -3  -2117618.1 2441.35   1-0.64681 0.23282 0.19746-0.40857 0.73664-0.88253
  -5  -3  -2114695.0 2387.28   1-0.67234 0.25836 0.73988-0.95117 0.02287-0.16884
   5   3   2108730.8 2181.53   1-0.28872 0.70266 0.62891-0.41777 0.72187-0.57595
   5   3   3239808.2 4811.95   1 0.39000 0.02564-0.75272 0.94987 0.53038-0.31157
  -5  -3  -3240202.8 4814.20   1-0.72981 0.31393 0.13701-0.33422 0.66977-0.88867
  -5  -3  -3226780.5 4544.87   1-0.67325 0.25732 0.73916-0.93657 0.01898-0.23793
   5   3   4103755.4 1965.67   1 0.34485 0.07271-0.79091 0.97418 0.50549-0.21374
  -5  -3  -4102812.2 1958.95   1-0.67680 0.25892 0.73615-0.91967 0.00329-0.29522
   5   3   585726.63 2061.42   1 0.31011 0.10945-0.81731 0.98660 0.48561-0.12092
  -5  -3  -581269.85 1910.88   1-0.85695 0.43711 0.01681-0.18615 0.51511-0.87992
  -5  -3  -586678.02 2058.93   1-0.68159 0.26176 0.73147-0.90111-0.01925-0.34565
   5   3   6174988.5 2672.95   1 0.28535 0.13615-0.83474 0.99012 0.47093-0.03330
  -5  -3  -6172567.4 2594.42   1-0.90074 0.47891-0.04016-0.11524 0.43248-0.87026
  -5  -3  -6176512.8 2707.57   1-0.68682 0.26504 0.72535-0.88110-0.04620-0.39167
   5   3   7 3700.74  402.59   1 0.26939 0.15403-0.84535 0.98683 0.46129 0.04926
  -5  -3  -7 4196.82  465.41   1-0.93241 0.50860-0.09399-0.04748 0.34895-0.85969
  -5  -3  -7 3600.05  402.80   1-0.69201 0.26828 0.71784-0.85970-0.07621-0.43465
   5   3   895052.96 2974.63   1 0.26120 0.16415-0.85062 0.97819 0.45629 0.12720
  -5  -3  -895825.49 2975.38   1-0.95329 0.52793-0.14460 0.01701 0.26516-0.84911
  -5  -3  -8101874.8 3179.01   1-0.69684 0.27116 0.70897-0.83694-0.10846-0.47538
   5   3   911146.08  756.78   1 0.25982 0.16747-0.85150 0.96517 0.45544 0.20099
  -5  -3  -911127.35  752.57   1-0.96427 0.53700-0.19148 0.07782 0.18304-0.83998
   5   3  1028004.08 1274.89   1 0.26442 0.16480-0.84857 0.94833 0.45826 0.27111
  -5  -3 -1023302.16 1035.27   1-0.96658 0.53715-0.23480 0.13522 0.10286-0.83257
   5   3  11 2039.91  552.58   1 0.27433 0.15682-0.84212 0.92797 0.46429 0.33802
  -5  -3 -11 1176.98  422.96   1-0.96114 0.52977-0.27500 0.18937 0.02404-0.82672
  -5  -4   916477.80  584.81   1-0.60803 0.23408-0.74763 0.30413-0.26709 0.92342
  -5  -4   918951.62  782.17   1-0.02325-0.35088 0.46381-0.90800 0.88562-0.22893
   5   4  -8  246.24  192.55   1 0.67259-0.29641 0.65469-0.22484 0.34496-0.92821
  -5  -4   8  111.76  203.21   1-0.03716-0.33895 0.46034-0.89059 0.88696-0.30323
   5   4  -732033.69 1064.72   1 0.72635-0.34863 0.54591-0.13019 0.41759-0.92816
  -5  -4   732697.39 1105.02   1-0.06218-0.31593 0.45387-0.87017 0.88889-0.37813
   5   4  -6 7167.38  633.80   1 0.76554-0.38585 0.42310-0.02131 0.48467-0.92231
  -5  -4   6 8135.86  454.75   1-0.09903-0.28107 0.44376-0.84611 0.89065-0.45285
   5   4  -5  416.81  158.72   1 0.78839-0.40661 0.28826 0.09969 0.54344-0.90814
  -5  -4   5 1145.89  322.82   1-0.14820-0.23389 0.42918-0.81759 0.89097-0.52614
   5   4  -452626.33 1712.99   1 0.79423-0.41045 0.14333 0.23071 0.59045-0.88221
  -5  -4   456514.67 1286.40   1-0.20962-0.17446 0.40921-0.78367 0.88803-0.59616
   5   4  -312185.83  754.63   1 0.78137-0.39558-0.00447 0.36477 0.62404-0.84288
  -5  -4   312814.68  838.82   1-0.28218-0.10389 0.38315-0.74360 0.87952-0.66050
   5   4  -295778.33 1794.43   1 0.75148-0.36377-0.14964 0.49601 0.64255-0.78844
  -5  -4   294699.38 1798.46   1-0.36393-0.02412 0.34996-0.69648 0.86317-0.71716
   5   4  -159905.09 1186.58   1 0.70735-0.31745-0.28490 0.61730 0.64689-0.71983
  -5  -4   162317.65 1259.55   1-0.45122 0.06117 0.30983-0.64243 0.83690-0.76389
   5   4   016083.56  733.70   1 0.65408-0.26226-0.40439 0.72289 0.63925-0.63925
  -5  -4   016301.65  740.63   1-0.53948 0.14742 0.26317-0.58186 0.79980-0.79980
   5   4   014982.57  588.12   1 0.00039 0.39160 0.39998-0.08146 0.91651-0.91651
   5   4   014280.99  561.03   1 0.60767-0.21573-0.34720 0.66579 0.71426-0.71426
   5   4   142292.07 1919.27   1 0.59683-0.20309-0.50538 0.80991 0.62319-0.55026
  -5  -4  -141805.79 1900.95   1-0.62469 0.23065 0.21200-0.51674 0.75153-0.82448
   5   4   138234.55 1495.30   1-0.30290 0.69697 0.63817-0.33346 0.70779-0.63484
   5   4   143185.33  905.51   1 0.70436-0.31026-0.58954 0.89431 0.39536-0.32238
   5   4   2  807.00  219.13   1 0.54076-0.14510-0.58719 0.87784 0.60230-0.45644
  -5  -4  -2  544.61  243.32   1-0.70303 0.30710 0.15761-0.44844 0.69346-0.83939
   5   4   2  795.96  106.27   1-0.39899 0.79502 0.69479-0.40399 0.59838-0.45247
   5   4   2  765.93  119.74   1 0.70968-0.31351-0.65053 0.94138 0.27046-0.12451
   5   4   3  198.72  225.32   1 0.48936-0.09161-0.65119 0.92795 0.58006-0.36124
  -5  -4  -3  960.36  432.87   1-0.77177 0.37384 0.10207-0.37895 0.62764-0.84654
   5   4   3  102.67   71.11   1-0.44061 0.83855 0.71537-0.43844 0.54231-0.32340
   5   4   458060.15 1436.82   1 0.44504-0.04536-0.69972 0.96259 0.55885-0.26710
  -5  -4  -457084.62 1423.71   1-0.82966 0.42972 0.04684-0.30979 0.55629-0.84815
   5   4   5 6593.71  534.25   1 0.40882-0.00721-0.73543 0.98442 0.54036-0.17567
  -5  -4  -5 5732.25  454.17   1-0.87643 0.47452-0.00688-0.24212 0.48147-0.84628
   5   4   631772.74  784.67   1 0.38090 0.02263-0.76078 0.99587 0.52547-0.08784
  -5  -4  -629835.69  711.19   1-0.91250 0.50860-0.05833-0.17673 0.40489-0.84266
   5   4   727259.52  799.73   1 0.36096 0.04450-0.77779 0.99900 0.51452-0.00395
  -5  -4  -726695.20  768.37   1-0.93882 0.53332-0.10731-0.11390 0.32725-0.83820
   5   4   820033.21  893.57   1 0.34843 0.05896-0.78804 0.99536 0.50751 0.07599
  -5  -4  -819489.57 1311.99   1-0.95593 0.54851-0.15320-0.05406 0.25044-0.83438
   5   4   918786.00 1146.03   1 0.34264 0.06668-0.79267 0.98609 0.50424 0.15220
  -5  -4  -919595.59 1204.39   1-0.96490 0.55558-0.19619 0.00285 0.17451-0.83145
   5   4  10 9479.48  811.95   1 0.34295 0.06831-0.79243 0.97196 0.50441 0.22496
  -5  -4 -1010342.67  800.88   1-0.96652 0.55503-0.23621 0.05694 0.10016-0.82987
   5   4  1010665.88  816.04   1 0.70960-0.29744-0.65366 0.83287 0.26302 0.46674
   5   4  1152820.85 2843.49   1 0.34875 0.06444-0.78779 0.95343 0.50769 0.29462
  -5  -4 -1144420.25 2398.99   1-0.96145 0.54802-0.27367 0.10835 0.02673-0.82941
   5   4  1152702.10 2831.40   1 0.70967-0.29551-0.64155 0.80680 0.29114 0.51160
   5   5  -919665.50 1148.14   1 0.62454-0.26823 0.72695-0.20358 0.28544-0.94159
   5   5  -815586.59 1467.37   1 0.67972-0.32149 0.64222-0.13277 0.35430-0.93755
  -5  -5   817991.19 1120.86   1-0.16850-0.18965 0.42280-0.93272 0.89041-0.30668
   5   5  -7 1376.63  260.32   1 0.72681-0.36707 0.54475-0.04946 0.41830-0.92887
  -5  -5   7 1167.49  267.14   1-0.19370-0.16645 0.41458-0.91055 0.88915-0.37839
   5   5  -650351.72 1614.88   1 0.76197-0.40025 0.43724 0.04412 0.47770-0.91534
  -5  -5   653564.10 1745.44   1-0.23030-0.13184 0.40203-0.88406 0.88618-0.44838
   5   5  -5  729.73  215.04   1 0.78440-0.42059 0.32111 0.14644 0.53065-0.89535
  -5  -5   5  406.03  210.78   1-0.27788-0.08627 0.38479-0.85275 0.88017-0.51514
   5   5  -450663.44  972.92   1 0.79423-0.42841 0.19727 0.25637 0.57469-0.86644
  -5  -5   451999.36  976.84   1-0.33603-0.03010 0.36174-0.81577 0.86960-0.57758
   5   5  -3 5054.30  372.17   1 0.79000-0.42216 0.07057 0.36935 0.60902-0.82786
  -5  -5   3 4022.26  378.27   1-0.40279 0.03467 0.33272-0.77284 0.85266-0.63364
   5   5  -247422.48 1159.72   1 0.77280-0.40303-0.05583 0.48182 0.63218-0.77807
  -5  -5   247778.77 1179.30   1-0.47550 0.10539 0.29771-0.72391 0.82780-0.68179
   5   5  -122859.76 1378.39   1 0.74381-0.37182-0.17707 0.58909 0.64450-0.71743
  -5  -5   120802.95 1263.72   1-0.55060 0.17849 0.25689-0.66921 0.79425-0.72131
  -5  -5  -141272.00  927.45   1-0.69486 0.31888 0.16367-0.54811 0.70026-0.77322
   5   5   135150.05  663.86   1-0.44567 0.82181 0.71769-0.33330 0.53505-0.46208
   5   5   138902.17  726.89   1 0.60748-0.23152-0.34684 0.73117 0.71460-0.64169
   5   5   2 4747.92  418.42   1 0.61741-0.23967-0.47144 0.84169 0.62971-0.48384
  -5  -5  -2 4455.95  397.57   1-0.75816 0.38017 0.11380-0.48430 0.64205-0.78798
   5   5   2 3459.35  398.34   1-0.49994 0.87804 0.73970-0.36921 0.45042-0.30449
   5   5   2 3734.39  258.46   1 0.67789-0.29974-0.49793 0.86844 0.54085-0.39490
   5   5   333258.78  913.06   1 0.57355-0.19389-0.54108 0.89744 0.61502-0.39622
  -5  -5  -334590.09  938.59   1-0.81321 0.43321 0.06356-0.42012 0.57848-0.79738
   5   5   330554.67 1627.35   1 0.69910-0.31896-0.56569 0.92226 0.43731-0.21839
   5   5   4 2269.47  276.19   1 0.53347-0.15189-0.59685 0.93932 0.59930-0.30757
  -5  -5  -4 2019.51  315.50   1-0.85931 0.47732 0.01405-0.35664 0.51124-0.80309
   5   5   4 2533.38  318.62   1 0.70616-0.32402-0.59963 0.94225 0.37653-0.08464
   5   5   5 9353.06  661.84   1 0.49872-0.11501-0.64018 0.96877 0.58432-0.21962
  -5  -5  -5 8437.91  653.10   1-0.89651 0.51252-0.03400-0.29466 0.44171-0.80652
   5   5   5 9205.65  639.37   1 0.70801-0.32378-0.61720 0.94588 0.34317 0.02170
   5   5   6 1298.31  533.30   1 0.47034-0.08470-0.67271 0.98741 0.57116-0.13353
  -5  -5  -6  668.75  386.59   1-0.92514 0.53917-0.08008-0.23465 0.37106-0.80884
   5   5   6  310.38  274.37   1 0.70880-0.32257-0.62525 0.93997 0.32657 0.11129
   5   5   720322.78  649.98   1 0.44856-0.06099-0.69607 0.99688 0.56060-0.05003
   5   5   720015.06 1214.19   1 0.70897-0.32074-0.62739 0.92816 0.32206 0.18877
   5   5   8 1890.58  374.46   1 0.43332-0.04381-0.71165 0.99857 0.55297 0.03052
  -5  -5  -8  105.67  284.36   1-0.95926 0.56979-0.16567-0.12129 0.22884-0.81278
   5   5   8  989.14  367.13   1 0.70881-0.31858-0.62541 0.91222 0.32623 0.25757
   5   5   962259.94 2236.02   1 0.42431-0.03287-0.72056 0.99360 0.54839 0.10805
  -5  -5  -962068.23 2239.34   1-0.96583 0.57445-0.20483-0.06819 0.15875-0.81569
   5   5   966155.31 2377.79   1 0.70834-0.31611-0.62029 0.89314 0.33686 0.31992
   5   5  10 6589.24  669.66   1 0.42115-0.02778-0.72364 0.98279 0.54677 0.18261
   5   5  10 6620.36  703.70   1 0.70746-0.31324-0.61259 0.87149 0.35244 0.37733
   5   6  -8 9422.66 1403.49   1 0.68070-0.34043 0.64045-0.05140 0.35561-0.93886
   5   6  -7 5027.44  989.01   1 0.72359-0.38181 0.55273 0.02212 0.41339-0.92397
  -5  -6   7 6508.48  521.53   1-0.34344 0.00121 0.35866-0.93412 0.86798-0.35693
   5   6  -629628.06 1483.90   1 0.75643-0.41268 0.45758 0.10336 0.46735-0.90498
  -5  -6   637699.55 1118.99   1-0.37648 0.03226 0.34450-0.90604 0.85998-0.42194
   5   6  -536520.27 2292.46   1 0.77961-0.43388 0.35539 0.19164 0.51565-0.88034
  -5  -6   540587.17 1334.92   1-0.41921 0.07300 0.32514-0.87277 0.84766-0.48263
   5   6  -417262.38 1672.85   1 0.79187-0.44401 0.24853 0.28471 0.55782-0.84958
  -5  -6   417714.84  496.13   1-0.47009 0.12190 0.30045-0.83416 0.82990-0.53787
   5   6  -3107834.8 3372.04   1 0.79410-0.44424 0.13803 0.38130 0.59189-0.81071
  -5  -6   3108271.7 3350.14   1-0.52690 0.17673 0.27014-0.79005 0.80584-0.58701
   5   6  -2 2166.70  287.36   1 0.78567-0.43385 0.02790 0.47772 0.61801-0.76390
  -5  -6   2 3470.41  332.56   1-0.58715 0.23500 0.23543-0.74138 0.77447-0.62858
   5   6  -1230033.4 4613.43   1 0.76805-0.41430-0.07979 0.57149 0.63539-0.70833
  -5  -6   1233368.1 4658.84   1-0.64800 0.29386 0.19666-0.68865 0.73580-0.66286
   5   6   010109.02  686.71   1 0.74245-0.38645-0.18173 0.65948 0.64477-0.64477
  -5  -6   0 9432.97  655.07   1-0.70679 0.35075 0.15479-0.63284 0.69027-0.69027
   5   6   0 8714.66  538.97   1-0.48743 0.84373 0.73515-0.25719 0.47112-0.47112
   5   6   0 9635.22  558.58   1 0.13131 0.22482 0.27373 0.20403 0.95279-0.95279
   5   6   1185501.4 4112.63   1 0.71122-0.35331-0.27479 0.73863 0.64702-0.57409
  -5  -6  -1176912.3 3928.52   1-0.76138 0.40334 0.11106-0.57517 0.63871-0.71167
   5   6   1166068.5 3593.17   1-0.56143 0.91961 0.75641-0.29211 0.33560-0.26263
   5   6   1171979.7 3706.75   1 0.46443-0.10634-0.12049 0.58433 0.87737-0.80451
   5   6   246033.21 1176.26   1 0.67676-0.31693-0.35738 0.80732 0.64363-0.49776
  -5  -6  -244628.14 1158.91   1-0.81021 0.45016 0.06650-0.51668 0.58234-0.72827
   5   6   238136.94 1500.22   1-0.57882 0.93893 0.75895-0.30855 0.29824-0.15229
   5   6   243635.21 1016.90   1 0.59326-0.23328-0.32105 0.77112 0.73821-0.59240
   5   6   3 7937.30  654.71   1 0.64139-0.27964-0.42859 0.86455 0.63633-0.41753
  -5  -6  -3 7710.33  546.10   1-0.85237 0.49029 0.02208-0.45827 0.52245-0.74134
   5   6   3 7024.08  453.33   1 0.64903-0.28711-0.43013 0.86630 0.62747-0.40876
   5   6   456699.21 1089.40   1 0.60752-0.24385-0.48806 0.91014 0.62666-0.33493
  -5  -6  -456576.26 1130.37   1-0.88762 0.52356-0.02160-0.40065 0.46005-0.75190
   5   6   455122.77  949.13   1 0.67592-0.31173-0.49267 0.91497 0.54808-0.25619
   5   6   540847.80 1432.57   1 0.57674-0.21116-0.53634 0.94453 0.61619-0.25152
  -5  -6  -540852.69 1401.94   1-0.91595 0.54989-0.06401-0.34431 0.39614-0.76095
   5   6   539315.05 1320.13   1 0.68867-0.32249-0.52912 0.93748 0.49574-0.13087
   5   6   6 4047.88  448.91   1 0.55025-0.18274-0.57431 0.96860 0.60612-0.16852
  -5  -6  -6 4174.52  429.62   1-0.93778 0.57009-0.10504-0.28947 0.33093-0.76889
   5   6   6 3951.29  398.67   1 0.69504-0.32686-0.55032 0.94474 0.46266-0.02482
   5   6   7 4784.05  447.85   1 0.52876-0.15933-0.60299 0.98340 0.59733-0.08679
  -5  -6  -7 3143.38  384.86   1-0.95314 0.58354-0.14414-0.23644 0.26594-0.77690
   5   6   7 3906.83  426.05   1 0.69813-0.32796-0.56183 0.94230 0.44379 0.06702
   5   6   8 6490.78  540.57   1 0.51260-0.14125-0.62342 0.98994 0.59040-0.00692
   5   6   8 6149.74  536.25   1 0.69936-0.32720-0.56673 0.93325 0.43555 0.14822
   5   6   9  765.19  312.03   1 0.50174-0.12820-0.63657 0.98921 0.58567 0.07076
  -5  -6  -9 2408.50  560.22   1-0.96660 0.59316-0.21683-0.13588 0.13658-0.79352
   5   6   9  374.12  359.77   1 0.69937-0.32522-0.56679 0.91937 0.43545 0.22130
   5   6  10 3092.24  373.28   1 0.49626-0.12079-0.64310 0.98185 0.58321 0.14617
  -5  -6 -10 3867.18  562.81   1-0.96541 0.58980-0.25030-0.08834 0.07298-0.80269
   5   6  10 2789.30  404.72   1 0.69845-0.32230-0.56310 0.90174 0.44167 0.28806
   5   7  -721852.05 1663.50   1 0.71644-0.39221 0.56775 0.08695 0.40541-0.91575
   5   7  -6 1275.46  303.21   1 0.74911-0.42333 0.48205 0.15846 0.45437-0.89200
   5   7  -521114.92 2156.74   1 0.77267-0.44492 0.39172 0.23488 0.49952-0.86421
  -5  -7   524173.37 1502.71   1-0.56667 0.23843 0.24761-0.87509 0.78585-0.42113
   5   7  -430815.50 2123.84   1 0.78734-0.45744 0.29782 0.31502 0.53980-0.83156
  -5  -7   430520.20 1044.46   1-0.60564 0.27542 0.22407-0.83760 0.76353-0.47175
   5   7  -374800.60 2551.55   1 0.79414-0.46224 0.20087 0.39805 0.57357-0.79238
  -5  -7   375448.08 2415.97   1-0.64885 0.31665 0.19609-0.79566 0.73521-0.51637
   5   7  -2 1906.47  256.59   1 0.79264-0.45873 0.10340 0.48161 0.60085-0.74672
  -5  -7   2 2485.22  240.22   1-0.69398 0.35989 0.16432-0.74992 0.70098-0.55505
   5   7  -1168866.9 5185.21   1 0.78314-0.44734 0.00809 0.56323 0.62178-0.69473
  -5  -7   1160994.7 4919.35   1-0.73907 0.40297 0.12960-0.70126 0.66103-0.58807
  -5  -7   023422.05  571.99   1-0.78218 0.44408 0.09282-0.65055 0.61609-0.61609
   5   7   022092.86 1031.47   1 0.05789 0.28035 0.34620 0.21121 0.93637-0.93637
   5   7   1 2671.48  370.73   1 0.74583-0.40582-0.17005 0.71352 0.64406-0.57112
  -5  -7  -1 2863.97  339.61   1-0.82191 0.48181 0.05483-0.59862 0.56696-0.63992
   5   7   1 1945.68  237.87   1-0.63275 0.97298 0.75744-0.21345 0.16092-0.08794
   5   7   1 2695.05  194.55   1 0.33580 0.00436 0.04675 0.49667 0.94076-0.86792
  -5  -7  -2185673.5 2773.43   1-0.85727 0.51510 0.01644-0.54623 0.51460-0.66052
   5   7   2184105.3 2583.01   1 0.49016-0.14804-0.15723 0.68680 0.85733-0.71160
   5   7   3 5554.68  552.72   1 0.69404-0.35020-0.31795 0.83362 0.64591-0.42711
  -5  -7  -3 4624.33  431.12   1-0.88783 0.54368-0.02188-0.49397 0.45964-0.67853
   5   7   3 4913.47  329.78   1 0.57475-0.23076-0.28896 0.80477 0.76560-0.54688
   5   7   446813.32 1599.80   1 0.66707-0.32132-0.37806 0.87983 0.64193-0.35019
  -5  -7  -441368.70 1423.98   1-0.91329 0.56715-0.05962-0.44230 0.40292-0.69476
   5   7   443120.13 1411.90   1 0.62159-0.27565-0.37359 0.87549 0.68851-0.39689
   5   7   526303.05  795.81   1 0.64133-0.29366-0.42870 0.91649 0.63632-0.27165
  -5  -7  -525790.32  793.99   1-0.93379 0.58595-0.09663-0.39151 0.34452-0.70948
   5   7   525792.18  718.22   1 0.64818-0.30030-0.42826 0.91626 0.62963-0.26511
   5   7   629348.21 1081.11   1 0.61831-0.26872-0.46990 0.94381 0.62998-0.19237
  -5  -7  -628923.89 1119.52   1-0.94908 0.59933-0.13235-0.34186 0.28586-0.72382
   5   7   626762.82  969.59   1 0.66433-0.31411-0.46361 0.93771 0.58627-0.14842
   5   7   758593.10 1858.59   1 0.59877-0.24726-0.50228 0.96229 0.62383-0.11330
  -5  -7  -758754.01 1909.98   1-0.95953 0.60787-0.16680-0.29347 0.22685-0.73780
   5   7   758956.28 1840.80   1 0.67327-0.32105-0.48576 0.94591 0.55743-0.04662
   5   7   8 4171.04  517.64   1 0.58330-0.22987-0.52646 0.97258 0.61854-0.03507
  -5  -7  -8 1112.45  319.05   1-0.96534 0.61176-0.19992-0.24641 0.16773-0.75167
   5   7   8 1750.87  344.89   1 0.67821-0.32400-0.49881 0.94502 0.53963 0.04415
   5   7   979322.46 2169.71   1 0.57221-0.21686-0.54306 0.97530 0.61453 0.04187
  -5  -7  -983533.13 2338.42   1-0.96669 0.61096-0.23155-0.20074 0.10904-0.76578
   5   7   982559.59 2264.06   1 0.68055-0.32434-0.50523 0.93749 0.53064 0.12611
   5   7  10  945.66  389.47   1 0.56563-0.20836-0.55265 0.97099 0.61207 0.11726
  -5  -7 -10  327.05  342.82   1-0.96377 0.60611-0.26194-0.15640 0.05013-0.77984
   5   7  10  -90.04  346.14   1 0.68102-0.32282-0.50655 0.92487 0.52877 0.20096
   5   8  -6 1153.39  227.37   1 0.74003-0.43223 0.50939 0.21071 0.43916-0.87679
   5   8  -5  296.49  162.61   1 0.76412-0.45434 0.42886 0.27732 0.48186-0.84655
   5   8  -411429.44 1085.51   1 0.78132-0.46957 0.34511 0.34715 0.52002-0.81177
  -5  -8   412334.26  814.16   1-0.73527 0.42313 0.13266-0.82582 0.66465-0.37279
   5   8  -3 1114.19  402.18   1 0.79103-0.47709 0.25979 0.41873 0.55386-0.77268
  -5  -8   3 1068.15  243.83   1-0.76200 0.44785 0.11053-0.78975 0.63807-0.41917
   5   8  -236126.34 1996.06   1 0.79454-0.47860 0.17343 0.49118 0.58190-0.72778
  -5  -8   236588.46 1217.51   1-0.79077 0.47462 0.08498-0.75026 0.60618-0.46025
   5   8  -1 3827.54  457.94   1 0.79167-0.47372 0.08805 0.56265 0.60456-0.67749
  -5  -8   1 3607.62  323.32   1-0.81992 0.50177 0.05685-0.70819 0.56964-0.49667
   5   8   064687.06 2168.04   1 0.78283-0.46305 0.00579 0.63122 0.62220-0.62220
  -5  -8   064773.82 2118.87   1-0.84800 0.52774 0.02701-0.66433 0.52929-0.52929
   5   8   058235.97 1806.18   1 0.00313 0.31719 0.39748 0.23956 0.91760-0.91760
   5   8   1  696.28  282.97   1 0.76950-0.44780-0.07271 0.69580 0.63448-0.56153
  -5  -8  -1  730.59  304.53   1-0.87426 0.55201-0.00412-0.61925 0.48543-0.55839
   5   8   1  908.27  163.49   1 0.23152 0.09071 0.16729 0.45580 0.95833-0.88544
   5   8   234383.25  901.86   1 0.75255-0.42892-0.14560 0.75476 0.64222-0.49633
  -5  -8  -232454.27  824.14   1-0.89781 0.57357-0.03588-0.57356 0.43890-0.58483
   5   8   231241.20  619.02   1 0.38825-0.06403-0.01873 0.62787 0.92136-0.77567
   5   8   3 5159.27  595.92   1 0.73319-0.40726-0.21184 0.80714 0.64618-0.42737
  -5  -8  -3 4279.58  385.44   1-0.91819 0.59197-0.06780-0.52771 0.39027-0.60916
   5   8   3 5253.45  367.05   1 0.48934-0.16319-0.15604 0.75132 0.85801-0.63943
   5   8   465211.03 2177.49   1 0.71289-0.38505-0.27035 0.85175 0.64706-0.35532
  -5  -8  -458360.80 1946.59   1-0.93529 0.60731-0.09973-0.48204 0.33953-0.63151
   5   8   458740.67 1888.89   1 0.55315-0.22505-0.25364 0.83502 0.79352-0.50207
   5   8   525738.53  981.87   1 0.69282-0.36307-0.32084 0.88834 0.64579-0.28111
  -5  -8  -525768.79  977.27   1-0.94860 0.61871-0.13106-0.43677 0.28803-0.65300
   5   8   526074.23  914.90   1 0.59375-0.26379-0.32193 0.88957 0.73743-0.37290
   5   8   6 5511.12  558.18   1 0.67409-0.34241-0.36318 0.91677 0.64319-0.20558
  -5  -8  -6 3901.66  607.73   1-0.95828 0.62647-0.16176-0.39214 0.23565-0.67361
   5   8   6 4741.30  700.96   1 0.61941-0.28751-0.36938 0.92312 0.69272-0.25529
   5   8   755956.20 2012.26   1 0.65757-0.32398-0.39746 0.93716 0.64001-0.12947
  -5  -8  -752966.65 1929.51   1-0.96430 0.63059-0.19170-0.34826 0.18263-0.69358
   5   8   754009.77 1930.94   1 0.63572-0.30188-0.40184 0.94167 0.65907-0.14873
   5   8   8 5633.20  527.37   1 0.64380-0.30829-0.42405 0.94978 0.63694-0.05346
  -5  -8  -8 5344.05  604.92   1-0.96672 0.63109-0.22079-0.30523 0.12918-0.71312
   5   8   8 5013.87  736.92   1 0.64592-0.31014-0.42334 0.94926 0.63526-0.05202
   5   8   915799.94  851.53   1 0.63353-0.29610-0.44305 0.95489 0.63429 0.02211
  -5  -8  -913377.91  833.25   1-0.96556 0.62778-0.24885-0.26313 0.07582-0.73256
   5   8   916082.95  908.42   1 0.65196-0.31424-0.43663 0.94865 0.61990 0.03624
   5   9  -5 4468.26  772.03   1 0.75385-0.46204 0.46649 0.31927 0.46269-0.82739
   5   9  -4 1623.72  365.33   1 0.77268-0.47890 0.39169 0.38015 0.49953-0.79129
   5   9  -323497.11 2069.90   1 0.78513-0.48916 0.31568 0.44243 0.53282-0.75164
   5   9  -214809.37 2038.18   1 0.79250-0.49452 0.23875 0.50546 0.56119-0.70706
  -5  -9   214947.06 1198.88   1-0.87198 0.57361-0.00126-0.74356 0.48953-0.34361
  -5  -9   1  618.01  305.24   1-0.88668 0.58633-0.02033-0.71057 0.46192-0.38896
   5   9   0  114.64  272.57   1 0.79168-0.48968 0.08811 0.62827 0.60454-0.60454
  -5  -9   0  340.52  217.51   1-0.90191 0.59958-0.04191-0.67506 0.42987-0.42987
   5   9   124054.21  925.78   1 0.78437-0.48061 0.01738 0.68533 0.62004-0.54710
  -5  -9  -123326.20  820.85   1-0.91670 0.61238-0.06527-0.63777 0.39419-0.46715
   5   9   122502.39  709.38   1 0.14586 0.15846 0.25882 0.44389 0.95484-0.88195
   5   9   2 1290.22  401.79   1 0.77397-0.46829-0.04951 0.73831 0.63127-0.48538
  -5  -9  -2  776.86  316.43   1-0.93031 0.62400-0.08985-0.59925 0.35557-0.50149
   5   9   2  424.54  180.32   1 0.29480 0.01149 0.09569 0.59306 0.95075-0.80507
   5   9   3 7842.14  741.85   1 0.76113-0.45352-0.11112 0.78598 0.63900-0.42016
  -5  -9  -3 7147.53  583.87   1-0.94237 0.63425-0.11539-0.56000 0.31403-0.53301
   5   9   3 7842.38  497.13   1 0.40219-0.09391-0.03674 0.71158 0.91481-0.69629
   5   9   4 1562.98  377.74   1 0.74683-0.43730-0.16662 0.82756 0.64379-0.35200
  -5  -9  -4 1820.06  349.95   1-0.95216 0.64213-0.14116-0.52029 0.27100-0.56297
   5   9   4 1761.68  319.63   1 0.47755-0.16737-0.13906 0.80007 0.86752-0.57607
   5   9   536450.07 1386.92   1 0.73200-0.42016-0.21551 0.86263 0.64630-0.28163
  -5  -9  -538016.59 1483.10   1-0.95960 0.64765-0.16707-0.48045 0.22639-0.59135
   5   9   537298.14 1341.54   1 0.52927-0.21714-0.21586 0.86296 0.82052-0.45621
   5   9   6 2189.45  400.97   1 0.71770-0.40394-0.25725 0.89047 0.64708-0.20947
  -5  -9  -6 1114.89  293.59   1-0.96447 0.65061-0.19289-0.44069 0.18049-0.61844
   5   9   6 1933.69  303.81   1 0.56468-0.25059-0.27253 0.90573 0.77900-0.34183
   5   9   7 3258.15  523.88   1 0.70466-0.38898-0.29179 0.91111 0.64676-0.13621
  -5  -9  -7 3003.77  576.59   1-0.96666 0.65089-0.21846-0.40119 0.13354-0.64450
   5   9   7 3228.97  429.05   1 0.58898-0.27305-0.31349 0.93297 0.74486-0.23452
   5   9   831774.54 1405.20   1 0.69356-0.37596-0.31910 0.92453 0.64586-0.06238
  -5  -9  -832626.14 1533.92   1-0.96606 0.64814-0.24352-0.36210 0.08614-0.66990
   5  10  -3  529.39  221.90   1 0.77721-0.49942 0.36882 0.46868 0.50981-0.72863
   5  10  -213764.25 1559.92   1 0.78705-0.50703 0.30031 0.52350 0.53885-0.68472
   5  10  -1 1724.04  323.70   1 0.79289-0.51086 0.23198 0.57791 0.56347-0.63641
   5  10   0 9179.93 1341.45   1 0.79453-0.51051 0.16515 0.63083 0.58431-0.58431
  -5 -10   011209.54  774.56   1-0.94142 0.65700-0.11319-0.68370 0.31764-0.31764
   5  10   1  731.76  292.06   1 0.79249-0.50646 0.10080 0.68127 0.60148-0.52854
  -5 -10  -1 1459.39  316.64   1-0.94747 0.66113-0.12805-0.65490 0.29306-0.36605
   5  10   2 1828.75  393.48   1 0.78709-0.49935 0.04034 0.72807 0.61551-0.46962
  -5 -10  -2 2689.96  373.57   1-0.95347 0.66521-0.14515-0.62386 0.26422-0.41021
   5  10   318469.70 1082.35   1 0.77959-0.48993-0.01630 0.77079 0.62607-0.40723
  -5 -10  -318248.31 1005.02   1-0.95881 0.66864-0.16386-0.59122 0.23198-0.45096
   5  10   315699.46  812.42   1 0.31773-0.02738 0.06855 0.68590 0.94569-0.72717
   5  10   4 1769.36  341.46   1 0.77046-0.47887-0.06793 0.80849 0.63385-0.34206
  -5 -10  -4 2337.75  445.39   1-0.96304 0.67095-0.18371-0.55744 0.19698-0.48895
   5  10   5  348.93  293.68   1 0.76046-0.46695-0.11394 0.84057 0.63930-0.27456
  -5 -10  -5  364.07  394.05   1-0.96578 0.67179-0.20432-0.52289 0.15970-0.52466
   5  10   5  202.34  256.53   1 0.45934-0.16512-0.11337 0.84010 0.88099-0.51668
   5  10   6 4951.21  521.83   1 0.75035-0.45491-0.15386 0.86657 0.64287-0.20519
  -5 -10  -6 4286.37  451.94   1-0.96676 0.67066-0.22530-0.48792 0.12087-0.55869
   5  10   6 4012.04  397.78   1 0.50291-0.20674-0.17595 0.88877 0.84623-0.40906
   5  10   7 7059.91  851.12   1 0.74076-0.44299-0.18742 0.88637 0.64509-0.13454
  -5 -10  -7 7843.14 1035.36   1-0.96579 0.66775-0.24662-0.45264 0.08014-0.59094
   5  10   7 6648.75  819.00   1 0.53427-0.23615-0.22363 0.92255 0.81518-0.30515
   5  11   0 3910.13  887.64   1 0.79258-0.52652 0.23737 0.63821 0.56165-0.56165
   5  11   113903.35 2475.96   1 0.79451-0.52644 0.17934 0.68233 0.58015-0.50721
   5  11   2 9964.49 1529.37   1 0.79364-0.52356 0.12413 0.72363 0.59558-0.44970
  -5 -11  -212332.30 1381.73   1-0.96546 0.69515-0.20098-0.64772 0.16580-0.31178
   5  11   315869.85  989.96   1 0.79020-0.51849 0.07297 0.76114 0.60847-0.38963
  -5 -11  -315038.89 1651.80   1-0.96642 0.69420-0.21302-0.62175 0.14365-0.36263
   5  11   4  451.10  319.44   1 0.78539-0.51175 0.02559 0.79459 0.61846-0.32668
  -5 -11  -4 1435.09  472.66   1-0.96676 0.69247-0.22695-0.59386 0.11776-0.40964
  -6   7   546639.25 2486.25   1 0.20929-0.88171 0.50715-0.01923 0.83605-0.47138
  -6   7   545856.92 2483.47   1 0.11437-0.78645 0.29087 0.19682 0.94989-0.58545
  -6   7   4 9721.19  624.92   1 0.15339-0.82779 0.49926 0.00258 0.85276-0.56102
  -6   7   4 8074.85  539.15   1 0.06918-0.74323 0.33532 0.16624 0.93955-0.64804
  -6   7   338331.17 1125.06   1 0.08234-0.75872 0.48689 0.02889 0.86956-0.65076
  -6   7   340372.72 1240.80   1 0.02011-0.69610 0.38183 0.13369 0.92401-0.70537
  -6   7   235896.73 1062.19   1-0.00621-0.67215 0.46791 0.06187 0.88374-0.73781
  -6   7   236631.04 1168.30   1-0.03210-0.64582 0.42922 0.10026 0.90262-0.75687
   6  -7  -117862.19  683.51   1-0.20215 0.88229-0.97171 0.42838 0.12211-0.19504
  -6   7   117720.41  640.33   1-0.11478-0.56557 0.43922 0.10450 0.89101-0.81804
  -6   7   119357.52  827.42   1-0.08652-0.59331 0.47621 0.06729 0.87506-0.80215
   6  -7   053026.20 2193.27   1-0.22307 0.90517-0.96916 0.41195 0.10464-0.10464
  -6   7   053728.50 2216.68   1-0.14215-0.53965 0.52181 0.03563 0.84113-0.84113
   6  -7   110176.01  671.22   1-0.23370 0.91775-0.96758 0.39648 0.09568-0.02275
  -6   7  -1 9803.90  608.14   1-0.19790-0.48588 0.56487 0.00651 0.80109-0.87400
   6  -7   219986.50 1216.70   1-0.23659 0.92260-0.96712 0.38213 0.09324 0.05261
  -6   7  -220382.69 1210.52   1-0.25289-0.43290 0.60459-0.01919 0.75532-0.90123
  -6   6   723529.95 1431.20   1 0.29565-0.94634 0.51599-0.13580 0.80395-0.29322
  -6   6   722802.02 1316.69   1 0.22064-0.87091 0.17929 0.20089 0.95873-0.44850
  -6   6   6 6068.36  605.93   1 0.26529-0.91794 0.51336-0.11922 0.81613-0.37837
  -6   6   6 8129.39  718.87   1 0.18337-0.83559 0.21954 0.17457 0.95821-0.52087
  -6   6   538415.72 1527.74   1 0.22439-0.87885 0.50899-0.10073 0.83100-0.46633
  -6   6   538138.85 1541.50   1 0.14056-0.79472 0.26428 0.14378 0.95414-0.58969
  -6   6   422610.78 1208.40   1 0.17081-0.82724 0.50190-0.07970 0.84788-0.55615
  -6   6   422298.32 1201.39   1 0.09251-0.74864 0.31253 0.10940 0.94538-0.65387
  -6   6   362986.86 2962.48   1 0.10256-0.76097 0.49068-0.05454 0.86528-0.64648
  -6   6   367640.92 3212.98   1 0.04008-0.69815 0.36314 0.07275 0.93086-0.71223
   6  -6  -228750.43 1051.32   1-0.12361 0.78386-0.97478 0.52494 0.18579-0.33165
  -6   6   226851.32 1027.03   1 0.01746-0.67785 0.47335-0.02328 0.88069-0.73483
  -6   6   230296.74 1207.07   1-0.01583-0.64417 0.41469 0.03516 0.90982-0.76406
   6  -6  -156616.40 1968.94   1-0.16825 0.83045-0.97426 0.51054 0.14996-0.22289
  -6   6   157200.81 1972.65   1-0.08633-0.57606 0.44732 0.01674 0.89019-0.81722
  -6   6   157224.22 2037.98   1-0.07406-0.58786 0.46564-0.00177 0.88186-0.80895
   6  -6   054167.89 2572.42   1-0.19543 0.85959-0.97236 0.49475 0.12767-0.12767
  -6   6   053784.04 2517.87   1-0.20977-0.45462 0.40916 0.06885 0.88801-0.88801
  -6   6   052230.94 2498.47   1-0.13338-0.53050 0.51479-0.03698 0.84687-0.84687
   6  -6   123425.63 1249.76   1-0.21052 0.87664-0.97078 0.47928 0.11515-0.04222
  -6   6  -120856.25 1034.74   1-0.35132-0.31501 0.35535 0.13659 0.86619-0.93920
  -6   6  -120832.65 1151.19   1-0.19250-0.47336 0.56082-0.06906 0.80524-0.87815
   6  -6   242602.05 1703.61   1-0.21669 0.88477-0.97002 0.46463 0.10999 0.03586
  -6   6  -239546.73 1575.17   1-0.25028-0.41755 0.60277-0.09708 0.75763-0.90344
   6  -6   341038.05 1324.79   1-0.21598 0.88602-0.97011 0.45084 0.11059 0.10819
  -6   6  -341318.10 1310.93   1-0.30592-0.36392 0.64012-0.12047 0.70473-0.92360
   6  -6   4  569.45  406.34   1-0.20974 0.88173-0.97087 0.43771 0.11580 0.17591
  -6   6  -4  721.98  335.75   1-0.35851-0.31328 0.67232-0.13877 0.64763-0.93946
  -6   5   8 3824.13  597.13   1 0.31922-0.94997 0.51766-0.23107 0.79379-0.21011
  -6   5   8 2824.69  468.57   1 0.28176-0.91217 0.11042 0.17618 0.95310-0.36998
  -6   5   7  381.74  376.68   1 0.29913-0.93184 0.51626-0.21571 0.80249-0.29176
  -6   5   7  274.52  301.11   1 0.24906-0.88141 0.14772 0.15283 0.95715-0.44692
  -6   5   6 8655.95  807.59   1 0.27004-0.90470 0.51380-0.19930 0.81429-0.37653
  -6   5   6 8001.28  760.48   1 0.20994-0.84423 0.19098 0.12351 0.95887-0.52154
  -6   5   5 3039.19  428.19   1 0.23051-0.86700 0.50970-0.18110 0.82888-0.46422
  -6   5   5 2646.96  360.25   1 0.16446-0.80070 0.23950 0.08893 0.95686-0.59241
  -6   5   426795.65  886.94   1 0.17849-0.81696 0.50301-0.16047 0.84564-0.55391
  -6   5   427539.42  909.54   1 0.11299-0.75120 0.29216 0.05014 0.94966-0.65815
   6  -5  -314855.26  512.00   1 0.02937 0.61090-0.95299 0.59666 0.30157-0.52037
  -6   5   318541.20  796.41   1 0.11213-0.75258 0.49240-0.13592 0.86311-0.64431
  -6   5   317679.07  721.20   1 0.05651-0.69667 0.34752 0.00874 0.93596-0.71733
   6  -5  -215210.64  555.82   1-0.06185 0.70408-0.97033 0.60013 0.23372-0.37959
  -6   5   214266.11 1839.71   1 0.02947-0.67190 0.47602-0.10561 0.87893-0.73307
  -6   5   214921.16  652.87   1-0.00382-0.63827 0.40382-0.03359 0.91482-0.76907
   6  -5  -132323.31 1043.81   1-0.11886 0.76314-0.97464 0.59052 0.18955-0.26247
  -6   5   132909.45 1087.58   1-0.07097-0.57347 0.45152-0.06712 0.88943-0.81646
  -6   5   133843.31 1159.50   1-0.06653-0.57750 0.45926-0.07507 0.88580-0.81292
   6  -5   071839.73 2158.84   1-0.15467 0.80090-0.97476 0.57675 0.16096-0.16096
  -6   5   071065.00 2106.08   1-0.18965-0.45678 0.41592-0.01758 0.88940-0.88940
  -6   5   073533.82 2249.94   1-0.13004-0.51593 0.51210-0.11392 0.84901-0.84901
   6  -5   146311.68 1525.66   1-0.17594 0.82413-0.97385 0.56196 0.14369-0.07076
  -6   5  -146009.66 1397.99   1-0.32454-0.32383 0.36645 0.04581 0.87199-0.94500
  -6   5  -148612.55 1562.58   1-0.19284-0.45510 0.56107-0.14896 0.80498-0.87789
   6  -5   230638.13 1005.78   1-0.18669 0.83684-0.97311 0.54733 0.13488 0.01097
  -6   5  -226755.47  784.89   1-0.47082-0.17953 0.30008 0.12611 0.82962-0.97563
  -6   5  -228894.25  944.63   1-0.25371-0.39626 0.60516-0.17907 0.75459-0.90050
   6  -5   381320.89 2847.99   1-0.18947 0.84157-0.97289 0.53322 0.13260 0.08618
  -6   5  -372321.28 2400.38   1-0.61929-0.03323 0.21546 0.22476 0.75501-0.97384
  -6   5  -381683.39 2804.54   1-0.31146-0.34047 0.64366-0.20366 0.69906-0.91793
   6  -5   421230.95 1844.98   1-0.18593 0.83999-0.97317 0.51961 0.13550 0.15620
  -6   5  -421909.84  978.37   1-0.36550-0.28838 0.67635-0.22245 0.63948-0.93131
   6  -5   526800.35 1285.51   1-0.17724 0.83326-0.97377 0.50633 0.14262 0.22201
  -6   5  -525556.66 1716.75   1-0.41550-0.24011 0.70321-0.23538 0.57692-0.94177
  -6   4   9 4028.48  645.59   1 0.32528-0.93609 0.51804-0.32504 0.79108-0.13444
  -6   4   9 3792.58  557.80   1 0.33679-0.94711 0.04555 0.14768 0.94047-0.28490
  -6   4   8 1778.77  384.08   1 0.30977-0.92206 0.07804 0.12911 0.94760-0.36487
  -6   4   7 5493.11  619.14   1 0.29451-0.90923 0.51590-0.29499 0.80442-0.29370
  -6   4   7 4800.88  561.34   1 0.27568-0.89012 0.11744 0.10348 0.95404-0.44381
  -6   4   610167.93  838.83   1 0.26619-0.88288 0.51344-0.27859 0.81578-0.37802
  -6   4   6 8847.46  632.20   1 0.23433-0.85071 0.16418 0.07068 0.95819-0.52085
  -6   4   516297.83  751.86   1 0.22746-0.84599 0.50935-0.26040 0.82994-0.46528
  -6   4   516777.85  713.20   1 0.18561-0.80393 0.21717 0.03163 0.95832-0.59387
   6  -4  -4 1391.66  104.34   1 0.32553 0.29456-0.80586 0.54306 0.49458-0.78633
  -6   4   4  819.42  179.95   1 0.17634-0.79684 0.50270-0.23982 0.84627-0.55454
  -6   4   4 1156.51  371.74   1 0.12998-0.75025 0.27509-0.01233 0.95259-0.66103
   6  -4  -3 2703.16  212.54   1 0.13571 0.48662-0.91665 0.63991 0.37592-0.59472
  -6   4   3 3031.86  358.05   1 0.11111-0.73359 0.49221-0.21539 0.86335-0.64455
  -6   4   3 2419.99  293.92   1 0.06843-0.69067 0.33605-0.05941 0.93935-0.72071
   6  -4  -2 1201.13  148.79   1 0.02137 0.60291-0.95501 0.66441 0.29577-0.44164
  -6   4   2  973.94  202.93   1 0.03003-0.65449 0.47614-0.18539 0.87885-0.73298
  -6   4   2 1125.78  264.42   1 0.00271-0.62689 0.39787-0.10727 0.91743-0.77168
   6  -4  -1 6402.69  419.17   1-0.05161 0.67785-0.96901 0.66454 0.24153-0.31446
  -6   4   1 6146.90  396.34   1-0.06803-0.55846 0.45231-0.14758 0.88926-0.81629
  -6   4   1 5664.75  444.01   1-0.06531-0.56081 0.45821-0.15365 0.88643-0.81355
   6  -4   0 5212.68  373.89   1-0.09861 0.72691-0.97368 0.65527 0.20545-0.20545
  -6   4   0 4808.84  357.06   1-0.18303-0.44545 0.41810-0.09943 0.88976-0.88976
  -6   4   0 5272.98  374.21   1-0.13361-0.49444 0.51498-0.19644 0.84672-0.84672
   6  -4   125545.67  982.93   1-0.12813 0.75838-0.97487 0.64258 0.18221-0.10928
  -6   4  -127954.92 1015.76   1-0.31253-0.31788 0.37129-0.03869 0.87433-0.94733
  -6   4  -127740.82 1027.48   1-0.20037-0.42965 0.56671-0.23423 0.79917-0.87208
   6  -4   229620.49 1129.40   1-0.14505 0.77726-0.97493 0.62875 0.16870-0.02284
  -6   4  -228206.18  975.45   1-0.45150-0.18089 0.30969 0.03683 0.83679-0.98281
  -6   4  -227351.16 1018.26   1-0.26417-0.36789 0.61238-0.26595 0.74511-0.89102
   6  -4   313847.16 1861.59   1-0.15255 0.78672-0.97481 0.61474 0.16267 0.05611
  -6   4  -313070.61  873.50   1-0.59137-0.04318 0.23287 0.12767 0.77204-0.99087
  -6   4  -314172.82 1864.53   1-0.32381-0.31021 0.65143-0.29109 0.68613-0.90500
   6  -4   462305.17 1787.78   1-0.15272 0.78884-0.97481 0.60085 0.16253 0.12917
  -6   4  -462409.40 1589.14   1-0.72150 0.08530 0.14353 0.23092 0.67736-0.96922
  -6   4  -461478.55 1710.53   1-0.37878-0.25719 0.68384-0.30959 0.62359-0.91542
   6  -4   541719.74 2098.95   1-0.14698 0.78507-0.97491 0.58707 0.16715 0.19749
  -6   4  -536868.09 2349.35   1-0.42893-0.20878 0.70983-0.32167 0.55869-0.92354
   6  -4   666895.89 1952.67   1-0.13636 0.77640-0.97496 0.57323 0.17566 0.26191
  -6   4  -659117.04 1738.37   1-0.47414-0.16552 0.72995-0.32788 0.49228-0.93010
   6  -4   7 5346.51  664.13   1-0.12155 0.76355-0.97472 0.55911 0.18742 0.32307
  -6   4  -7 5110.22  766.52   1-0.51464-0.12698 0.74460-0.32862 0.42510-0.93588
  -6   3   954787.97 2341.97   1 0.31114-0.90397 0.51713-0.40376 0.79734-0.14070
  -6   3   954627.64 2240.91   1 0.36346-0.95585 0.01265 0.10096 0.93152-0.27595
  -6   3   8 8772.28  725.80   1 0.30018-0.89497 0.51634-0.38902 0.80204-0.21836
  -6   3   8 8623.90  678.48   1 0.33584-0.93020 0.04671 0.08081 0.94075-0.35803
  -6   3   743729.83 1247.81   1 0.30024-0.89658 0.08929 0.05215 0.94967-0.43978
  -6   3   643967.68 1462.19   1 0.25345-0.85203 0.51219-0.35683 0.82061-0.38301
  -6   3   642712.20 1376.01   1 0.25608-0.85454 0.13981 0.01542 0.95649-0.51915
  -6   3   525360.78 1029.86   1 0.21485-0.81541 0.50784-0.33855 0.83422-0.46955
  -6   3   525909.46  961.07   1 0.20323-0.80364 0.19825-0.02907 0.95884-0.59439
   6  -3  -438049.50  668.51   1 0.47337 0.12883-0.66935 0.48608 0.57260-0.86436
  -6   3   440189.03  956.29   1 0.16403-0.76656 0.50089-0.31766 0.84982-0.55808
  -6   3   439987.61  895.65   1 0.14220-0.74455 0.26259-0.07947 0.95436-0.66281
   6  -3  -333933.00 1082.07   1 0.26189 0.34225-0.85018 0.65308 0.45671-0.67553
  -6   3   336585.00 1317.25   1 0.09928-0.70379 0.49008-0.29291 0.86600-0.64720
  -6   3   333133.46 1157.44   1 0.07428-0.67861 0.33038-0.13337 0.94091-0.72228
   6  -3  -2107831.7 3291.60   1 0.12581 0.48054-0.92078 0.70976 0.36921-0.51508
  -6   3   2109478.7 3407.63   1 0.01912-0.62561 0.47373-0.26263 0.88046-0.73459
  -6   3   2110816.9 3445.71   1 0.00184-0.60811 0.39866-0.18769 0.91709-0.77134
   6  -3  -1 5050.02  355.21   1 0.03496 0.57334-0.95151 0.72662 0.30560-0.37854
  -6   3   1 4498.98  437.52   1-0.07720-0.53132 0.44983-0.22477 0.88976-0.81680
  -6   3   1 4159.34  345.20   1-0.07249-0.53567 0.46431-0.23934 0.88270-0.80979
   6  -3   017862.77  934.97   1-0.02569 0.63595-0.96498 0.72622 0.26106-0.26106
  -6   3   017446.90  903.18   1-0.18915-0.42137 0.41609-0.17708 0.88943-0.88943
  -6   3   018087.88  944.36   1-0.14624-0.46389 0.52506-0.28615 0.83840-0.83840
   6  -3   113485.04  770.53   1-0.06551 0.67772-0.97076 0.71814 0.23092-0.15799
  -6   3  -113243.79  734.78   1-0.31389-0.29857 0.37075-0.11782 0.87407-0.94708
  -6   3  -113760.16  765.20   1-0.21704-0.39506 0.57902-0.32617 0.78588-0.85879
   6  -3   2  325.83  293.60   1-0.09031 0.70459-0.97310 0.70652 0.21191-0.06605
  -6   3  -2   74.35  216.64   1-0.44619-0.16825 0.31228-0.04543 0.83868-0.98469
  -6   3  -2  603.57  211.64   1-0.28341-0.33073 0.62539-0.35861 0.72701-0.87292
   6  -3   3  484.51  316.50   1-0.10397 0.72020-0.97400 0.69353 0.20126 0.01752
  -6   3  -3 1112.33  207.88   1-0.57806-0.03852 0.24089 0.03998 0.77962-0.99845
  -6   3  -3  849.80  318.40   1-0.34424-0.27187 0.66390-0.38322 0.66387-0.88273
   6  -3   4  109.03  349.55   1-0.10900 0.72719-0.97425 0.67990 0.19732 0.09439
  -6   3  -4  479.77  188.66   1-0.70060 0.08234 0.15943 0.13534 0.69551-0.98737
  -6   3  -4  705.96  368.30   1-0.39926-0.21880 0.69493-0.40034 0.59803-0.88986
   6  -3   5  508.43  548.94   1-0.10718 0.72733-0.97417 0.66593 0.19875 0.16589
  -6   3  -5  132.45  145.38   1-0.80502 0.18475 0.07154 0.23717 0.58891-0.95373
  -6   3  -5  258.69  193.96   1-0.44861-0.17121 0.71903-0.41052 0.53078-0.89563
   6  -3   612316.90  872.17   1-0.09975 0.72185-0.97375 0.65163 0.20456 0.23300
  -6   3  -612968.90  701.00   1-0.88527 0.26313-0.01843 0.34100 0.46470-0.90248
  -6   3  -612226.80 1281.47   1-0.49243-0.12934 0.73701-0.41459 0.46295-0.90076
  -6   3  -7 7275.03  990.36   1-0.53116-0.09256 0.74947-0.41315 0.39515-0.90594
  -6   2   931291.39 1234.77   1 0.28851-0.86335 0.51542-0.48170 0.80690-0.15026
  -6   2   929699.04 1003.55   1 0.38811-0.96257-0.01855 0.05255 0.92142-0.26585
  -6   2   840454.94 2031.81   1 0.27775-0.85456 0.51450-0.46683 0.81125-0.22757
  -6   2   838301.48 1843.53   1 0.35974-0.93618 0.01729 0.03062 0.93288-0.35016
  -6   2   729542.00 1058.31   1 0.25892-0.83768 0.51274-0.45111 0.81856-0.30784
  -6   2   725989.36  831.24   1 0.32216-0.90058 0.06324-0.00141 0.94456-0.43468
  -6   2   685478.01 2831.76   1 0.23093-0.81154 0.50975-0.43405 0.82874-0.39114
  -6   2   682269.48 2629.12   1 0.27440-0.85495 0.11891-0.04330 0.95423-0.51689
  -6   2   522510.51  730.56   1 0.19210-0.77469 0.50490-0.41526 0.84152-0.47685
  -6   2   521687.85  568.86   1 0.21610-0.79858 0.18426-0.09471 0.95882-0.59437
   6  -2  -497199.35 2935.13   1 0.59472-0.01039-0.50872 0.40507 0.62248-0.91422
  -6   2   4101427.2 3190.49   1 0.14106-0.72563 0.49730-0.39373 0.85602-0.56429
  -6   2   4102741.0 3178.90   1 0.14783-0.73227 0.25679-0.15329 0.95509-0.66353
   6  -2  -3 3129.35  237.70   1 0.39449 0.19175-0.74867 0.63112 0.53279-0.75160
  -6   2   3 3210.88  216.09   1-0.59239 0.00596-0.76615 0.88373-0.24916 0.46794
  -6   2   3 3439.41  383.62   1 0.07628-0.66282 0.48572-0.36821 0.87077-0.65197
  -6   2   3 3418.89  316.35   1 0.07149-0.65790 0.33309-0.21571 0.94017-0.72154
   6  -2  -259659.87 1251.27   1 0.24538 0.34281-0.86046 0.72906 0.44653-0.59240
  -6   2   259759.66 1401.71   1-0.00338-0.58520 0.46858-0.33714 0.88341-0.73747
  -6   2   257821.35 1284.60   1-0.00953-0.57881 0.40900-0.27766 0.91248-0.76672
   6  -2  -1217680.3 4314.39   1 0.13902 0.45134-0.91524 0.76993 0.37815-0.45108
  -6   2   1217658.5 4371.58   1-0.09836-0.49221 0.44395-0.29855 0.89063-0.81766
  -6   2   1215878.0 4313.19   1-0.09149-0.49875 0.48039-0.33506 0.87226-0.79936
   6  -2   0 9692.38  608.80   1 0.06413 0.52819-0.94304 0.78387 0.32643-0.32643
  -6   2   0 9527.33  606.30   1-0.20747-0.38509 0.40994-0.25060 0.88819-0.88819
  -6   2   0 9512.08  634.09   1-0.17109-0.42113 0.54450-0.38523 0.82112-0.82112
   6  -2   199347.81 2103.19   1 0.01259 0.58167-0.95713 0.78409 0.28937-0.21644
  -6   2  -197024.29 2041.49   1-0.32755-0.26696 0.36523-0.19196 0.87138-0.94439
  -6   2  -197334.62 2064.91   1-0.24554-0.34865 0.59945-0.42624 0.76181-0.83471
   6  -2   219541.13 1000.41   1-0.02163 0.61785-0.96425 0.77735 0.26409-0.11822
  -6   2  -218860.14  958.08   1-0.45325-0.14323 0.30883-0.12165 0.83616-0.98218
  -6   2  -219573.10  982.76   1-0.31349-0.28275 0.64494-0.45782 0.69696-0.84287
   6  -2   358176.55 1935.19   1-0.04280 0.64098-0.96776 0.76699 0.24820-0.02939
  -6   2  -356514.51 1823.04   1-0.57716-0.02145 0.24143-0.04022 0.78012-0.99896
  -6   2  -354591.64 1780.92   1-0.37417-0.22403 0.68127-0.48024 0.62917-0.84804
   6  -2   4 6306.41  489.57   1-0.05389 0.65402-0.96932 0.75469 0.23979 0.05194
  -6   2  -4 5104.39  361.49   1-0.69185 0.09153 0.16588 0.04922 0.70272-0.99458
  -6   2  -4 5344.82  503.56   1-0.42787-0.17210 0.70932-0.49438 0.56015-0.85203
   6  -2   5 9005.01  527.01   1-0.05700 0.65908-0.96973 0.74122 0.23742 0.12724
  -6   2  -5 8593.61  353.57   1-0.79023 0.18790 0.08548 0.14356 0.60681-0.97163
  -6   2  -5 9673.81  707.09   1-0.47498-0.12695 0.73029-0.50144 0.49097-0.85582
   6  -2   6 8288.76  650.71   1-0.05363 0.65766-0.96929 0.72692 0.23998 0.19761
  -6   2  -6 8024.03  553.40   1-0.86790 0.26370 0.00376 0.23914 0.49671-0.93448
  -6   2  -6 8460.28  954.40   1-0.51616-0.08771 0.74508-0.50233 0.42239-0.86021
   6  -2   7 1323.71  522.20   1-0.04489 0.65087-0.96807 0.71183 0.24662 0.26391
  -6   2  -7  420.15  171.22   1-0.92289 0.31670-0.07601 0.33285 0.37746-0.88820
  -6   2  -7 1185.10  381.22   1-0.55206-0.05407 0.75459-0.49793 0.35469-0.86552
   6  -2   8 1685.33  417.86   1-0.03155 0.63948-0.96598 0.69588 0.25667 0.32680
  -6   2  -8 3249.14  512.32   1-0.58328-0.02478 0.75941-0.48886 0.28820-0.87200
  -6   1  1038433.76 2177.86   1 0.26004-0.81495 0.51285-0.57272 0.81814-0.08853
  -6   1   9  499.64  353.82   1 0.25655-0.81341 0.51250-0.55842 0.81946-0.16281
  -6   1   9  269.88  213.24   1 0.41036-0.96690-0.04743 0.00181 0.91068-0.25511
  -6   1   827007.09 1143.73   1 0.24587-0.80456 0.51140-0.54322 0.82341-0.23994
  -6   1   827991.01 1079.96   1 0.38098-0.93950-0.00945-0.02225 0.92453-0.34180
  -6   1   710209.45  882.97   1 0.22667-0.78734 0.50926-0.52715 0.83022-0.31968
  -6   1   710658.52  756.50   1 0.34072-0.90121 0.04076-0.05855 0.93927-0.42939
  -6   1   647802.29 1719.53   1 0.19800-0.76064 0.50569-0.50964 0.83968-0.40208
  -6   1   643796.85 1444.31   1 0.28797-0.85043 0.10366-0.10754 0.95201-0.51496
   6  -1  -5 5436.04  274.47   1 0.79178-0.22743 0.09457-0.10455 0.60343-0.96816
  -6   1   5 5243.50  583.13   1 0.15853-0.72315 0.50006-0.49008 0.85135-0.48668
  -6   1   5 5985.81  407.19   1 0.22199-0.78656 0.17781-0.16789 0.95869-0.59424
   6  -1  -486849.55 1242.19   1 0.67487-0.10847-0.36149 0.33746 0.64332-0.93506
  -6   1   481378.25 1198.75   1-0.44618-0.12028-0.88975 0.91383-0.09616 0.38786
  -6   1   486445.36 1518.50   1 0.10685-0.67345 0.49145-0.46754 0.86432-0.57258
  -6   1   487490.35 1353.77   1 0.14347-0.70999 0.26128-0.23742 0.95453-0.66297
   6  -1  -3138240.8 2740.39   1 0.51351 0.05482-0.62221 0.58427 0.59088-0.80969
  -6   1   3125645.2 2522.25   1-0.41311-0.15543-0.90835 0.94621-0.06499 0.28375
  -6   1   3137065.7 2766.45   1 0.05544-0.62392 0.34855-0.31080 0.93564-0.71701
   6  -1  -2 6951.46  465.90   1 0.36878 0.20149-0.77122 0.71939 0.51885-0.66472
  -6   1   2 6038.43  478.06   1-0.03772-0.53290 0.46020-0.40842 0.88701-0.74107
  -6   1   2 7121.97  493.65   1-0.03681-0.53361 0.43338-0.38168 0.90045-0.75470
   6  -1  -1132896.4 2940.35   1 0.25394 0.31829-0.85519 0.78949 0.45183-0.52476
  -6   1   1129968.1 2939.49   1-0.13133-0.44129 0.43432-0.36860 0.89112-0.81816
  -6   1   1128619.7 2854.32   1-0.12767-0.44465 0.51019-0.44449 0.85053-0.77762
   6  -1   051114.17 1250.06   1 0.16746 0.40670-0.90257 0.82297 0.39662-0.39662
  -6   1   048700.90 1241.15   1-0.23744-0.33717 0.39950-0.31983 0.88544-0.88544
  -6   1   048061.03 1153.13   1-0.21281-0.36149 0.57592-0.49628 0.78931-0.78931
   6  -1   1116930.5 2642.13   1 0.10481 0.47152-0.92902 0.83557 0.35484-0.28191
  -6   1  -1117358.3 2655.44   1-0.35254-0.22401 0.35483-0.26123 0.86591-0.93892
  -6   1  -1113577.9 2548.51   1-0.28950-0.28687 0.62942-0.53586 0.72111-0.79407
   6  -1   286070.56 1859.68   1 0.06058 0.51770-0.94414 0.83682 0.32392-0.17805
  -6   1  -289971.10 1919.08   1-0.47130-0.10724 0.29984-0.19233 0.82943-0.97545
  -6   1  -287193.50 1859.27   1-0.35673-0.22160 0.67129-0.56381 0.64970-0.79561
   6  -1   388130.03 1545.32   1 0.03093 0.54930-0.95258 0.83140 0.30269-0.08389
  -6   1  -386980.81 1411.26   1-0.58690 0.00626 0.23558-0.11405 0.77462-0.99345
  -6   1  -382899.42 1378.23   1-0.41491-0.16537 0.70301-0.58163 0.57759-0.79646
   6  -1   491468.57 2917.19   1 0.01277 0.56942-0.95709 0.82204 0.28949 0.00223
  -6   1  -494699.78 2946.86   1-0.69331 0.11093 0.16481-0.02938 0.70153-0.99339
  -6   1  -490179.34 2866.32   1-0.46505-0.11704 0.72620-0.59092 0.50631-0.79819
   6  -1   552962.63 1186.96   1 0.00375 0.58038-0.95914 0.81022 0.28289 0.08177
  -6   1  -556235.00 1141.27   1-0.78479 0.20041 0.09045 0.05891 0.61311-0.97793
  -6   1  -555267.57 1205.23   1-0.50808-0.07595 0.74247-0.59329 0.43654-0.80139
   6  -1   672433.22 2362.96   1 0.00217 0.58391-0.95949 0.79670 0.28173 0.15587
  -6   1  -677558.28 2385.67   1-0.85817 0.27189 0.01538 0.14785 0.51312-0.95089
  -6   1  -674514.98 2439.76   1-0.54507-0.04091 0.75299-0.58990 0.36861-0.80643
   6  -1   711615.69  910.91   1 0.00674 0.58130-0.95847 0.78182 0.28508 0.22545
  -6   1  -711217.34  757.25   1-0.91217 0.32391-0.05781 0.23498 0.40570-0.91643
  -6   1  -711394.84 1334.30   1-0.57692-0.01126 0.75873-0.58177 0.30243-0.81327
   6  -1   811296.40  849.85   1 0.01650 0.57348-0.95620 0.76569 0.29222 0.29125
  -6   1  -812449.67  825.91   1-0.94727 0.35735-0.12750 0.31868 0.29397-0.87791
  -6   1  -811173.83 1254.08   1-0.60432 0.01420 0.76033-0.56947 0.23807-0.82188
   6  -1   918439.41 1135.75   1 0.03076 0.56117-0.95262 0.74824 0.30257 0.35383
  -6   1  -916870.85  987.09   1-0.96438 0.37254-0.19221 0.39732 0.18171-0.83865
  -6   1  -915702.03 2519.09   1-0.62783 0.03577 0.75836-0.55361 0.17521-0.83200
  -6   0  10  -41.19  371.06   1 0.21811-0.75487 0.50824-0.64759 0.83313-0.10380
  -6   0   9 2454.93  545.84   1 0.21449-0.75323 0.50780-0.63321 0.83434-0.17794
  -6   0   9 2146.41  371.36   1 0.42962-0.96824-0.07302-0.05221 0.90004-0.24448
  -6   0   8  692.21  515.51   1 0.20321-0.74394 0.50637-0.61785 0.83802-0.25455
  -6   0   8  804.55  262.66   1 0.39873-0.93933-0.03225-0.07907 0.91649-0.33377
  -6   0   7 3126.08  324.82   1 0.18336-0.72606 0.50370-0.60124 0.84419-0.33365
  -6   0   7 3307.65  270.65   1 0.35454-0.89711 0.02374-0.12116 0.93473-0.42484
   6   0  -6 2401.62  262.89   1 0.75268-0.20840 0.47043-0.38694 0.46060-0.89824
  -6   0   6 3720.96  388.45   1 0.15382-0.69850 0.49933-0.58294 0.85264-0.41504
  -6   0   6 3799.16  275.74   1 0.29432-0.83886 0.09625-0.17974 0.95084-0.51380
   6   0  -538698.58 1205.30   1 0.79147-0.24506 0.08984-0.02020 0.60456-0.96929
  -6   0   540240.17 1407.56   1 0.11338-0.66004 0.49262-0.56229 0.86282-0.49815
  -6   0   537861.76 1214.91   1 0.21654-0.76319 0.18378-0.25349 0.95881-0.59436
   6   0  -4  473.49  123.83   1 0.72324-0.17476-0.24161 0.29721 0.64694-0.93867
  -6   0   4  486.86  160.32   1-0.18275-0.36597-0.97340 0.91786 0.13811 0.15359
  -6   0   4   96.16  329.04   1 0.06083-0.60947 0.48264-0.53838 0.87370-0.58196
  -6   0   4  258.38  130.98   1 0.12220-0.67080 0.28298-0.33874 0.95130-0.65974
   6   0  -3114756.7 2517.77   1 0.60633-0.05590-0.49002 0.53168 0.62629-0.84509
  -6   0   3115833.9 2650.73   1-0.00478-0.54589 0.46825-0.51009 0.88358-0.66468
  -6   0   3109082.4 2413.15   1 0.01689-0.56746 0.38482-0.42671 0.92283-0.70420
   6   0  -2133418.0 2927.36   1 0.48158 0.07079-0.66012 0.68790 0.57646-0.72234
  -6   0   2133243.9 3015.38   1-0.08389-0.46878 0.44799-0.47589 0.89008-0.74415
  -6   0   2123097.4 2715.71   1-0.08987-0.46257 0.47903-0.50690 0.87318-0.72737
   6   0  -174611.76 1696.79   1 0.36977 0.18453-0.77038 0.78427 0.51939-0.59233
  -6   0   172603.70 1733.96   1-0.17578-0.37888 0.42046-0.43441 0.89011-0.81715
  -6   0   173098.36 1661.50   1-0.19010-0.36431 0.55901-0.57295 0.80707-0.73416
   6   0   0121486.6 2712.41   1 0.27814 0.27814-0.83959 0.83959 0.46659-0.46659
  -6   0   0118866.7 2217.60   1-0.27831-0.27831 0.38463-0.38463 0.88011-0.88011
  -6   0   0118988.3 2153.13   1-0.27825-0.27825 0.62194-0.62194 0.73195-0.73195
   6   0   111573.98  739.49   1 0.20688 0.35132-0.88255 0.86864 0.42225-0.34931
  -6   0  -111884.16  805.11   1-0.38778-0.17081 0.33950-0.32558 0.85694-0.92995
  -6   0  -111016.83  710.81   1-0.35295-0.20551 0.66907-0.65516 0.65403-0.72699
   6   0   2323768.016622.91   1 0.15371 0.40643-0.90896 0.88115 0.38750-0.24162
  -6   0  -2311108.4 6761.64   1-0.49877-0.06191 0.28527-0.25736 0.81843-0.96432
  -6   0  -2312584.0 6777.46   1-0.41525-0.14516 0.70318-0.67536 0.57713-0.72305
   6   0   310419.69  754.33   1 0.11582 0.44647-0.92479 0.88319 0.36240-0.14360
  -6   0  -310293.59  645.93   1-0.60571 0.04304 0.22403-0.18217 0.76348-0.98232
  -6   0  -312482.16 1292.12   1-0.46719-0.09505 0.72710-0.68538 0.50304-0.72194
   6   0   4147249.5 2298.62   1 0.09019 0.47406-0.93436 0.87889 0.34472-0.05298
  -6   0  -4146837.5 2226.38   1-0.70333 0.13889 0.15739-0.10164 0.69321-0.98507
  -6   0  -4145540.8 2210.48   1-0.51062-0.05357 0.74331-0.68769 0.43214-0.72402
  -6   0  -527687.19 1095.74   1-0.78722 0.22077 0.08824-0.01855 0.61032-0.97514
  -6   0  -531049.28 1478.77   1-0.54721-0.01893 0.75349-0.68396 0.36442-0.72926
   6   0   661930.61 2101.60   1 0.06749 0.50065-0.94197 0.85878 0.32881 0.10879
  -6   0  -660437.37 1974.13   1-0.85515 0.28680 0.01889 0.06468 0.51802-0.95580
  -6   0  -661433.21 2434.61   1-0.57829 0.00998 0.75889-0.67552 0.29940-0.73726
   6   0   779877.32 2458.81   1 0.06723 0.50287-0.94206 0.84500 0.32862 0.18191
  -6   0  -781378.22 2407.48   1-0.90635 0.33601-0.04863 0.14614 0.41971-0.93044
  -6   0  -786854.31 4138.88   1-0.60478 0.03453 0.76033-0.66306 0.23693-0.74776
   6   0   827986.06 1453.51   1 0.07281 0.49924-0.94026 0.82933 0.33256 0.25091
  -6   0  -826613.12 1350.73   1-0.94139 0.36942-0.11312 0.22460 0.31776-0.90170
  -6   0  -830974.23 1604.16   1-0.62740 0.05523 0.75843-0.64727 0.17644-0.76024
   6   0   935385.92 1638.47   1 0.08342 0.49058-0.93671 0.81192 0.34000 0.31640
  -6   0  -931036.81 1345.83   1-0.96102 0.38714-0.17337 0.29879 0.21532-0.87226
  -6   0  -929480.75 2067.95   1-0.64678 0.07260 0.75356-0.62858 0.11751-0.77434
  -6  -1  1023692.57 2158.19   1 0.16466-0.68346 0.50099-0.72000 0.84964-0.12030
  -6  -1   9  966.75  496.17   1 0.16078-0.68156 0.50040-0.70547 0.85072-0.19432
  -6  -1   823881.97 1053.25   1 0.14891-0.67166 0.49856-0.68970 0.85396-0.27049
  -6  -1   7 8874.56  790.06   1 0.12816-0.65290 0.49517-0.67237 0.85928-0.34875
  -6  -1   7 7204.51  517.30   1 0.36092-0.88557 0.01582-0.19285 0.93246-0.42257
   6   1  -618337.31  433.55   1 0.77612-0.24982 0.37456-0.21149 0.50727-0.94491
  -6  -1   619142.51  643.91   1 0.09754-0.62425 0.48976-0.65302 0.86638-0.42878
  -6  -1   619203.67  447.53   1 0.28806-0.81468 0.10355-0.26667 0.95199-0.51494
   6   1  -5 7207.41  752.36   1 0.79306-0.26465 0.11121 0.03794 0.59890-0.96359
  -6  -1   5 9079.70  648.21   1 0.05598-0.58468 0.48165-0.63098 0.87457-0.50990
  -6  -1   5 9263.70  490.66   1 0.18942-0.71815 0.21310-0.36244 0.95849-0.59404
   6   1  -415829.91  865.23   1 0.75285-0.22246-0.14447 0.27982 0.64213-0.93392
  -6  -1   411979.13  676.54   1 0.05330-0.58402-0.94633 0.81128 0.31874-0.02700
  -6  -1   416375.89  975.98   1 0.00255-0.53328 0.46997-0.60543 0.88267-0.59081
  -6  -1   415140.65  819.10   1 0.06683-0.59754 0.33760-0.47308 0.93891-0.64740
   6   1  -414067.24  759.36   1 0.70815-0.17738-0.61849 0.75401 0.34054-0.63245
   6   1  -313485.54  804.66   1 0.67266-0.14017-0.36625 0.48757 0.64295-0.86175
  -6  -1   314591.54  955.61   1-0.06336-0.46936 0.45355-0.57506 0.88897-0.67007
  -6  -1   313475.04  793.88   1-0.06604-0.46660 0.45884-0.58036 0.88605-0.66742
   6   1  -312828.43  753.63   1 0.66870-0.13595-0.47421 0.59573 0.57267-0.79159
   6   1  -2 5850.87  410.76   1 0.57434-0.03991-0.53991 0.64730 0.61531-0.76118
  -6  -1   2 6448.09  545.63   1-0.14164-0.39307 0.43120-0.53876 0.89106-0.74513
  -6  -1   2 5375.58  352.28   1-0.19032-0.34420 0.55917-0.66669 0.80690-0.66109
   6   1  -2 5832.42  371.97   1 0.56506-0.03051-0.27316 0.38059 0.77851-0.92423
   6   1  -1 7786.87  444.71   1 0.47556 0.06085-0.66692 0.76041 0.57363-0.64657
  -6  -1   1 8358.61  502.28   1-0.23109-0.30562 0.40175-0.49537 0.88610-0.81314
  -6  -1   1 8490.66  426.46   1-0.29434-0.24230 0.63261-0.72617 0.71635-0.64339
   6   1  -1 7768.11  380.94   1 0.41380 0.12268-0.05196 0.14550 0.90888-0.98172
   6   1   052778.51 1082.00   1 0.38679 0.15155-0.75558 0.83519 0.52866-0.52866
  -6  -1   053746.05 1027.33   1-0.37610-0.16249 0.68235-0.76200 0.62684-0.62684
   6   1   044184.09  835.56   1 0.25411 0.28434 0.14203-0.06240 0.95668-0.95668
   6   1   1 1457.45  216.74   1 0.31250 0.22782-0.81557 0.88127 0.48701-0.41407
  -6  -1  -1 1783.78  280.48   1-0.43197-0.10867 0.31912-0.38488 0.84353-0.91654
  -6  -1  -1 1746.03  259.66   1-0.43955-0.10089 0.71487-0.78063 0.54382-0.61679
   6   1   273428.89 1735.08   1 0.25346 0.28879-0.85549 0.90728 0.45153-0.30566
  -6  -1  -271293.82 1704.27   1-0.53446-0.00826 0.26597-0.31774 0.80225-0.94814
  -6  -1  -273548.56 1698.40   1-0.48951-0.05289 0.73592-0.78777 0.46774-0.61368
   6   1   3 1474.23  433.66   1 0.20857 0.33561-0.88163 0.91952 0.42332-0.20451
  -6  -1  -3  833.85  340.95   1-0.63200 0.08730 0.20725-0.24507 0.74673-0.96556
  -6  -1  -3 1145.15  234.89   1-0.52971-0.01463 0.74907-0.78702 0.39784-0.61675
   6   1   438224.82 1030.55   1 0.17606 0.37005-0.89842 0.92241 0.40227-0.11052
  -6  -1  -437895.56  966.26   1-0.72033 0.17384 0.14444-0.16836 0.67841-0.97027
  -6  -1  -443435.10 2074.22   1-0.56283 0.01632 0.75666-0.78078 0.33268-0.62459
   6   1   5123101.2 3841.52   1 0.15412 0.39392-0.90877 0.91885 0.38778-0.02309
  -6  -1  -5123271.5 3812.32   1-0.79610 0.24760 0.08002-0.09000 0.59984-0.96467
  -6  -1  -5126703.7 3934.10   1-0.59051 0.04207 0.75997-0.77019 0.27153-0.63641
   6   1   6 2476.61  367.93   1 0.14111 0.40886-0.91454 0.91071 0.37907 0.05855
  -6  -1  -6 3626.57  390.33   1-0.85780 0.30738 0.01582-0.01190 0.51373-0.95151
  -6  -1  -6 2408.56  412.69   1-0.61397 0.06360 0.75996-0.75629 0.21327-0.65113
   6   1   743678.59 1549.37   1 0.13576 0.41640-0.91663 0.89916 0.37595 0.13458
  -6  -1  -742746.16 1438.72   1-0.90501 0.35261-0.04658 0.06443 0.42281-0.93354
  -6  -1  -750168.34 2924.98   1-0.63399 0.08170 0.75718-0.73961 0.15721-0.66804
   6   1   835010.75 1376.61   1 0.13674 0.41737-0.91622 0.88487 0.37661 0.20686
  -6  -1  -833179.34 1238.79   1-0.93837 0.38434-0.10633 0.13812 0.32885-0.91279
  -6  -1  -835584.67 2985.09   1-0.65119 0.09689 0.75191-0.72050 0.10279-0.68664
   6   1   910978.83  789.40   1 0.14318 0.41260-0.91364 0.86809 0.38046 0.27597
  -6  -1  -9 9831.54  491.25   1-0.95845 0.40250-0.16242 0.20815 0.23449-0.89143
  -6  -1  -9 9148.41 1348.05   1-0.66578 0.10953 0.74448-0.69919 0.04965-0.70648
   6   1  1029757.07 2655.06   1 0.15458 0.40313-0.90856 0.84911 0.38808 0.34129
  -6  -1 -1031744.23 2794.39   1-0.96651 0.40865-0.21470 0.27437 0.14053-0.87047
  -6  -1 -1025314.21 3343.13   1-0.67808 0.11987 0.73498-0.67580-0.00254-0.72726
  -6  -2   9  400.41  295.81   1 0.09441-0.59723 0.48918-0.77391 0.86705-0.21065
  -6  -2   871738.32 2525.52   1 0.08183-0.58663 0.48680-0.75759 0.86967-0.28620
   6   2  -724154.53 1000.32   1 0.72978-0.22343 0.53721-0.28065 0.42286-0.93344
  -6  -2   729269.32 1117.71   1 0.06011-0.56688 0.48249-0.73935 0.87383-0.36329
   6   2  -615592.28 1338.41   1 0.78082-0.27249 0.34820-0.10556 0.51871-0.95634
  -6  -2   619707.25 1165.65   1 0.02839-0.53714 0.47578-0.71871 0.87910-0.44150
  -6  -2   618239.66  979.16   1 0.25401-0.76288 0.14214-0.38505 0.95669-0.51935
   6   2  -5181312.3 5489.17   1 0.79424-0.28380 0.14355 0.08520 0.59039-0.95508
  -6  -2   5183789.0 5656.48   1-0.01417-0.49661 0.46601-0.69508 0.88466-0.51983
  -6  -2   5167616.1 5037.01   1 0.10520-0.61602 0.30004-0.52901 0.94810-0.58365
   6   2  -4  606.55  119.09   1 0.77141-0.25897-0.06311 0.27808 0.63320-0.92498
  -6  -2   4 1469.86  439.43   1-0.06816-0.44461 0.45227-0.66740 0.88926-0.59740
  -6  -2   4  903.13  103.43   1-0.66319 0.15020 0.74606-0.96099 0.05968 0.23223
  -6  -2   4  908.40   79.55   1-0.08714-0.42564 0.47679-0.69190 0.87468-0.58317
   6   2  -344811.91 1072.13   1 0.71815-0.20357-0.25600 0.45694 0.64707-0.86588
  -6  -2   346160.71 1250.26   1-0.13375-0.38101 0.43359-0.63477 0.89112-0.67222
  -6  -2   343916.67  971.58   1-0.26865-0.24597 0.61545-0.81654 0.74097-0.52225
   6   2  -220914.46 1225.58   1 0.64522-0.12871-0.42136 0.60835 0.63728-0.78315
  -6  -2   220043.61 1257.60   1-0.21032-0.30644 0.40897-0.59620 0.88797-0.74204
  -6  -2   220344.62 1161.84   1-0.39120-0.12556 0.69064-0.87776 0.60824-0.46233
   6   2  -219169.90 1092.13   1 0.64533-0.12871-0.42208 0.60918 0.63669-0.78250
   6   2  -112767.61  668.26   1 0.56440-0.04597-0.55441 0.72751 0.61161-0.68454
  -6  -2   112799.98  692.88   1-0.29615-0.22257 0.37776-0.55103 0.87726-0.80425
  -6  -2   112675.42  646.17   1-0.46450-0.05415 0.72597-0.89919 0.50714-0.43418
   6   2  -111757.64  542.34   1 0.45241 0.06617-0.10376 0.27691 0.88575-0.95861
   6   2   057440.03 1137.47   1 0.48524 0.03520-0.65594 0.81516 0.57816-0.57816
  -6  -2   047247.56 1016.54   1-0.38852-0.13218 0.33917-0.49851 0.85674-0.85674
  -6  -2   061062.91 1142.13   1-0.51232-0.00828 0.74386-0.90318 0.42917-0.42917
   6   2   053666.64  983.46   1 0.23443 0.28610 0.16406-0.00481 0.95818-0.95818
   6   2   1 5908.88  436.62   1 0.41392 0.10845-0.73060 0.87592 0.54303-0.47009
  -6  -2  -1 6064.18  397.23   1-0.48335-0.03941 0.29328-0.43868 0.82483-0.89777
  -6  -2  -1 7550.29  701.72   1-0.54717 0.02462 0.75348-0.89889 0.36450-0.43746
   6   2   1 5438.51  288.54   1 0.06018 0.46232 0.34400-0.19870 0.93703-0.86415
   6   2   214168.61  953.56   1 0.35346 0.17085-0.78397 0.91541 0.51034-0.36446
  -6  -2  -213423.84 1003.51   1-0.57481 0.05011 0.75847-0.89008 0.30708-0.45303
   6   2   315333.47 1002.16   1 0.30456 0.22173-0.82132 0.93881 0.48235-0.26354
  -6  -2  -315738.01 1010.50   1-0.66418 0.13745 0.18562-0.30311 0.72415-0.94298
  -6  -2  -319692.44 1378.67   1-0.59768 0.07105 0.76028-0.87799 0.25443-0.47336
  -6  -2  -467802.50 1514.76   1-0.74282 0.21427 0.12655-0.23014 0.65741-0.94927
  -6  -2  -473106.33 1765.61   1-0.61725 0.08869 0.75970-0.86352 0.20453-0.49644
   6   2   544360.08 1026.40   1 0.23957 0.29059-0.86395 0.95364 0.44291-0.07823
  -6  -2  -540730.99  900.28   1-0.81008 0.27952 0.06662-0.15628 0.58250-0.94733
  -6  -2  -541303.19  950.24   1-0.63427 0.10378 0.75712-0.84704 0.15640-0.52128
   6   2   6 5919.96  472.07   1 0.22119 0.31090-0.87464 0.95041 0.43136 0.00626
  -6  -2  -6 6744.62  494.54   1-0.86503 0.33254 0.00724-0.08299 0.50165-0.93942
  -6  -2  -6 6746.57 1002.88   1-0.64922 0.11674 0.75268-0.82873 0.10943-0.54732
   6   2   710948.73  654.68   1 0.21066 0.32336-0.88049 0.94236 0.42466 0.08589
  -6  -2  -711340.04  488.60   1-0.90750 0.37302-0.05040-0.01140 0.41701-0.92775
  -6  -2  -712768.46  909.93   1-0.66226 0.12783 0.74659-0.80876 0.06319-0.57406
   6   2   8 6788.63  553.21   1 0.20697 0.32899-0.88250 0.93047 0.42230 0.16119
  -6  -2  -8 6186.07  483.68   1-0.93809 0.40201-0.10570 0.05781 0.32986-0.91380
  -6  -2  -8 6110.43  824.05   1-0.67361 0.13723 0.73887-0.78716 0.01743-0.60128
   6   2   911174.49  903.59   1 0.20923 0.32865-0.88127 0.91533 0.42375 0.23268
  -6  -2  -9 9665.63  737.40   1-0.95723 0.41924-0.15784 0.12388 0.24244-0.89938
  -6  -2  -9 8682.66  791.29   1-0.68335 0.14503 0.72954-0.76394-0.02805-0.62877
   6   2  1019145.86 1234.69   1 0.21675 0.32307-0.87713 0.89728 0.42854 0.30083
  -6  -2 -1019083.47 1241.90   1-0.69155 0.15128 0.71857-0.73909-0.07341-0.65639
  -6  -3   9 7806.88  585.37   1 0.01409-0.49893 0.47259-0.83698 0.88116-0.22476
  -6  -3   8 4126.99  575.11   1 0.00083-0.48769 0.46957-0.82015 0.88289-0.29916
  -6  -3   779347.11 2090.45   1-0.02165-0.46718 0.46420-0.80083 0.88546-0.37470
   6   3  -6 5053.68  585.98   1 0.78089-0.29053 0.34779-0.02557 0.51888-0.95652
  -6  -3   6 4571.86  439.88   1-0.05416-0.43667 0.45598-0.77866 0.88833-0.45054
   6   3  -588742.73 1687.57   1 0.79450-0.30203 0.18008 0.12827 0.57993-0.94462
  -6  -3   588825.16 1686.37   1-0.09719-0.39563 0.44428-0.75302 0.89059-0.52576
   6   3  -485973.73 1326.03   1 0.78315-0.28866 0.00811 0.28647 0.62177-0.91356
  -6  -3   487518.60 1494.22   1-0.15098-0.34384 0.42832-0.72312 0.89092-0.59905
   6   3  -371960.78 1526.30   1 0.74905-0.25263-0.15865 0.43932 0.64323-0.86207
  -6  -3   369330.50 1581.35   1-0.21518-0.28162 0.40730-0.68815 0.88757-0.66867
   6   3  -2109594.0 2453.84   1 0.69711-0.19852-0.31056 0.57723 0.64620-0.79207
  -6  -3   2108013.4 2486.18   1-0.28864-0.21014 0.38067-0.64753 0.87850-0.73248
   6   3  -114740.79  918.29   1 0.63457-0.13406-0.44116 0.69387 0.63457-0.70750
  -6  -3   116610.53 1085.27   1-0.36949-0.13128 0.34755-0.60049 0.86178-0.78878
   6   3  -114464.52  820.68   1 0.58101-0.08036-0.29964 0.55249 0.75672-0.82963
   6   3   0122272.8 2243.48   1 0.56861-0.06617-0.54833 0.78715 0.61319-0.61319
  -6  -3   0124435.3 2325.11   1-0.45468-0.04807 0.30813-0.54714 0.83565-0.83565
  -6  -3   0120965.1 2137.58   1-0.66300 0.16014 0.74617-0.98524 0.06040-0.06040
   6   3   0115272.2 2009.04   1 0.22529 0.27732 0.17417 0.06471 0.95859-0.95859
   6   3   1 1519.25  341.47   1 0.50491-0.00042-0.63276 0.85769 0.58709-0.51415
  -6  -3  -1 1127.82  274.69   1-0.54044 0.03564 0.26263-0.48770 0.79933-0.87228
  -6  -3  -1  997.94  149.67   1-0.65532 0.15051 0.75014-0.97532 0.08852-0.16150
   6   3   1  577.69   77.74   1-0.00477 0.50937 0.40469-0.17976 0.91443-0.84156
   6   3   2128929.5 2918.21   1 0.44744 0.05897-0.69724 0.90828 0.56004-0.41416
  -6  -3  -2133353.8 3027.08   1-0.62354 0.11676 0.21274-0.42385 0.75228-0.89817
  -6  -3  -2132826.3 2956.03   1-0.65595 0.14919 0.74985-0.96114 0.08628-0.23224
   6   3   312893.20  841.15   1 0.39830 0.11004-0.74519 0.94235 0.53482-0.31600
  -6  -3  -312957.74  887.04   1-0.70071 0.19210 0.15934-0.35655 0.69541-0.91430
  -6  -3  -316026.05 1604.24   1-0.66029 0.15158 0.74768-0.94509 0.07057-0.28951
   6   3   4 6000.98  508.41   1 0.35827 0.15200-0.78002 0.96329 0.51302-0.22127
  -6  -3  -4 6215.70  490.15   1-0.76930 0.25868 0.10423-0.28750 0.63032-0.92218
  -6  -3  -4 7244.67  688.64   1-0.66633 0.15567 0.74414-0.92766 0.04750-0.33942
   6   3   551960.03 1100.95   1 0.32710 0.18517-0.80467 0.97396 0.49548-0.13079
  -6  -3  -557574.56 1114.13   1-0.82787 0.31525 0.04871-0.21804 0.55879-0.92361
  -6  -3  -556831.16 1677.14   1-0.67305 0.16044 0.73932-0.90896 0.01985-0.38476
   6   3   6 1322.66  342.71   1 0.30451 0.20969-0.82136 0.97674 0.48232-0.04469
  -6  -3  -6 1920.14  341.57   1-0.87578 0.36121-0.00605-0.14935 0.48266-0.92044
  -6  -3  -6  915.21  428.45   1-0.67985 0.16530 0.73326-0.88900-0.01087-0.42700
   6   3   7 4350.66  498.27   1 0.28962 0.22652-0.83182 0.97329 0.47348 0.03707
  -6  -3  -7 4965.21  347.92   1-0.91301 0.39646-0.05916-0.08231 0.40361-0.91435
  -6  -3  -7 4656.84  480.55   1-0.68638 0.16988 0.72591-0.86777-0.04384-0.46702
   6   3   8 1949.20  481.92   1 0.28162 0.23645-0.83726 0.96483 0.46869 0.11480
  -6  -3  -8 2793.04  525.50   1-0.94013 0.42199-0.11023-0.01734 0.32248-0.90643
  -6  -3  -8 1768.87  386.41   1-0.69238 0.17393 0.71724-0.84521-0.07851-0.50532
   6   3   9 2810.75  564.69   1 0.27978 0.24022-0.83850 0.95216 0.46758 0.18885
  -6  -3  -9 3051.58  553.18   1-0.95743 0.43738-0.15855 0.04490 0.24121-0.89815
   6   3  10  497.37  368.02   1 0.28343 0.23850-0.83604 0.93580 0.46978 0.25959
  -6  -3 -10  -42.18  292.38   1-0.96576 0.44380-0.20410 0.10439 0.16009-0.89002
  -6  -4   926361.57 2337.36   1-0.08161-0.38528 0.44862-0.89282 0.88998-0.23328
   6   4  -8  197.28  142.27   1 0.69374-0.22492 0.61599-0.18615 0.37317-0.95642
  -6  -4   8  423.53  377.65   1-0.09484-0.37405 0.44494-0.87519 0.89052-0.30679
   6   4  -717610.26 1031.01   1 0.74520-0.27479 0.49417-0.07846 0.44772-0.95829
  -6  -4   720717.75  901.52   1-0.11756-0.35332 0.43841-0.85471 0.89105-0.38028
   6   4  -621859.82 1675.64   1 0.77870-0.30631 0.36061 0.04118 0.51340-0.95103
  -6  -4   625115.64  949.67   1-0.15011-0.32276 0.42859-0.83095 0.89093-0.45313
   6   4  -5 1855.13  273.18   1 0.79352-0.31901 0.21880 0.16915 0.56783-0.93253
  -6  -4   5 2561.32  407.88   1-0.19264-0.28222 0.41493-0.80334 0.88922-0.52439
   6   4  -4104636.8 3237.60   1 0.79017-0.31363 0.07257 0.30164 0.60856-0.90035
  -6  -4   4106250.9 3339.18   1-0.24494-0.23191 0.39681-0.77127 0.88461-0.59274
   6   4  -3 3828.92  300.57   1 0.76958-0.29111-0.07233 0.43263 0.63443-0.85327
  -6  -4   3 4185.93  536.44   1-0.30612-0.17272 0.37384-0.73429 0.87551-0.65649
   6   4  -297819.17 2039.05   1 0.73402-0.25334-0.20924 0.55553 0.64608-0.79195
  -6  -4   295852.92 2052.90   1-0.37494-0.10589 0.34518-0.69170 0.86038-0.71437
   6   4  -183838.30 1933.12   1 0.68783-0.20524-0.33253 0.66493 0.64521-0.71815
  -6  -4   179978.51 1924.52   1-0.44900-0.03381 0.31091-0.64351 0.83768-0.76468
   6   4   053123.04 1285.21   1 0.63560-0.15108-0.43930 0.75772 0.63484-0.63484
  -6  -4   057551.70 1445.18   1-0.52531 0.04046 0.27102-0.58971 0.80659-0.80659
   6   4   051188.57 1111.90   1 0.25239 0.23230 0.14397 0.17454 0.95685-0.95685
   6   4   053587.29 1167.33   1 0.68205-0.19716-0.50944 0.82816 0.52466-0.52466
   6   4   171052.93 1679.34   1 0.58208-0.09564-0.52831 0.83284 0.61811-0.54517
  -6  -4  -174729.03 1803.77   1-0.60110 0.11428 0.22690-0.53163 0.76628-0.83922
   6   4   165702.92 1447.76   1-0.08378 0.57047 0.47389-0.16929 0.87658-0.80367
   6   4   175066.03 1669.74   1 0.70971-0.22274-0.64920 0.95401 0.27358-0.20060
   6   4   251160.63 1280.25   1 0.53094-0.04258-0.60016 0.89080 0.59825-0.45238
  -6  -4  -253121.68 1372.83   1-0.67335 0.18454 0.17921-0.47000 0.71726-0.86315
   6   4   244916.48 1035.44   1-0.22849 0.71715 0.58732-0.29666 0.77642-0.63061
  -6  -4  -3253417.4 5087.41   1-0.73973 0.24906 0.12906-0.40595 0.66040-0.87930
   6   4   412172.60  684.58   1 0.44514 0.04723-0.69962 0.96249 0.55890-0.26715
  -6  -4  -412854.28  727.10   1-0.79831 0.30564 0.07794-0.34088 0.59717-0.88903
   6   4   545956.92 1602.70   1 0.41276 0.08155-0.73170 0.98069 0.54242-0.17773
   6   4   6 2991.40  343.95   1 0.38770 0.10854-0.75477 0.98986 0.52915-0.09151
  -6  -4  -6 3944.33  348.85   1-0.88896 0.39233-0.02343-0.21164 0.45737-0.89514
   6   4   783626.97 2650.46   1 0.36967 0.12850-0.77046 0.99167 0.51934-0.00877
  -6  -4  -776491.52 2414.63   1-0.92072 0.42210-0.07216-0.14897 0.38348-0.89422
   6   4   8 5184.66  561.35   1 0.35823 0.14187-0.78005 0.98737 0.51300 0.07050
  -6  -4  -8 5555.06  508.44   1-0.94394 0.44375-0.11914-0.08813 0.30785-0.89180
   6   4   9 1900.07  443.58   1 0.35284 0.14919-0.78447 0.97790 0.50999 0.14645
  -6  -4  -9 1606.86  328.76   1-0.95878 0.45668-0.16374-0.02959 0.23219-0.88913
   6   4  1029314.31 1706.98   1 0.35298 0.15099-0.78436 0.96389 0.51007 0.21931
  -6  -4 -1027797.96 1594.82   1-0.96593 0.46191-0.20601 0.02661 0.15659-0.88652
   6   5  -8  227.01  103.20   1 0.69918-0.24831 0.60515-0.09571 0.38069-0.96393
  -6  -5   8  236.64  226.29   1-0.20586-0.24507 0.41049-0.92041 0.88832-0.30459
   6   5  -7  103.79  175.42   1 0.74414-0.29170 0.49739-0.00210 0.44593-0.95650
  -6  -5   7  680.25  266.59   1-0.22763-0.22529 0.40297-0.89894 0.88644-0.37568
   6   5  -6 3408.96  646.45   1 0.77483-0.32042 0.38116 0.10020 0.50432-0.94195
  -6  -5   6 3940.59  606.49   1-0.25867-0.19626 0.39197-0.87385 0.88285-0.44481
   6   5  -5  630.00  224.41   1 0.79111-0.33457 0.25873 0.20882 0.55424-0.91894
  -6  -5   5   65.24  245.61   1-0.29915-0.15777 0.37659-0.84454 0.87674-0.51171
   6   5  -433792.89 1881.83   1 0.79391-0.33535 0.13166 0.32198 0.59360-0.88536
  -6  -5   436674.50 1293.44   1-0.34819-0.11071 0.35666-0.81070 0.86691-0.57488
   6   5  -3 6607.30  464.26   1 0.78279-0.32228 0.00553 0.43439 0.62225-0.84109
  -6  -5   3 6796.09  524.97   1-0.40461-0.05627 0.33189-0.77201 0.85213-0.63311
   6   5  -221693.81 1093.04   1 0.75979-0.29735-0.11677 0.54276 0.63958-0.78548
  -6  -5   221559.27 1125.39   1-0.46669 0.00381 0.30216-0.72835 0.83119-0.68518
   6   5  -1139415.6 2114.27   1 0.72693-0.26225-0.23085 0.64287 0.64673-0.71967
  -6  -5   1142243.7 2189.66   1-0.53204 0.06715 0.26731-0.67963 0.80341-0.73046
   6   5   0 1185.13  235.66   1 0.68751-0.22091-0.33327 0.73139 0.64517-0.64517
  -6  -5   0 1540.09  408.70   1-0.59841 0.13154 0.22856-0.62692 0.76789-0.76789
   6   5   1363224.616235.49   1 0.64463-0.17610-0.42248 0.80662 0.63714-0.56421
  -6  -5  -1360450.016122.34   1-0.66321 0.19435 0.18629-0.57071 0.72487-0.79781
   6   5   1328095.5 6358.49   1-0.18221 0.65098 0.55302-0.16878 0.81299-0.74008
   6   5   1351764.815668.60   1 0.64592-0.17724-0.42334 0.80767 0.63526-0.56235
   6   5   2 5883.48  451.08   1 0.60157-0.13113-0.49777 0.86802 0.62475-0.47889
  -6  -5  -2 5482.75  552.77   1-0.72427 0.25355 0.14137-0.51187 0.67486-0.82079
   6   5   2 4168.09  256.26   1-0.32089 0.79175 0.64961-0.27915 0.68922-0.54331
   6   5   2 4651.01  324.83   1 0.69548-0.22455-0.55192 0.92243 0.46008-0.31413
   6   5   338841.60  829.86   1 0.56078-0.08842-0.55958 0.91594 0.61023-0.39143
  -6  -5  -338389.47  851.72   1-0.77973 0.30700 0.09501-0.45158 0.61885-0.83774
   6   5   340413.10  763.53   1 0.70629-0.23327-0.60418 0.96077 0.36892-0.14999
   6   5   4203002.6 6216.54   1 0.52407-0.04979-0.60902 0.95149 0.59535-0.30361
  -6  -5  -4194451.5 5963.59   1-0.82846 0.35373 0.04809-0.39071 0.55797-0.84983
   6   5   4201283.0 6125.24   1 0.70911-0.23408-0.62922 0.97186 0.31817-0.02626
   6   5   582341.15 1641.73   1 0.49254-0.01612-0.64748 0.97607 0.58151-0.21682
  -6  -5  -577363.01 1548.86   1-0.86980 0.39308 0.00143-0.33010 0.49339-0.85820
   6   5   577841.98 1496.86   1 0.70966-0.23264-0.64115 0.96983 0.29205 0.07283
   6   5   639373.07 1463.71   1 0.46690 0.01144-0.67649 0.99119 0.56952-0.13189
  -6  -5  -640083.09 1460.75   1-0.90355 0.42484-0.04436-0.27037 0.42617-0.86394
   6   5   641523.66 1444.48   1 0.70972-0.23070-0.64569 0.96041 0.28172 0.15613
   6   5   716273.40  828.34   1 0.44726 0.03301-0.69742 0.99823 0.55995-0.04938
  -6  -5  -716157.82  733.00   1-0.92978 0.44908-0.08881-0.21199 0.35723-0.86797
   6   5   719597.63  788.13   1 0.70972-0.22870-0.64549 0.94625 0.28218 0.22865
   6   5   859242.33 2112.88   1 0.43354 0.04867-0.71142 0.99835 0.55309 0.03041
  -6  -5  -857007.33 2084.06   1-0.94888 0.46663-0.13180-0.15515 0.28678-0.87073
   6   5   860296.14 2153.91   1 0.70968-0.22666-0.64190 0.92871 0.29036 0.29345
   6   5   9 3943.73  606.91   1 0.42546 0.05868-0.71944 0.99247 0.54898 0.10746
  -6  -5  -9 4263.27  616.32   1-0.96090 0.47674-0.17278-0.10024 0.21637-0.87330
   6   5   9 3815.27  490.98   1 0.70948-0.22446-0.63563 0.90849 0.30430 0.35249
   6   5  1022121.25 1326.73   1 0.42270 0.06337-0.72214 0.98128 0.54756 0.18181
  -6  -5 -1019095.07 1158.97   1-0.96635 0.48028-0.21181-0.04728 0.14590-0.87583
   6   5  1021326.88 1281.37   1 0.70895-0.22194-0.62710 0.88600 0.32267 0.40710
   6   6  -7 1828.91  364.71   1 0.74012-0.30566 0.50915 0.06570 0.43929-0.94987
  -6  -6   7 1770.82  306.68   1-0.35092-0.08408 0.35551-0.93098 0.86629-0.35524
   6   6  -6 2547.52  384.71   1 0.76942-0.33298 0.40662 0.15432 0.49258-0.93021
  -6  -6   6 3199.09  407.52   1-0.37879-0.05819 0.34348-0.90503 0.85937-0.42133
   6   6  -5  510.42  169.11   1 0.78716-0.34858 0.29933 0.24782 0.53922-0.90392
  -6  -6   5 1464.88  456.00   1-0.41495-0.02402 0.32713-0.87475 0.84899-0.48396
   6   6  -4 3356.35  337.84   1 0.79441-0.35382 0.18805 0.34518 0.57752-0.86928
  -6  -6   4 2646.60  305.73   1-0.45837 0.01741 0.30631-0.84001 0.83430-0.54227
   6   6  -3  903.89  170.98   1 0.79052-0.34795 0.07689 0.44265 0.60758-0.82642
  -6  -6   3 1419.94  287.75   1-0.50755 0.06459 0.28062-0.80052 0.81464-0.59580
   6   6  -2 3300.50  373.29   1 0.77698-0.33248-0.03240 0.53803 0.62868-0.77458
  -6  -6   2 3293.56  343.85   1-0.56080 0.11586 0.25103-0.75697 0.78897-0.64308
   6   6  -139792.31 1347.68   1 0.75495-0.30853-0.13636 0.62805 0.64144-0.71438
  -6  -6   141258.44 1436.45   1-0.61609 0.16917 0.21750-0.70949 0.75704-0.68410
   6   6   017909.70  946.13   1 0.72634-0.27765-0.23259 0.71034 0.64677-0.64677
  -6  -6   013934.33  769.38   1-0.67134 0.22244 0.18063-0.65867 0.71879-0.71879
   6   6   128046.61  685.69   1 0.69365-0.24304-0.31888 0.78272 0.64587-0.57294
  -6  -6  -127329.83  680.40   1-0.72465 0.27386 0.14108-0.60519 0.67451-0.74748
   6   6   122815.82  372.72   1-0.29904 0.75004 0.63567-0.17166 0.71167-0.63871
   6   6   125066.27  412.01   1 0.48539-0.03458-0.15033 0.61417 0.86127-0.78840
  -6  -6  -274803.62 2393.19   1-0.77433 0.32154 0.09982-0.54999 0.62485-0.77078
   6   6   275205.73 2300.61   1 0.62054-0.16784-0.37156 0.82163 0.69054-0.54473
   6   6   3  622.15  415.97   1 0.62479-0.17035-0.45865 0.89462 0.63187-0.41307
  -6  -6  -3  797.59  266.65   1-0.81918 0.36439 0.05759-0.49383 0.57062-0.78952
   6   6   3  455.95  121.18   1 0.66878-0.21381-0.47443 0.91068 0.57239-0.35347
   6   6   440206.50 1004.98   1 0.59265-0.13629-0.51199 0.93407 0.62178-0.33005
  -6  -6  -437340.00  964.31   1-0.85839 0.40158 0.01513-0.43739 0.51276-0.80461
   6   6   439519.42  820.66   1 0.68857-0.23160-0.52880 0.95111 0.49621-0.20432
   6   6   5 2064.58  383.94   1 0.56391-0.10563-0.55511 0.96330 0.61142-0.24675
  -6  -6  -5 1336.99  329.57   1-0.89156 0.43277-0.02702-0.38131 0.45207-0.81688
   6   6   5 2275.97  287.11   1 0.69744-0.23848-0.55920 0.96756 0.44816-0.08329
   6   6   679845.85 2572.58   1 0.53945-0.07925-0.58894 0.98324 0.60177-0.16417
  -6  -6  -670041.96 2235.75   1-0.91853 0.45776-0.06838-0.32601 0.38937-0.82714
   6   6   675032.47 2347.26   1 0.70155-0.24059-0.57603 0.97045 0.41953 0.01830
   6   6   7 8451.11  757.07   1 0.51977-0.05765-0.61447 0.99488 0.59351-0.08297
  -6  -6  -7 6325.45  523.12   1-0.93949 0.47711-0.10881-0.27177 0.32481-0.83576
   6   6   7 7886.01  575.67   1 0.70334-0.24039-0.58438 0.96485 0.40471 0.10609
   6   6   8 8104.36  822.19   1 0.50501-0.04070-0.63263 0.99916 0.58713-0.00362
   6   6   8 9960.12  982.76   1 0.70386-0.23892-0.58697 0.95349 0.40005 0.18373
   6   6   916574.59  803.26   1 0.49532-0.02907-0.64421 0.99685 0.58278 0.07366
  -6  -6  -914722.45  747.97   1-0.96328 0.49707-0.18513-0.16758 0.19443-0.85137
   6   6   917000.79  815.62   1 0.70353-0.23660-0.58531 0.93789 0.40304 0.25371
   6   7  -611715.12 1326.06   1 0.76246-0.34400 0.43536 0.20516 0.47864-0.91628
   6   7  -5 2143.55  433.24   1 0.78219-0.36175 0.33964 0.28696 0.52231-0.88700
  -6  -7   5 1715.69  322.31   1-0.53662 0.11560 0.26477-0.89225 0.80120-0.43648
   6   7  -4 4291.14  477.85   1 0.79231-0.36968 0.24186 0.37097 0.56012-0.85188
  -6  -7   4 5232.76  466.91   1-0.57172 0.14872 0.24464-0.85817 0.78311-0.49134
   6   7  -3 1068.10  280.67   1 0.79422-0.36959 0.14266 0.45626 0.59064-0.80945
  -6  -7   3 1459.81  341.25   1-0.61145 0.18647 0.22043-0.82001 0.75995-0.54111
   6   7  -2 3863.47  301.50   1 0.78762-0.36108 0.04538 0.53986 0.61447-0.76036
  -6  -7   2 3106.20  296.33   1-0.65414 0.22717 0.19251-0.77813 0.73146-0.58557
   6   7  -136331.98 1306.05   1 0.77407-0.34560-0.04895 0.62027 0.63119-0.70414
  -6  -7   138637.19 1352.70   1-0.69803 0.26920 0.16133-0.73300 0.69765-0.62468
   6   7   010343.95  627.84   1 0.75458-0.32418-0.13779 0.69519 0.64156-0.64156
  -6  -7   010742.81  614.55   1-0.74156 0.31073 0.12757-0.68530 0.65863-0.65863
  -6  -7  -160483.03 1235.66   1-0.78323 0.35039 0.09187-0.63566 0.61489-0.68786
   6   7   153775.79  902.28   1 0.31635 0.11655 0.07020 0.47322 0.94603-0.87319
   6   7   2  241.58  289.14   1 0.70423-0.26962-0.29288 0.82245 0.64673-0.50086
  -6  -7  -2  307.58  246.88   1-0.82187 0.38702 0.05487-0.58472 0.56702-0.71295
   6   7   2  372.57  124.29   1 0.50996-0.07512-0.18646 0.71602 0.83974-0.69401
   6   7   3 4174.56  510.39   1 0.67689-0.24036-0.35709 0.87276 0.64365-0.42485
  -6  -7  -3 4606.67  520.68   1-0.85657 0.41968 0.01724-0.53310 0.51572-0.73461
   6   7   3 4577.99  331.30   1 0.59642-0.15970-0.32670 0.84251 0.73316-0.51445
   6   7   416001.64 1036.70   1 0.65004-0.21159-0.41211 0.91379 0.63843-0.34670
  -6  -7  -415743.11 1014.37   1-0.88687 0.44799-0.02058-0.48133 0.46155-0.75339
   6   7   416361.57  924.55   1 0.63944-0.20078-0.40956 0.91146 0.65066-0.35904
   6   7   5 1420.65  465.34   1 0.62521-0.18485-0.45791 0.94571 0.63199-0.26732
  -6  -7  -5  679.99  284.77   1-0.91238 0.47151-0.05814-0.42984 0.40518-0.76999
   6   7   5  215.12  220.61   1 0.66308-0.22207-0.46063 0.94867 0.59002-0.22515
   6   7   6  420.55  474.23   1 0.60326-0.16097-0.49503 0.96894 0.62530-0.18770
  -6  -7  -6  815.39  441.79   1-0.93311 0.49059-0.09527-0.37894 0.34671-0.78467
   6   7   6  476.53  251.38   1 0.67570-0.23269-0.49209 0.96618 0.54887-0.11103
   6   7   734316.55 1330.20   1 0.58486-0.14066-0.52407 0.98408 0.61909-0.10855
  -6  -7  -729877.39 1520.11   1-0.94872 0.50428-0.13138-0.32889 0.28749-0.79844
   6   7   729629.96 1156.69   1 0.68264-0.23764-0.51113 0.97128 0.52224-0.01142
   6   7   8 1459.45  459.88   1 0.57045-0.12432-0.54564 0.99177 0.61388-0.03041
  -6  -7  -8  860.20  338.46   1-0.95945 0.51309-0.16645-0.27988 0.22746-0.81141
   6   7   8 1842.92  436.96   1 0.68625-0.23925-0.52169 0.96790 0.50684 0.07694
   6   7   932918.63 1861.16   1 0.56023-0.11218-0.56036 0.99260 0.61002 0.04638
  -6  -7  -930112.97 1708.26   1-0.96539 0.51712-0.20037-0.23203 0.16691-0.82385
   6   7   934268.40 1890.64   1 0.68770-0.23872-0.52612 0.95839 0.50024 0.15651
   6   8  -5 5820.92  733.90   1 0.77490-0.37243 0.38084 0.32534 0.50446-0.86916
   6   8  -416683.68 2043.76   1 0.78781-0.38315 0.29364 0.39879 0.54140-0.83316
  -6  -8   420382.67 1251.70   1-0.68377 0.27889 0.17173-0.86489 0.70919-0.41733
   6   8  -315719.27 1728.88   1 0.79402-0.38735 0.20506 0.47346 0.57224-0.79106
  -6  -8   317226.86  920.39   1-0.71207 0.30518 0.15079-0.83002 0.68572-0.46682
   6   8  -2 1085.69  280.44   1 0.79335-0.38467 0.11724 0.54736 0.59736-0.74324
  -6  -8   2  325.87  332.87   1-0.74290 0.33402 0.12648-0.79176 0.65733-0.51140
   6   8  -151507.59 1658.97   1 0.78619-0.37567 0.03235 0.61859 0.61713-0.69007
  -6  -8   148037.98 1517.39   1-0.77484 0.36395 0.09937-0.75071 0.62429-0.55132
   6   8   0 1445.41  267.32   1 0.77404-0.36159-0.04913 0.68615 0.63122-0.63122
  -6  -8   0 1494.44  224.50   1-0.80657 0.39368 0.07004-0.70745 0.58696-0.58696
   6   8   118364.19  629.45   1 0.75773-0.34335-0.12528 0.74838 0.64042-0.56747
  -6  -8  -118503.78  595.99   1-0.83692 0.42193 0.03916-0.66254 0.54591-0.61887
   6   8   2 6451.63  472.04   1 0.73844-0.32174-0.19508 0.80428 0.64547-0.49960
  -6  -8  -2 6489.42  489.13   1-0.86519 0.44821 0.00705-0.61651 0.50139-0.64731
   6   8   2 6469.13  221.58   1 0.39204 0.02490-0.02361 0.63274 0.91964-0.77395
   6   8   313428.30  978.61   1 0.71763-0.29902-0.25744 0.85273 0.64708-0.42827
  -6  -8  -311985.17  881.51   1-0.89060 0.47164-0.02568-0.56983 0.45404-0.67293
   6   8   311164.89  733.71   1 0.50606-0.08718-0.18062 0.77591 0.84337-0.62478
   6   8   425968.50 1004.90   1 0.69650-0.27596-0.31204 0.89343 0.64615-0.35441
  -6  -8  -421210.36 1241.22   1-0.91270 0.49175-0.05867-0.52291 0.40437-0.69622
   6   8   423876.95 1291.11   1 0.57129-0.15046-0.28358 0.86496 0.77019-0.47874
   6   8   5 5393.90  573.83   1 0.67615-0.25370-0.35871 0.92621 0.64353-0.27886
  -6  -8  -5 4127.03  690.58   1-0.93119 0.50825-0.09157-0.47608 0.35283-0.71764
   6   8   5 4912.65  681.72   1 0.61022-0.18754-0.35194 0.91958 0.70975-0.34523
   6   8   616969.06  962.75   1 0.65753-0.23316-0.39754 0.95113 0.64000-0.20239
  -6  -8  -616130.62  971.29   1-0.94602 0.52144-0.12431-0.42959 0.29929-0.73725
   6   8   614927.17  808.53   1 0.63368-0.20906-0.39766 0.95140 0.66355-0.22611
   6   8   7 1470.80  490.60   1 0.64123-0.21494-0.42887 0.96849 0.63630-0.12576
  -6  -8  -7 1487.43  493.13   1-0.95681 0.53032-0.15632-0.38364 0.24507-0.75602
   6   8   7  538.24  369.76   1 0.64804-0.22148-0.42796 0.96779 0.62998-0.11964
   6   8   8  806.68  315.60   1 0.62808-0.19987-0.45284 0.97857 0.63280-0.04932
  -6  -8  -8 1002.96  358.20   1-0.96369 0.53528-0.18762-0.33840 0.18997-0.77391
   6   8   8  761.81  296.87   1 0.65671-0.22820-0.44739 0.97332 0.60709-0.02384
   6   9  -4 1484.39  360.35   1 0.78161-0.39514 0.34330 0.42853 0.52077-0.81253
   6   9  -315454.58 1826.61   1 0.79066-0.40196 0.26430 0.49382 0.55225-0.77107
   6   9  -230205.20 2568.63   1 0.79445-0.40374 0.18525 0.55896 0.57838-0.72425
  -6  -9   231136.11 1240.43   1-0.82331 0.43236 0.05340-0.79836 0.56506-0.41913
   6   9  -1 3956.84  600.26   1 0.79289-0.40017 0.10790 0.62239 0.59973-0.67266
  -6  -9   1 3486.80  371.59   1-0.84326 0.45017 0.03227-0.76318 0.53652-0.46356
  -6  -9   023734.25  990.17   1-0.86385 0.46877 0.00866-0.72564 0.50367-0.50367
   6   9   115922.00  728.69   1 0.77631-0.37989-0.03630 0.73902 0.62929-0.55634
  -6  -9  -115838.10  722.13   1-0.88396 0.48690-0.01668-0.68635 0.46725-0.54021
   6   9   234901.97 1347.21   1 0.76333-0.36497-0.10155 0.79034 0.63797-0.49207
  -6  -9  -229306.85 1126.12   1-0.90285 0.50380-0.04331-0.64580 0.42776-0.57368
   6   9   3 1180.21  420.76   1 0.74842-0.34814-0.16092 0.83579 0.64339-0.42455
  -6  -9  -3  -28.77  239.04   1-0.91993 0.51889-0.07078-0.60439 0.38563-0.60452
   6   9   463049.75 3039.65   1 0.73253-0.32990-0.21389 0.87491 0.64625-0.35451
  -6  -9  -457301.32 2744.18   1-0.93490 0.53210-0.09893-0.56252 0.34082-0.63279
   6   9   456106.60 2604.72   1 0.49180-0.08889-0.15962 0.82063 0.85594-0.56450
   6   9   5 2518.42  509.11   1 0.71673-0.31219-0.25994 0.90707 0.64708-0.28241
  -6  -9  -5 1487.23  359.71   1-0.94713 0.54241-0.12714-0.52038 0.29457-0.65954
   6   9   5 2596.42  414.18   1 0.54491-0.14005-0.24041 0.88751 0.80328-0.43897
   6   9   6 9640.69  659.18   1 0.70179-0.29533-0.29903 0.93225 0.64657-0.20897
  -6  -9  -6 8068.36  658.21   1-0.95654 0.54990-0.15533-0.47826 0.24678-0.68474
   6   9   6 9170.64  435.35   1 0.57991-0.17321-0.29776 0.93114 0.75830-0.32087
   6   9   717237.37 1124.08   1 0.68843-0.28005-0.33115 0.95047 0.64529-0.13474
  -6  -9  -715391.22 1691.40   1-0.96296 0.55441-0.18330-0.43635 0.19771-0.70866
   6   9   716418.73 1000.96   1 0.60280-0.19416-0.33824 0.95772 0.72264-0.21230
   6  10  -215174.02 2266.51   1 0.79179-0.41904 0.24960 0.57421 0.55745-0.70333
   6  10  -1 1696.84  362.02   1 0.79451-0.41975 0.17954 0.63035 0.58009-0.65303
  -6 -10   1  769.09  219.23   1-0.90039 0.52523-0.03965-0.77091 0.43326-0.36029
   6  10   0 6737.99 1373.36   1 0.79309-0.41632 0.11177 0.68421 0.59876-0.59876
  -6 -10   0 8009.04  503.55   1-0.91118 0.53403-0.05622-0.74042 0.40814-0.40814
   6  10   1 1769.53  362.39   1 0.78787-0.40939 0.04772 0.73462 0.61398-0.54103
  -6 -10  -1 1349.36  254.70   1-0.92239 0.54325-0.07510-0.70760 0.37888-0.45184
  -6 -10  -2 7791.58  613.20   1-0.93342 0.55239-0.09590-0.67312 0.34570-0.49169
   6  10   3 2673.49  419.58   1 0.77037-0.38804-0.06839 0.82288 0.63391-0.41507
  -6 -10  -3 2797.02  399.81   1-0.94340 0.56046-0.11785-0.63724 0.30999-0.52896
   6  10   410529.17  779.27   1 0.75935-0.37509-0.11862 0.85919 0.63977-0.34798
  -6 -10  -410515.37  680.71   1-0.95201 0.56715-0.14071-0.60043 0.27177-0.56374
   6  10   515758.06 1054.71   1 0.74784-0.36166-0.16301 0.88964 0.64354-0.27881
  -6 -10  -516968.63 1082.36   1-0.95889 0.57212-0.16419-0.56302 0.23142-0.59638
   6  10   6 1589.28  496.28   1 0.73654-0.34799-0.20124 0.91409 0.64576-0.20815
  -6 -10  -6 1656.98  478.84   1-0.96375 0.57506-0.18802-0.52525 0.18925-0.62721
   6  10   6 1744.50  291.08   1 0.51656-0.12766-0.19640 0.90922 0.83341-0.39624
  -7   6   4 1925.04  597.83   1 0.06189-0.81108 0.48285-0.06065 0.87350-0.58177
  -7   6   4 1201.50  636.50   1 0.02349-0.77235 0.37869 0.04324 0.92522-0.63371
  -7   6   3 5258.99  456.83   1-0.00476-0.74644 0.46826-0.03208 0.88357-0.66467
  -7   6   3 5972.62  606.83   1-0.02461-0.72618 0.42256 0.01333 0.90599-0.68736
  -7   6   2 1545.76  267.08   1-0.08525-0.66793 0.44762 0.00250 0.89014-0.74421
  -7   6   2  665.57  322.57   1-0.07526-0.67741 0.46667-0.01673 0.88122-0.73540
   7  -6  -1 1994.66  263.50   1-0.04792 0.80278-0.96850 0.50486 0.24433-0.31726
  -7   6   1 3331.53  346.21   1-0.18022-0.57495 0.41902 0.04504 0.88990-0.81694
  -7   6   1 2976.86  383.67   1-0.12765-0.62700 0.51017-0.04629 0.85054-0.77763
   7  -6   0 8872.51  523.75   1-0.08458 0.84150-0.97264 0.49503 0.21636-0.21636
  -7   6   0 9566.89  534.35   1-0.28926-0.46785 0.38043 0.09759 0.87840-0.87840
   7  -6   1 1830.04  574.88   1-0.10789 0.86677-0.97420 0.48270 0.19819-0.12526
  -7   6  -1 1391.83  477.69   1-0.23340-0.52519 0.59084-0.09909 0.77228-0.84519
  -7   5   6 6375.43  828.63   1 0.16464-0.89190 0.50098-0.18631 0.84964-0.41204
  -7   5   6 6764.52  845.69   1 0.12921-0.85624 0.27587 0.03862 0.95246-0.51512
  -7   5   558100.93 1700.15   1 0.12321-0.85246 0.49433-0.16572 0.86049-0.49583
  -7   5   559034.97 1684.11   1 0.08594-0.81494 0.31900 0.00934 0.94384-0.57946
  -7   5   414268.65  951.43   1 0.07082-0.80205 0.48464-0.14210 0.87183-0.58010
  -7   5   413913.35  940.03   1 0.03815-0.76909 0.36496-0.02266 0.93023-0.63872
  -7   5   352499.07 2014.97   1 0.00626-0.73946 0.47080-0.11432 0.88221-0.66341
  -7   5   350671.74 1934.31   1-0.01340-0.71948 0.41250-0.05623 0.91085-0.69222
   7  -5  -2 1498.02  280.68   1 0.06534 0.66962-0.94265 0.57246 0.32729-0.47316
  -7   5   2  751.99  273.66   1-0.07144-0.66378 0.45139-0.08094 0.88945-0.74352
  -7   5   2  648.09  322.21   1-0.06767-0.66716 0.46024-0.09001 0.88520-0.73945
   7  -5  -142274.09 2000.05   1-0.00051 0.73744-0.96007 0.57601 0.27975-0.35268
  -7   5   143414.55 2091.66   1-0.16290-0.57432 0.42458-0.04018 0.89060-0.81764
  -7   5   146215.42 2234.03   1-0.12344-0.61329 0.50676-0.12252 0.85320-0.78029
   7  -5   031774.39 1250.98   1-0.04476 0.78363-0.96805 0.57012 0.24672-0.24672
  -7   5   032013.31 1249.19   1-0.26742-0.47173 0.38873 0.00962 0.88168-0.88168
  -7   5   033164.14 1358.42   1-0.17963-0.55907 0.55106-0.15288 0.81490-0.81490
   7  -5   1 4872.15  730.27   1-0.07370 0.81464-0.97162 0.55972 0.22476-0.15183
  -7   5  -1 2936.04  463.69   1-0.38343-0.35770 0.34143 0.07084 0.85813-0.93114
  -7   5  -1 3602.37  573.36   1-0.23505-0.50562 0.59202-0.17990 0.77088-0.84378
   7  -5   218050.09  733.26   1-0.09141 0.83432-0.97318 0.54740 0.21106-0.06520
  -7   5  -216893.71  577.17   1-0.50705-0.23627 0.28088 0.14538 0.81485-0.96074
  -7   5  -220435.33  833.52   1-0.28886-0.45387 0.62900-0.20291 0.72174-0.86765
   7  -5   3 3517.28  491.61   1-0.10041 0.84527-0.97379 0.53412 0.20405 0.01473
  -7   5  -3 2680.66  408.34   1-0.34013-0.40454 0.66144-0.22144 0.66843-0.88730
   7  -5   4 6698.25  740.51   1-0.10244 0.84926-0.97391 0.52036 0.20246 0.08925
  -7   5  -4 6902.10  833.80   1-0.38844-0.35819 0.68915-0.23524 0.61169-0.90352
  -7   4   728175.24 1670.04   1 0.19265-0.89997 0.50497-0.28389 0.84135-0.33082
  -7   4   726806.85 1511.14   1 0.18678-0.89394 0.21592 0.00500 0.95837-0.44815
  -7   4   6 7853.80  639.16   1 0.16194-0.87124 0.50058-0.26556 0.85040-0.41280
  -7   4   6 9764.86  546.30   1 0.14621-0.85532 0.25846-0.02359 0.95489-0.51755
  -7   4   542110.05 2072.42   1 0.12160-0.83288 0.49405-0.24510 0.86088-0.49621
  -7   4   540751.56 1996.83   1 0.09969-0.81078 0.30543-0.05671 0.94697-0.58259
  -7   4   437270.81 1393.40   1 0.07048-0.78374 0.48458-0.22169 0.87190-0.58016
  -7   4   435689.17 1313.08   1 0.04810-0.76113 0.35554-0.09287 0.93341-0.64190
  -7   4   370499.48 1899.34   1 0.00750-0.72274 0.47109-0.19427 0.88205-0.66325
  -7   4   368794.98 1833.92   1-0.00758-0.70738 0.40724-0.13060 0.91328-0.69465
  -7   4   2120052.4 3023.92   1-0.06814-0.64913 0.45228-0.16149 0.88926-0.74333
  -7   4   2121968.4 7216.19   1-0.06603-0.65087 0.45884-0.16824 0.88606-0.74030
   7  -4  -112841.10  740.45   1 0.06072 0.65825-0.94409 0.63962 0.32402-0.39696
  -7   4   112951.02  814.29   1-0.15682-0.56244 0.42650-0.12177 0.89078-0.81781
  -7   4   113419.65  852.46   1-0.12572-0.59309 0.50861-0.20401 0.85176-0.77885
   7  -4   0101810.6 2559.64   1 0.00761 0.71332-0.95828 0.63994 0.28572-0.28572
  -7   4   099337.20 2542.46   1-0.18533-0.53545 0.55540-0.23685 0.81066-0.81066
   7  -4   127574.96 1062.32   1-0.02835 0.75124-0.96544 0.63323 0.25907-0.18613
  -7   4  -126610.45 1021.08   1-0.36879-0.35439 0.34786-0.01525 0.86196-0.93497
  -7   4  -127276.08 1098.66   1-0.24347-0.47929 0.59799-0.26551 0.76362-0.83652
   7  -4   236389.51 1400.60   1-0.05155 0.77639-0.96901 0.62293 0.24157-0.09570
  -7   4  -237027.80 1352.26   1-0.48641-0.23894 0.29171 0.05489 0.82359-0.96948
  -7   4  -237067.26 1389.47   1-0.29923-0.42558 0.63579-0.28936 0.71149-0.85740
   7  -4   330083.74 1323.56   1-0.06492 0.79171-0.97069 0.61075 0.23137-0.01257
  -7   4  -328136.99 1098.52   1-0.60444-0.12289 0.22482 0.13572 0.76426-0.98309
   7  -4   4 4480.24  600.38   1-0.07050 0.79939-0.97128 0.59733 0.22721 0.06449
  -7   4  -4 3195.45  354.25   1-0.71634-0.01259 0.14752 0.22693 0.68196-0.97382
  -7   4  -4 3705.75  448.88   1-0.40051-0.32821 0.69559-0.32134 0.59643-0.88826
   7  -4   515316.19 1727.83   1-0.06975 0.80059-0.97120 0.58336 0.22779 0.13684
  -7   4  -511467.34 1939.22   1-0.44550-0.28495 0.71762-0.32945 0.53529-0.90014
  -7   3   8 5029.34  717.15   1 0.20233-0.88971 0.50626-0.37877 0.83830-0.25484
  -7   3   8 5122.78  646.64   1 0.23928-0.92658 0.15867-0.03131 0.95789-0.37477
  -7   3   7  198.28  254.67   1 0.20262-0.89186 0.19891-0.05762 0.95884-0.44861
  -7   3   6 3060.82  506.36   1 0.15071-0.84205 0.49884-0.34349 0.85348-0.41588
  -7   3   6 3051.63  367.63   1 0.15882-0.85001 0.24539-0.09015 0.95632-0.51898
  -7   3   5 5216.66  538.12   1 0.11106-0.80438 0.49221-0.32291 0.86336-0.49869
  -7   3   5 4444.59  414.89   1 0.10819-0.80136 0.29697-0.12788 0.94873-0.58434
  -7   3   454318.55 1583.21   1 0.06078-0.75608 0.48263-0.29940 0.87370-0.58197
  -7   3   452017.33 1432.38   1 0.05183-0.74695 0.35199-0.16894 0.93456-0.64305
   7  -3  -3 1202.79  145.08   1 0.34615 0.35069-0.78987 0.59272 0.50622-0.72504
  -7   3   3 1379.32  276.94   1-0.00102-0.69630 0.46914-0.27197 0.88312-0.66422
  -7   3   3 1927.07  317.92   1-0.00893-0.68812 0.40846-0.21145 0.91273-0.69409
   7  -3  -2101990.7 3053.40   1 0.22295 0.47583-0.87364 0.66263 0.43247-0.57835
  -7   3   2102007.7 3134.79   1-0.07513-0.62418 0.45039-0.23928 0.88966-0.74372
  -7   3   2104997.3 3209.54   1-0.07234-0.62665 0.46424-0.25327 0.88274-0.73699
   7  -3  -139391.15 1257.68   1 0.13537 0.56567-0.91680 0.69191 0.37569-0.44862
  -7   3   140369.37 1390.62   1-0.16150-0.53981 0.42503-0.19997 0.89065-0.81768
  -7   3   142444.46 1419.86   1-0.13644-0.56445 0.51724-0.29228 0.84488-0.77198
   7  -3   041279.58 1338.00   1 0.07269 0.63030-0.94030 0.70154 0.33247-0.33247
  -7   3   039826.47 1329.74   1-0.25907-0.44418 0.39183-0.15281 0.88280-0.88280
  -7   3   039037.10 1316.91   1-0.19960-0.50326 0.56614-0.32723 0.79977-0.79977
   7  -3   175252.50 2265.68   1 0.02879 0.67615-0.95314 0.70051 0.30115-0.22821
  -7   3  -174763.77 2225.32   1-0.36584-0.33939 0.34913-0.09620 0.86270-0.93571
  -7   3  -176161.58 2293.68   1-0.26035-0.44459 0.60976-0.35689 0.74860-0.82156
   7  -3   246090.19 1492.20   1-0.00089 0.70779-0.96015 0.69366 0.27947-0.13360
  -7   3  -242906.15 1345.37   1-0.47786-0.22935 0.29651-0.02966 0.82687-0.97288
  -7   3  -244908.78 1436.50   1-0.31749-0.38940 0.64748-0.38070 0.69279-0.83870
   7  -3   377149.64 2114.07   1-0.01957 0.72842-0.96387 0.68352 0.26563-0.04683
  -7   3  -375001.90 1921.09   1-0.58991-0.11945 0.23376 0.04711 0.77288-0.99172
  -7   3  -369786.28 1857.90   1-0.37048-0.33838 0.67919-0.39850 0.63359-0.85246
   7  -3   420709.03 1205.14   1-0.02951 0.74031-0.96563 0.67141 0.25820 0.03353
  -7   3  -421432.95 1075.43   1-0.69606-0.01493 0.16279 0.13198 0.69927-0.99113
  -7   3  -419612.05 2145.05   1-0.41905-0.29155 0.70499-0.41039 0.57216-0.86404
   7  -3   560531.86 2351.67   1-0.03236 0.74511-0.96611 0.65803 0.25606 0.10860
  -7   3  -560433.42 2209.91   1-0.79016 0.07716 0.08554 0.22317 0.60689-0.97171
  -7   3  -561939.82 2365.05   1-0.46313-0.24942 0.72539-0.41688 0.50922-0.87406
   7  -3   6 1881.45  423.06   1-0.02932 0.74402-0.96560 0.64365 0.25834 0.17925
  -7   3  -6 1888.50  344.21   1-0.50286-0.21164 0.74071-0.41830 0.44548-0.88330
  -7   2   8 1618.03  472.44   1 0.18155-0.85097 0.50344-0.45561 0.84473-0.26126
  -7   2   8 1110.38  237.38   1 0.25328-0.92266 0.14297-0.09524 0.95676-0.37365
  -7   2   7  993.66  578.82   1 0.16037-0.83176 0.50034-0.43857 0.85084-0.34031
  -7   2   7  604.05  316.18   1 0.21355-0.88487 0.18705-0.12538 0.95885-0.44862
  -7   2   6 6800.90  590.76   1 0.13061-0.80398 0.49558-0.41988 0.85868-0.42108
  -7   2   6 6584.56  520.91   1 0.16546-0.83873 0.23845-0.16284 0.95695-0.51961
  -7   2   5 7465.97  717.87   1 0.09131-0.76666 0.48860-0.39896 0.86771-0.50304
  -7   2   5 6080.50  498.51   1 0.10940-0.78466 0.29575-0.20630 0.94897-0.58458
  -7   2   412673.03  583.01   1 0.04152-0.71885 0.47862-0.37505 0.87703-0.58530
  -7   2   412800.17  380.46   1 0.04687-0.72407 0.35671-0.25330 0.93303-0.64152
   7  -2  -3 7283.95  455.68   1 0.44328 0.23567-0.70153 0.58399 0.55798-0.77679
  -7   2   3 7518.14  657.89   1-0.01950-0.65986 0.46472-0.34722 0.88524-0.66634
  -7   2   3 6248.25  473.39   1-0.02026-0.65887 0.41866-0.30129 0.90791-0.68927
   7  -2  -2 2034.03  232.50   1 0.31687 0.36403-0.81235 0.68095 0.48955-0.63543
  -7   2   2 2410.35  378.62   1-0.09230-0.58905 0.44565-0.31421 0.89043-0.74449
  -7   2   2 1441.46  228.08   1-0.08942-0.59158 0.47865-0.34726 0.87343-0.72762
   7  -2  -176559.96 1380.91   1 0.22062 0.46221-0.87496 0.72965 0.43100-0.50393
  -7   2   178338.06 1518.32   1-0.17660-0.50675 0.42020-0.27481 0.89007-0.81711
  -7   2   177596.98 1453.11   1-0.15846-0.52452 0.53468-0.38935 0.83005-0.75715
   7  -2   0  769.79  293.98   1 0.14907 0.53570-0.91104 0.75183 0.38440-0.38440
  -7   2   0  562.77  272.04   1-0.27111-0.41419 0.38735-0.22800 0.88116-0.88116
  -7   2   0 1130.16  274.46   1-0.22501-0.45994 0.58481-0.42553 0.77933-0.77933
   7  -2   160242.07 1965.28   1 0.09736 0.58965-0.93178 0.75875 0.34969-0.27676
  -7   2  -161421.59 2039.51   1-0.37362-0.31365 0.34575-0.17249 0.86072-0.93373
  -7   2  -159315.85 1947.28   1-0.28762-0.39942 0.62818-0.45497 0.72294-0.79590
   7  -2   221954.12  893.23   1 0.06057 0.62839-0.94414 0.75724 0.32391-0.17804
  -7   2  -219633.59 1145.34   1-0.48029-0.20912 0.29485-0.10760 0.82606-0.97195
  -7   2  -218942.37 1101.64   1-0.34524-0.34375 0.66450-0.47738 0.66275-0.80866
   7  -2   333315.56 1225.27   1 0.03586 0.65505-0.95127 0.75050 0.30625-0.08745
  -7   2  -334197.64 1143.52   1-0.58622-0.10517 0.23599-0.03478 0.77501-0.99384
  -7   2  -335491.38 1248.49   1-0.39757-0.29337 0.69404-0.49301 0.60019-0.81906
   7  -2   440710.89 1240.12   1 0.02084 0.67202-0.95515 0.74051 0.29538-0.00364
  -7   2  -441023.79 1177.56   1-0.68642-0.00663 0.16983 0.04527 0.70709-0.99895
  -7   2  -437580.49 1118.51   1-0.44468-0.24803 0.71724-0.50230 0.53647-0.82835
   7  -2   558350.16 2135.95   1 0.01370 0.68111-0.95687 0.72837 0.29017 0.07449
  -7   2  -560233.19 2081.98   1-0.77570 0.08063 0.09861 0.13042 0.62334-0.98817
  -7   2  -556465.79 2008.26   1-0.48675-0.20791 0.73489-0.50604 0.47222-0.83707
   7  -2   667990.96 2609.78   1 0.01309 0.68367-0.95701 0.71464 0.28973 0.14787
  -7   2  -665165.53 2376.61   1-0.85011 0.15317 0.02465 0.21825 0.52602-0.96379
  -7   2  -660233.26 2902.79   1-0.52415-0.17246 0.74749-0.50474 0.40805-0.84586
   7  -2   712284.00 1451.26   1 0.01801 0.68070-0.95584 0.69960 0.29332 0.21721
  -7   2  -711903.72 1297.68   1-0.90704 0.20811-0.04969 0.30653 0.41809-0.92882
  -7   2  -7 9595.58 1882.84   1-0.55729-0.14163 0.75564-0.49898 0.34412-0.85495
  -7   1   8 3080.71  593.97   1 0.15195-0.80339 0.49904-0.53086 0.85315-0.26968
  -7   1   742935.92 2131.27   1 0.13087-0.78430 0.49562-0.51351 0.85861-0.34808
  -7   1   740077.01 1904.55   1 0.21751-0.87092 0.18272-0.20068 0.95880-0.44857
  -7   1   6 3118.73  562.94   1 0.10117-0.75657 0.49042-0.49438 0.86558-0.42798
  -7   1   6 3295.38  495.96   1 0.16338-0.81874 0.24063-0.24465 0.95676-0.51942
  -7   1   514884.67  553.67   1 0.06196-0.71935 0.48287-0.47289 0.87349-0.50882
  -7   1   514211.56  440.44   1 0.09978-0.75711 0.30534-0.29552 0.94699-0.58261
   7  -1  -444071.42 1392.75   1 0.66450-0.00541-0.38339 0.35936 0.64144-0.93317
  -7   1   441829.85 1468.56   1 0.01244-0.67180 0.47222-0.44830 0.88139-0.58965
  -7   1   443612.95 1430.47   1 0.02890-0.68818 0.37365-0.34987 0.92711-0.63560
   7  -1  -3 3145.19  207.43   1 0.53151 0.12952-0.59941 0.56147 0.59849-0.81729
  -7   1   3 3694.77  352.65   1-0.04799-0.61342 0.45758-0.41975 0.88787-0.66897
  -7   1   3 3390.29  231.79   1-0.04637-0.61484 0.44179-0.40404 0.89591-0.67728
   7  -1  -259710.62 1870.61   1 0.41147 0.25151-0.73293 0.68110 0.54175-0.68763
  -7   1   258839.49 1964.58   1-0.11959-0.54381 0.43781-0.38604 0.89107-0.74514
  -7   1   256069.44 1788.37   1-0.12234-0.54074 0.50587-0.45411 0.85388-0.70807
   7  -1  -1   83.25  156.18   1 0.31256 0.35238-0.81552 0.74982 0.48704-0.55998
  -7   1   1  436.81  286.53   1-0.20182-0.46357 0.41186-0.34613 0.88861-0.81564
  -7   1   1  450.11  182.73   1-0.19613-0.46892 0.56355-0.49785 0.80245-0.72955
   7  -1   0 8283.68  564.44   1 0.23471 0.43216-0.86683 0.78723 0.43988-0.43988
  -7   1   0 7371.51  499.83   1-0.29319-0.37415 0.37891-0.29924 0.87775-0.87775
  -7   1   0 7566.12  487.56   1-0.26514-0.40202 0.61305-0.53340 0.74421-0.74421
   7  -1   1  889.81  330.83   1 0.17543 0.49337-0.89873 0.80522 0.40186-0.32892
  -7   1  -1  420.58  356.43   1-0.39130-0.27802 0.33792-0.24433 0.85597-0.92897
  -7   1  -1  187.12  188.96   1-0.32796-0.34116 0.65400-0.56044 0.68170-0.75465
   7  -1   219910.87  638.01   1 0.13193 0.53909-0.91825 0.81093 0.37336-0.22749
  -7   1  -219402.28  631.84   1-0.49236-0.17908 0.28862-0.18104 0.82114-0.96703
  -7   1  -219882.82  578.77   1-0.38417-0.28691 0.68682-0.57935 0.61699-0.76291
   7  -1   3 2212.82  310.26   1 0.10092 0.57205-0.93048 0.80929 0.35216-0.13335
  -7   1  -3 2896.92  319.41   1-0.59203-0.08139 0.23247-0.11093 0.77165-0.99048
  -7   1  -3 3069.97  412.45   1-0.43398-0.23888 0.71226-0.59088 0.55166-0.77057
   7  -1   467273.75 2187.75   1 0.08035 0.59458-0.93776 0.80271 0.33785-0.04611
  -7   1  -469441.08 2189.64   1-0.68593 0.01082 0.17018-0.03475 0.70747-0.99933
  -7   1  -462628.01 1997.10   1-0.47786-0.19696 0.73144-0.59616 0.48645-0.77832
   7  -1   5 3643.28  686.60   1 0.06839 0.60849-0.94169 0.79277 0.32944 0.03522
  -7   1  -5 3081.23  482.97   1-0.76975 0.09263 0.10384 0.04552 0.62983-0.99465
  -7   1  -5 3528.05  647.34   1-0.51640-0.16037 0.74515-0.59597 0.42198-0.78682
   7  -1   630721.26 1625.46   1 0.06361 0.61522-0.94320 0.78042 0.32606 0.11154
  -7   1  -631589.56 1551.51   1-0.84040 0.16138 0.03540 0.12783 0.54080-0.97857
  -7   1  -628307.87 2334.55   1-0.55023-0.12882 0.75420-0.59113 0.35836-0.79621
  -7   1  -722191.10  753.43   1-0.89591 0.21491-0.03315 0.21033 0.44297-0.95371
  -7   1  -721907.50 1682.23   1-0.57984-0.10114 0.75907-0.58210 0.29596-0.80679
   7  -1   8 2355.11  448.35   1 0.07140 0.61133-0.94072 0.75021 0.33156 0.25190
  -7   1  -8 4242.74  546.11   1-0.93556 0.25287-0.10031 0.29148 0.33860-0.92254
  -7   1  -8 3688.42  722.85   1-0.60571-0.07719 0.76031-0.56945 0.23457-0.81838
  -7   0   922895.18 2158.10   1 0.12608-0.75758 0.49481-0.62023 0.85980-0.20339
  -7   0   839411.67 1288.30   1 0.11288-0.74636 0.49253-0.60401 0.86294-0.27947
  -7   0   7 8364.92  823.03   1 0.09174-0.72720 0.48868-0.58622 0.86762-0.35709
  -7   0   698749.32 2581.90   1 0.06191-0.69935 0.48286-0.56647 0.87350-0.43590
  -7   0   689744.57 2217.84   1 0.14720-0.78464 0.25744-0.34109 0.95501-0.51767
   7   0  -518680.52  278.52   1 0.78245-0.14337 0.00309 0.06655 0.62269-0.98742
  -7   0   520080.76  897.66   1 0.02264-0.66206 0.47451-0.54419 0.87995-0.51528
  -7   0   519695.08 1259.04   1 0.07226-0.71168 0.33234-0.40215 0.94038-0.57599
   7   0  -434261.27  663.53   1 0.70823-0.06706-0.28263 0.33822 0.64693-0.93867
  -7   0   434421.68  970.38   1-0.02670-0.61476 0.46295-0.51874 0.88597-0.59411
  -7   0   432878.46  682.10   1-0.01049-0.63086 0.40987-0.46572 0.91207-0.62056
   7   0  -346374.39 1458.40   1 0.60495 0.03817-0.49228 0.53395 0.62584-0.84465
  -7   0   345389.50 1593.81   1-0.08656-0.55689 0.44725-0.48909 0.89020-0.67130
  -7   0   344015.91 1399.76   1-0.09585-0.54734 0.48403-0.52585 0.86978-0.65106
   7   0  -2 7792.97  450.72   1 0.49937 0.14571-0.63941 0.66719 0.58461-0.73049
  -7   0   2 7697.39  427.00   1-0.17922-0.46594 0.55075-0.57863 0.81519-0.66938
   7   0  -194720.38 1459.49   1 0.40429 0.24272-0.73966 0.75355 0.53799-0.61092
  -7   0   194751.08 1598.73   1-0.23679-0.41064 0.39973-0.41367 0.88551-0.81255
  -7   0   193861.90 1435.87   1-0.25615-0.39115 0.60685-0.62076 0.75240-0.67944
   7   0   015788.01  803.07   1 0.32449 0.32449-0.80665 0.80665 0.49397-0.49397
  -7   0   017868.94  988.44   1-0.32469-0.32469 0.36639-0.36639 0.87196-0.87196
  -7   0   015646.26  791.93   1-0.32463-0.32463 0.65194-0.65194 0.68526-0.68526
   7   0   183414.07 2616.45   1 0.26044 0.39048-0.85111 0.83720 0.45582-0.38288
  -7   0  -179733.08 2546.62   1-0.41801-0.23335 0.32570-0.31178 0.84804-0.92104
  -7   0  -181037.99 2530.52   1-0.38428-0.26693 0.68688-0.67297 0.61686-0.68982
   7   0   2 1391.90  254.16   1 0.21089 0.44196-0.88037 0.85256 0.42481-0.27893
  -7   0  -2 1919.35  294.97   1-0.51308-0.14039 0.27766-0.24975 0.81218-0.95807
  -7   0  -2 2229.52  322.12   1-0.43577-0.21725 0.71310-0.68529 0.54916-0.69510
   7   0   387260.23 1656.13   1 0.17400 0.48078-0.89943 0.85771 0.40092-0.18211
  -7   0  -384879.21 1612.60   1-0.60612-0.04933 0.22378-0.18192 0.76324-0.98207
  -7   0  -383481.65 1560.69   1-0.48013-0.17484 0.73234-0.69062 0.48285-0.70175
   7   0   4 8114.38  601.35   1 0.14789 0.50883-0.91157 0.85594 0.38361-0.09186
  -7   0  -410561.20  692.88   1-0.69333 0.03615 0.16480-0.10904 0.70151-0.99337
  -7   0  -4 8926.38  904.05   1-0.51841-0.13851 0.74577-0.69015 0.41840-0.71027
   7   0   5 5607.96  562.46   1 0.13107 0.52787-0.91861 0.84928 0.37278-0.00810
  -7   0  -5 5498.42  516.62   1-0.77113 0.11195 0.10263-0.03294 0.62834-0.99316
  -7   0  -5 5571.52  627.31   1-0.55158-0.10758 0.75449-0.68501 0.35565-0.72053
   7   0   6 7106.34  590.13   1 0.12178 0.53911-0.92242 0.83922 0.36647 0.07113
  -7   0  -6 6943.88  535.49   1-0.83714 0.17606 0.03892 0.04465 0.54559-0.98336
  -7   0  -6 6765.79  765.99   1-0.58034-0.08075 0.75912-0.67575 0.29483-0.73268
   7   0   710104.65  780.82   1 0.11907 0.54377-0.92350 0.82644 0.36462 0.14591
  -7   0  -711107.70  775.75   1-0.88989 0.22681-0.02470 0.12221 0.45550-0.96623
  -7   0  -712940.72 1274.26   1-0.60534-0.05768 0.76032-0.66305 0.23550-0.74634
   7   0   8 1104.71  347.24   1 0.12201 0.54278-0.92232 0.81139 0.36663 0.21684
  -7   0  -8 1156.27  281.17   1-0.92878 0.26372-0.08689 0.19833 0.36028-0.94398
  -7   0  -8  493.53  273.48   1-0.62705-0.03791 0.75849-0.64733 0.17745-0.76126
  -7  -1   9  338.12  348.36   1 0.07691-0.69045 0.48584-0.69091 0.87065-0.21425
  -7  -1   886822.51 2366.07   1 0.06367-0.67919 0.48322-0.67435 0.87317-0.28971
  -7  -1   7 1325.97  270.51   1 0.04237-0.65986 0.47880-0.65601 0.87689-0.36636
  -7  -1   639433.08 1226.20   1 0.01236-0.63183 0.47220-0.63547 0.88140-0.44380
   7   1  -516370.91  322.54   1 0.78714-0.16601 0.04085 0.10841 0.61541-0.98014
  -7  -1   518637.60  696.71   1-0.02698-0.59453 0.46289-0.61229 0.88600-0.52117
  -7  -1   516782.59  305.67   1 0.00990-0.63141 0.39127-0.54071 0.92022-0.55583
   7   1  -434851.28  699.65   1 0.73877-0.11551-0.19398 0.32920 0.64542-0.93716
  -7  -1   434916.41  951.46   1-0.07609-0.54741 0.45013-0.58559 0.88971-0.59784
  -7  -1   434415.20  660.09   1-0.09029-0.53302 0.47938-0.61477 0.87294-0.58132
   7   1  -374791.32 2313.80   1 0.66227-0.03709-0.38795 0.50927 0.64099-0.85980
  -7  -1   375456.60 2434.69   1-0.13515-0.49035 0.43317-0.55468 0.89111-0.67221
  -7  -1   374394.81 2280.81   1-0.18817-0.43711 0.55755-0.67900 0.80853-0.58981
   7   1  -217827.59  887.73   1 0.57515 0.05196-0.53871 0.64609 0.61561-0.76148
  -7  -1   215478.77  899.47   1-0.20379-0.42370 0.41119-0.51875 0.88847-0.74254
  -7  -1   217924.91  866.93   1-0.27516-0.35227 0.61986-0.72733 0.73488-0.58897
   7   1  -215040.08  726.14   1 0.56736 0.05992-0.27698 0.38441 0.77548-0.92121
   7   1  -149528.95  872.10   1 0.48972 0.13940-0.65077 0.74427 0.58022-0.65316
  -7  -1   148888.85 1019.88   1-0.28092-0.34852 0.38363-0.47722 0.87971-0.80671
  -7  -1   145093.82  752.32   1-0.34856-0.28082 0.66648-0.76004 0.65901-0.58605
   7   1   029760.49  638.87   1 0.41284 0.21821-0.73163 0.81124 0.54246-0.54246
  -7  -1   030628.10  764.64   1-0.36485-0.26658 0.34956-0.42923 0.86295-0.86295
  -7  -1   029605.69  565.44   1-0.40901-0.22233 0.70001-0.77966 0.58539-0.58539
   7   1   140692.20  799.46   1 0.34757 0.28541-0.78874 0.85446 0.50702-0.43409
  -7  -1  -144474.34  954.08   1-0.45280-0.18061 0.30905-0.37480 0.83633-0.90933
  -7  -1  -142419.11  883.48   1-0.45878-0.17439 0.72352-0.78928 0.51577-0.58874
   7   1   298636.90 3084.76   1 0.29448 0.34048-0.82844 0.88024 0.47638-0.33051
  -7  -1  -296824.29 3039.26   1-0.54135-0.09415 0.26212-0.31389 0.79888-0.94477
  -7  -1  -295539.61 3060.50   1-0.50023-0.13490 0.73980-0.79165 0.44995-0.59588
   7   1   3 5809.32  551.14   1 0.25303 0.38386-0.85575 0.89364 0.45127-0.23245
  -7  -1  -3 5674.89  499.50   1-0.62730-0.01018 0.21031-0.24813 0.74983-0.96867
  -7  -1  -3 6940.56  768.12   1-0.53517-0.10190 0.75054-0.78849 0.38763-0.60654
   7   1   4199472.4 3432.05   1 0.22205 0.41678-0.87415 0.89813 0.43190-0.14015
  -7  -1  -4200025.7 3409.80   1-0.70739 0.06816 0.15434-0.17826 0.68975-0.98161
  -7  -1  -4195395.8 3406.37   1-0.56507-0.07422 0.75704-0.78115 0.32799-0.61990
   7   1   5  582.38  329.96   1 0.20027 0.44049-0.88609 0.89617 0.41800-0.05331
  -7  -1  -5  296.46  265.55   1-0.77871 0.13747 0.09593-0.10591 0.62000-0.98482
  -7  -1  -5 1386.82  254.50   1-0.59078-0.05044 0.75999-0.77021 0.27090-0.63578
  -7  -1  -653670.48 1466.04   1-0.83943 0.19627 0.03645-0.03253 0.54223-0.98000
  -7  -1  -654810.20 1543.60   1-0.61308-0.03007 0.76002-0.75635 0.21561-0.65347
   7   1   714753.03  875.18   1 0.17962 0.46500-0.89667 0.87894 0.40460 0.10595
  -7  -1  -716108.62  887.10   1-0.88847 0.24333-0.02276 0.04061 0.45835-0.96909
  -7  -1  -715142.10 1374.48   1-0.63247-0.01260 0.75750-0.73994 0.16172-0.67255
  -7  -1  -8 9275.99  524.17   1-0.92544 0.27831-0.08063 0.11241 0.37018-0.95388
  -7  -1  -8 8471.92 1267.31   1-0.64939 0.00232 0.75261-0.72121 0.10886-0.69271
  -7  -2   8  344.61  315.06   1 0.00360-0.60119 0.47022-0.74113 0.88254-0.29881
  -7  -2   718825.05 1082.04   1-0.01779-0.58178 0.46514-0.72210 0.88505-0.37429
   7   2  -6  931.27  172.13   1 0.78845-0.18728 0.28775-0.04508 0.54363-0.98127
  -7  -2   6 1840.39  541.54   1-0.04789-0.55368 0.45760-0.70062 0.88786-0.45006
   7   2  -533063.06 1114.39   1 0.79090-0.18772 0.08191 0.14698 0.60642-0.97116
  -7  -2   537029.46 1365.25   1-0.08709-0.51646 0.44711-0.67618 0.89022-0.52539
   7   2  -4 3362.84  224.66   1 0.76023-0.15512-0.11491 0.32988 0.63940-0.93118
  -7  -2   4 4811.02  503.56   1-0.13566-0.46989 0.43302-0.64814 0.89111-0.59924
   7   2  -320122.56 1012.44   1 0.70533-0.09806-0.29009 0.49103 0.64679-0.86560
  -7  -2   319919.00 1150.39   1-0.19345-0.41409 0.41466-0.61584 0.88917-0.67027
  -7  -2   318305.33  859.04   1-0.37696-0.23060 0.68283-0.88387 0.62580-0.40693
   7   2  -293885.19 2905.17   1 0.63694-0.02773-0.43684 0.62383 0.63519-0.78106
  -7  -2   292355.37 2926.01   1-0.25977-0.34973 0.39157-0.57875 0.88271-0.73670
   7   2  -160882.89 1020.61   1 0.56444 0.04668-0.55435 0.72745 0.61163-0.68456
  -7  -2   164470.92 1236.94   1-0.33355-0.27794 0.36276-0.53603 0.87013-0.79713
  -7  -2   160974.16  933.33   1-0.48631-0.12507 0.73472-0.90795 0.47294-0.39997
   7   2   074399.76 1222.53   1 0.49471 0.11844-0.64493 0.80414 0.58250-0.58250
  -7  -2   070093.82 1241.51   1-0.41267-0.20080 0.32818-0.48753 0.84969-0.84969
  -7  -2   071572.97 1106.59   1-0.52131-0.09202 0.74665-0.90597 0.41320-0.41320
   7   2   135870.48  740.07   1 0.43199 0.18309-0.71297 0.85830 0.55230-0.47937
  -7  -2  -135880.15  785.79   1-0.54995-0.06533 0.75409-0.89951 0.35901-0.43198
   7   2   2247295.6 3578.70   1 0.37837 0.23864-0.76298 0.89442 0.52410-0.37822
  -7  -2  -2243797.2 3552.65   1-0.57598-0.04155 0.24213-0.37357 0.78078-0.92667
  -7  -2  -2256059.711742.74   1-0.57444-0.04304 0.75842-0.89003 0.30790-0.45385
   7   2   3 2714.80  401.44   1 0.33438 0.28463-0.79907 0.91657 0.49965-0.28084
  -7  -2  -3 1999.26  316.87   1-0.65435 0.03483 0.19237-0.30985 0.73131-0.95014
  -7  -2  -3 1333.67  205.02   1-0.59568-0.02372 0.76022-0.87793 0.25926-0.47819
   7   2   4212056.911061.73   1 0.29989 0.32105-0.82465 0.92824 0.47959-0.18784
  -7  -2  -4208319.5 3547.88   1-0.72694 0.10564 0.13928-0.24287 0.67242-0.96428
  -7  -2  -4212985.011095.91   1-0.61446-0.00687 0.75993-0.86374 0.21197-0.50387
  -7  -2  -539218.24 1401.93   1-0.79138 0.16809 0.08441-0.17407 0.60545-0.97028
  -7  -2  -541611.75 1493.35   1-0.63117 0.00789 0.75776-0.84768 0.16555-0.53043
   7   2   623059.64  976.48   1 0.25631 0.36850-0.85371 0.92949 0.45328-0.01566
  -7  -2  -623358.35  890.25   1-0.84634 0.22111 0.02887-0.10461 0.53184-0.96961
  -7  -2  -623650.08 1872.52   1-0.64604 0.02084 0.75385-0.82988 0.11969-0.55755
   7   2   747334.62 1782.52   1 0.24550 0.38124-0.86038 0.92225 0.44660 0.06395
  -7  -2  -744603.86 1644.68   1-0.89103 0.26381-0.02627-0.03554 0.45318-0.96391
  -7  -2  -748464.99 1780.44   1-0.65931 0.03211 0.74819-0.81036 0.07417-0.58503
   7   2   816426.43  768.32   1 0.24093 0.38774-0.86314 0.91111 0.44376 0.13973
  -7  -2  -814324.63  662.25   1-0.92518 0.29598-0.08015 0.03227 0.37094-0.95464
  -7  -2  -813724.50 1574.75   1-0.67093 0.04178 0.74095-0.78924 0.02881-0.61266
   7   2   937345.45 2080.38   1 0.24190 0.38870-0.86256 0.89662 0.44437 0.21206
  -7  -2  -936191.74 1952.44   1-0.94906 0.31829-0.13231 0.09835 0.28593-0.94287
  -7  -2  -941433.78 2262.19   1-0.68102 0.04992 0.73207-0.76647-0.01649-0.64033
  -7  -3   819323.25  997.49   1-0.06783-0.51179 0.45236-0.80294 0.88924-0.30551
  -7  -3   712888.33  902.90   1-0.08911-0.49251 0.44655-0.78318 0.89030-0.37954
   7   3  -614224.91 1477.92   1 0.78765-0.20445 0.29506 0.02720 0.54086-0.97849
  -7  -3   616452.51 1039.45   1-0.11896-0.46464 0.43800-0.76068 0.89106-0.45326
   7   3  -545462.16 1485.40   1 0.79361-0.20840 0.12357 0.18478 0.59573-0.96042
  -7  -3   547718.98 1590.86   1-0.15761-0.42798 0.42625-0.73499 0.89076-0.52593
   7   3  -413195.84  756.05   1 0.77506-0.18790-0.04347 0.33807 0.63038-0.92217
  -7  -3   412917.84  827.12   1-0.20504-0.38255 0.41077-0.70556 0.88838-0.59651
   7   3  -3 1620.34  245.06   1 0.73696-0.14760-0.19989 0.48046 0.64570-0.86450
  -7  -3   3 1135.20  254.66   1-0.26075-0.32881 0.39120-0.67198 0.88258-0.66356
   7   3  -220899.73 1070.23   1 0.68538-0.09410-0.33816 0.60483 0.64490-0.79077
  -7  -3   220983.27 1154.11   1-0.32412-0.26743 0.36663-0.63348 0.87208-0.72606
   7   3  -114532.85  782.21   1 0.62665-0.03344-0.45537 0.70808 0.63240-0.70533
  -7  -3   114479.17  877.58   1-0.39352-0.20001 0.33692-0.58986 0.85534-0.78233
  -7  -3   113467.30  628.47   1-0.66646 0.07278 0.74405-0.99700 0.04697 0.02600
   7   3  -112728.09  587.73   1 0.56915 0.02421-0.27953 0.53238 0.77325-0.84615
   7   3   016576.23  861.33   1 0.56665 0.02847-0.55116 0.78998 0.61246-0.61246
  -7  -3   016607.16  900.31   1-0.46695-0.12857 0.30203-0.54105 0.83110-0.83110
  -7  -3   016878.97  865.83   1-0.64811 0.05243 0.75312-0.99222 0.11290-0.11290
   7   3   148385.92  931.31   1 0.50962 0.08756-0.62702 0.85195 0.58917-0.51623
  -7  -3  -150064.48 1039.62   1-0.54175-0.05582 0.26189-0.48696 0.79869-0.87163
   7   3   2 2577.51  404.65   1 0.45837 0.14075-0.68571 0.89676 0.56540-0.41952
  -7  -3  -2 3056.68  447.53   1-0.61565 0.01609 0.21778-0.42889 0.75732-0.90321
  -7  -3  -2 2316.98  291.22   1-0.64789 0.04835 0.75320-0.96450 0.11362-0.25958
   7   3   381762.45 2608.71   1 0.41440 0.18664-0.73014 0.92729 0.54328-0.32446
  -7  -3  -382948.08 2613.72   1-0.65370 0.05222 0.75086-0.94827 0.09418-0.31312
   7   3   4 2063.49  346.44   1 0.37828 0.22470-0.76306 0.94633 0.52405-0.23229
  -7  -3  -4 2323.43  389.13   1-0.75077 0.14741 0.12000-0.30327 0.64957-0.94142
  -7  -3  -4 1935.23  295.43   1-0.66079 0.05736 0.74741-0.93093 0.06872-0.36064
   7   3   572092.95 2382.55   1 0.34993 0.25498-0.78683 0.95621 0.50836-0.14366
  -7  -3  -571477.29 2350.66   1-0.80807 0.20272 0.06859-0.23792 0.58506-0.94989
  -7  -3  -571849.64 2349.35   1-0.66834 0.06297 0.74280-0.91243 0.03944-0.40434
   7   3   6 8561.37  759.71   1 0.32882 0.27810-0.80336 0.95874 0.49647-0.05884
  -7  -3  -610627.18  820.30   1-0.85695 0.24964 0.01681-0.17222 0.51512-0.95289
  -7  -3  -613773.32 1996.58   1-0.67587 0.06855 0.73697-0.89272 0.00747-0.44535
   7   3   788662.04 6736.02   1 0.31464 0.29421-0.81400 0.95547 0.48826 0.02230
  -7  -3  -784400.81 2881.83   1-0.89682 0.28754-0.03445-0.10702 0.44103-0.95177
  -7  -3  -791995.25 6984.23   1-0.68305 0.07377 0.72988-0.87174-0.02650-0.48436
   7   3   8  510.58  357.62   1 0.30667 0.30411-0.81980 0.94738 0.48359 0.09990
  -7  -3  -8 1022.60  406.87   1-0.92755 0.31628-0.08455-0.04299 0.36399-0.94769
  -7  -3  -8 1464.99  591.74   1-0.68964 0.07842 0.72148-0.84945-0.06204-0.52179
   7   3   943652.88 2413.60   1 0.30432 0.30840-0.82149 0.93516 0.48221 0.17422
  -7  -3  -939155.26 2118.20   1-0.94937 0.33654-0.13315 0.01950 0.28452-0.94146
  -7  -3  -947345.37 2616.25   1-0.69549 0.08232 0.71169-0.82578-0.09888-0.55794
  -7  -4   812309.94 1398.48   1-0.15112-0.41055 0.42828-0.85853 0.89091-0.30718
   7   4  -7 2031.19  292.97   1 0.75766-0.19456 0.45323-0.03752 0.46959-0.98017
  -7  -4   7 2953.51  454.31   1-0.17174-0.39191 0.42176-0.83806 0.89028-0.37952
   7   4  -613048.77 1257.87   1 0.78545-0.22021 0.31326 0.08860 0.53378-0.97141
  -7  -4   616555.46  972.36   1-0.20075-0.36490 0.41222-0.81457 0.88869-0.45089
   7   4  -542099.58 1270.74   1 0.79454-0.22730 0.16710 0.22085 0.58375-0.94845
  -7  -4   545483.00 1311.03   1-0.23810-0.32954 0.39926-0.78767 0.88537-0.52054
   7   4  -4 2165.91  227.68   1 0.78500-0.21579 0.02243 0.35178 0.61908-0.91086
  -7  -4   4 1615.67  313.83   1-0.28339-0.28624 0.38269-0.75705 0.87933-0.58730
   7   4  -320860.47  772.16   1 0.75981-0.18867-0.11668 0.47698 0.63958-0.85842
  -7  -4   320066.77 1206.76   1-0.33627-0.23534 0.36164-0.72208 0.86955-0.65053
   7   4  -2 6334.43  424.52   1 0.72218-0.14881-0.24466 0.59096 0.64698-0.79285
  -7  -4   2 4698.02  489.21   1-0.39548-0.17812 0.33604-0.68257 0.85479-0.70877
   7   4  -118201.49  941.89   1 0.67659-0.10131-0.35774 0.69014 0.64360-0.71654
  -7  -4   119545.31 1031.06   1-0.45944-0.11614 0.30577-0.63838 0.83391-0.76090
   7   4   0 6624.39  436.32   1 0.62716-0.04994-0.45448 0.77291 0.63254-0.63254
  -7  -4   0 8237.04  685.84   1-0.52604-0.05159 0.27062-0.58931 0.80625-0.80625
   7   4   0 6899.47  342.38   1 0.70463-0.12689-0.59416 0.91293 0.38787-0.38787
   7   4   136975.35 1265.49   1 0.57779 0.00134-0.53478 0.83931 0.61657-0.54363
  -7  -4  -140884.76 1411.82   1-0.59333 0.01371 0.23168-0.53642 0.77089-0.84383
   7   4   241712.32 1410.22   1 0.53128 0.04977-0.59971 0.89036 0.59839-0.45252
  -7  -4  -243085.25 1491.69   1-0.65899 0.07739 0.18920-0.47999 0.72796-0.87385
   7   4   333898.73 1219.12   1 0.48956 0.09359-0.65096 0.92772 0.58015-0.36133
  -7  -4  -331406.77 1174.32   1-0.72105 0.13765 0.14388-0.42076 0.67776-0.89666
  -7  -4  -332391.70 1106.55   1-0.69636 0.11281 0.70996-0.98706-0.10499-0.11394
  -7  -4  -4  605.48  291.77   1-0.77768 0.19227 0.09684-0.35979 0.62114-0.91300
  -7  -4  -4  149.67  191.34   1-0.69546 0.10996 0.71175-0.97496-0.09866-0.19325
   7   4   5  836.01  326.47   1 0.42443 0.16258-0.72044 0.96943 0.54845-0.18376
  -7  -4  -5 1729.36  390.69   1-0.82770 0.24028 0.04889-0.29790 0.55903-0.92386
  -7  -4  -5 1864.95  321.56   1-0.69631 0.10886 0.71006-0.95938-0.10465-0.26024
   7   4   6  365.27  321.96   1 0.40156 0.18738-0.74219 0.97729 0.53654-0.09891
  -7  -4  -6  114.53  297.28   1-0.87030 0.28093 0.00081-0.23588 0.49251-0.93028
   7   4   722990.15 1053.30   1 0.38495 0.20593-0.75721 0.97841 0.52767-0.01710
  -7  -4  -720393.64  934.33   1-0.90510 0.31374-0.04671-0.17442 0.42261-0.93334
   7   4   817328.63 1175.39   1 0.37424 0.21857-0.76655 0.97387 0.52185 0.06165
  -7  -4  -816652.97 1158.12   1-0.93200 0.33865-0.09317-0.11404 0.35027-0.93397
   7   4   9 1299.21  405.53   1 0.36902 0.22572-0.77101 0.96444 0.51898 0.13746
  -7  -4  -9 2048.40  461.21   1-0.95120 0.35632-0.13833-0.05500 0.27580-0.93274
   7   5  -739028.21 1608.94   1 0.75586-0.21074 0.45958 0.03570 0.46631-0.97688
  -7  -5   747021.06 1991.35   1-0.26531-0.28041 0.38951-0.88531 0.88197-0.37092
   7   5  -6  479.00  194.96   1 0.78262-0.23551 0.33692 0.14445 0.52344-0.96107
  -7  -5   6  539.04  378.99   1-0.29251-0.25520 0.37918-0.86105 0.87787-0.43982
   7   5  -548602.00 1824.89   1 0.79383-0.24455 0.21095 0.25659 0.57037-0.93506
  -7  -5   551285.49 1852.64   1-0.32750-0.22219 0.36524-0.83320 0.87139-0.50636
   7   5  -414215.73 1839.96   1 0.79107-0.23981 0.08418 0.36966 0.60589-0.89768
  -7  -5   416392.09  729.25   1-0.36976-0.18191 0.34743-0.80147 0.86171-0.56968
   7   5  -380704.85 2487.63   1 0.77569-0.22250-0.03989 0.47981 0.62984-0.84868
  -7  -5   377826.12 2473.12   1-0.41841-0.13524 0.32551-0.76563 0.84791-0.62889
   7   5  -221147.51  795.61   1 0.74955-0.19443-0.15682 0.58282 0.64309-0.78899
  -7  -5   220205.87  579.24   1-0.47222-0.08342 0.29937-0.72557 0.82908-0.68306
   7   5  -1 9733.60  533.47   1 0.71535-0.15798-0.26370 0.67572 0.64708-0.72002
  -7  -5   1 8824.35  522.97   1-0.52947-0.02820 0.26873-0.68105 0.80463-0.73168
   7   5   036015.68  848.58   1 0.67636-0.11707-0.35825 0.75637 0.64357-0.64357
  -7  -5   036429.41  917.31   1-0.58857 0.02891 0.23457-0.63294 0.77366-0.77366
   7   5   1 7763.08  456.43   1 0.63533-0.07411-0.43977 0.82391 0.63477-0.56184
  -7  -5  -1 8935.16  588.31   1-0.64753 0.08589 0.19697-0.58138 0.73613-0.80907
   7   5   1 8040.60  329.91   1 0.66991-0.10819-0.47723 0.86169 0.56873-0.49576
   7   5   2 1309.78  213.57   1 0.59505-0.03191-0.50821 0.87847 0.62259-0.47672
  -7  -5  -2  901.63  300.15   1-0.70457 0.14111 0.15646-0.52696 0.69216-0.83809
   7   5   2 1792.92  187.85   1 0.70367-0.13997-0.58602 0.95654 0.40175-0.25580
   7   5   3 9546.41  516.78   1 0.55740 0.00765-0.56436 0.92072 0.60892-0.39012
  -7  -5  -3 8507.70  570.05   1-0.75798 0.19251 0.11395-0.47051 0.64223-0.86113
   7   5   3 8905.82  418.11   1 0.70900-0.14320-0.62780 0.98439 0.32119-0.10226
   7   5   412364.60  799.28   1 0.52378 0.04318-0.60938 0.95185 0.59523-0.30349
  -7  -5  -412795.26  904.73   1-0.80649 0.23902 0.07012-0.41274 0.58706-0.87892
   7   5   413369.33  830.78   1 0.70972-0.14192-0.64715 0.98978 0.27835 0.01354
   7   5   5 1734.62  294.01   1 0.49504 0.07408-0.64454 0.97314 0.58265-0.21796
  -7  -5  -5 1201.22  312.46   1-0.84918 0.27972 0.02570-0.35437 0.52747-0.89228
   7   5   5 1559.78  242.76   1 0.70952-0.13971-0.65573 0.98441 0.25805 0.10683
   7   5   617296.62 1076.39   1 0.47166 0.09939-0.67125 0.98596 0.57179-0.13416
   7   5   720908.45 1174.91   1 0.45372 0.11926-0.69065 0.99146 0.56313-0.05256
  -7  -5  -719676.23 1084.31   1-0.91507 0.34164-0.06256-0.23824 0.39839-0.90912
   7   5   724188.21 1332.44   1 0.70948-0.13568-0.65662 0.95738 0.25589 0.25494
   7   5   812084.31  713.38   1 0.44114 0.13377-0.70373 0.99065 0.55691 0.02659
  -7  -5  -814235.08  706.69   1-0.93804 0.36302-0.10561-0.18135 0.33001-0.91396
   7   5   813136.79  652.22   1 0.70965-0.13385-0.65210 0.93891 0.26675 0.31706
  -7  -5  -9 1886.04  521.37   1-0.95414 0.37720-0.14727-0.12575 0.26061-0.91755
   7   5   9 1805.10  564.96   1 0.70972-0.13192-0.64518 0.91803 0.28289 0.37390
   7   6  -612003.80 1468.67   1 0.77775-0.24862 0.36586 0.19508 0.51111-0.94875
  -7  -6   616658.05  846.81   1-0.39349-0.13626 0.33694-0.89848 0.85535-0.41731
   7   6  -515317.88 1722.22   1 0.79141-0.26009 0.25490 0.29225 0.55559-0.92029
  -7  -6   516931.66 1111.36   1-0.42466-0.10707 0.32258-0.87021 0.84592-0.48089
   7   6  -416797.91 1450.98   1 0.79420-0.26088 0.14205 0.39118 0.59080-0.88256
  -7  -6   418601.78  804.01   1-0.46226-0.07146 0.30437-0.83808 0.83286-0.54083
   7   6  -3 2769.73  487.67   1 0.78611-0.25087 0.03170 0.48784 0.61726-0.83610
  -7  -6   3 1909.03  402.96   1-0.50519-0.03055 0.28187-0.80177 0.81567-0.59683
   7   6  -2108868.3 3318.21   1 0.76909-0.23193-0.07473 0.58035 0.63474-0.78063
  -7  -6   2114987.8 3527.33   1-0.55224 0.01451 0.25595-0.76190 0.79341-0.64752
   7   6  -1 3990.53  301.12   1 0.74462-0.20516-0.17426 0.66591 0.64433-0.71726
  -7  -6   1 3998.93  402.28   1-0.60191 0.06220 0.22639-0.71839 0.76579-0.69284
   7   6   021061.49  825.34   1 0.71501-0.17363-0.26463 0.74237 0.64708-0.64708
  -7  -6   020179.12  641.22   1-0.65259 0.11090 0.19356-0.67160 0.73256-0.73256
   7   6   137072.01 1312.40   1 0.68243-0.13913-0.34482 0.80867 0.64449-0.57156
  -7  -6  -138269.53 1392.28   1-0.70272 0.15921 0.15784-0.62196 0.69372-0.76669
   7   6   2 4774.40  493.75   1 0.64887-0.10365-0.41437 0.86423 0.63816-0.49229
  -7  -6  -2 4437.54  460.51   1-0.75079 0.20527 0.11998-0.57016 0.64954-0.79547
   7   6   2 4233.56  287.50   1 0.63759-0.09216-0.40570 0.85577 0.65488-0.50907
  -7  -6  -346202.11 1597.13   1-0.79555 0.24802 0.08054-0.51677 0.60050-0.81940
   7   6   344884.40 1449.76   1 0.68016-0.13240-0.50414 0.94039 0.53218-0.31326
   7   6   4 8738.98  458.39   1 0.58627-0.03720-0.52191 0.94399 0.61958-0.32785
  -7  -6  -4 8274.10  486.55   1-0.83599 0.28645 0.04015-0.46242 0.54726-0.83911
   7   6   4 9561.25  355.90   1 0.69573-0.14599-0.55283 0.97513 0.45861-0.16671
   7   6   534088.87 1126.43   1 0.55959-0.00861-0.56126 0.96945 0.60977-0.24510
  -7  -6  -531998.79 1026.26   1-0.87148 0.31995-0.00065-0.40768 0.49042-0.85523
   7   6   533251.25  977.23   1 0.70221-0.15047-0.57901 0.98737 0.41428-0.04942
   7   6   6  750.16  319.41   1 0.53702 0.01587-0.59217 0.98646 0.60077-0.16317
  -7  -6  -6  329.45  276.74   1-0.90154 0.34803-0.04136-0.35303 0.43069-0.86846
   7   6   6 1208.63  440.86   1 0.70499-0.15125-0.59288 0.98729 0.38920 0.04863
   7   6   7 3724.22  712.07   1 0.51893 0.03588-0.61552 0.99593 0.59315-0.08261
  -7  -6  -7 3677.55  614.99   1-0.92595 0.37045-0.08157-0.29889 0.36871-0.87944
   7   6   7 3618.48  564.41   1 0.70607-0.15035-0.59913 0.97960 0.37748 0.13332
   7   6   8 9352.46  700.29   1 0.50543 0.05158-0.63213 0.99866 0.58732-0.00381
  -7  -6  -8 8350.50  579.83   1-0.94476 0.38768-0.12114-0.24551 0.30455-0.88849
   7   6   810353.47  714.56   1 0.70625-0.14853-0.60019 0.96671 0.37546 0.20831
   7   7  -5  322.45  216.05   1 0.78722-0.27387 0.29880 0.32794 0.53943-0.90412
  -7  -7   5 1012.19  337.81   1-0.52727 0.01346 0.26994-0.89743 0.80567-0.44095
   7   7  -416305.34 1801.36   1 0.79421-0.27885 0.19814 0.41469 0.57442-0.86617
  -7  -7   417775.31 1175.78   1-0.55850 0.04270 0.25236-0.86589 0.79018-0.49840
   7   7  -3 1707.50  309.79   1 0.79235-0.27498 0.09841 0.50052 0.60207-0.82089
  -7  -7   3 1991.32  310.20   1-0.59430 0.07652 0.23108-0.83066 0.77032-0.55149
   7   7  -223369.03 1346.84   1 0.78234-0.26313 0.00231 0.58293 0.62283-0.76872
  -7  -7   224729.54  860.54   1-0.63341 0.11366 0.20633-0.79195 0.74579-0.59990
   7   7  -128283.61  891.33   1 0.76600-0.24486-0.08945 0.66077 0.63657-0.70952
  -7  -7   128257.66  935.78   1-0.67448 0.15275 0.17842-0.75008 0.71640-0.64345
   7   7   032393.18 1111.93   1 0.74449-0.22102-0.17471 0.73208 0.64435-0.64436
  -7  -7   032904.85 1123.24   1-0.71615 0.19257 0.14767-0.70540 0.68214-0.68214
   7   7   187091.82 2618.27   1 0.71961-0.19423-0.25192 0.79539 0.64705-0.57411
  -7  -7  -184155.24 2542.61   1-0.75711 0.23153 0.11468-0.65847 0.64313-0.71609
   7   7   210998.88  799.61   1 0.69297-0.16567-0.32049 0.85006 0.64580-0.49993
  -7  -7  -211006.03  880.77   1-0.79620 0.26862 0.07993-0.60978 0.59972-0.74565
   7   7   351815.33 1665.46   1 0.66610-0.13688-0.38008 0.89575 0.64175-0.42294
  -7  -7  -346818.26 1574.14   1-0.83243 0.30285 0.04393-0.55984 0.55237-0.77126
   7   7   344339.44 1302.26   1 0.60983-0.08038-0.35121 0.86702 0.71046-0.49174
   7   7   431955.00 1021.77   1 0.64019-0.10905-0.43082 0.93250 0.63603-0.34430
  -7  -7  -430768.89 1073.09   1-0.86506 0.33344 0.00721-0.50914 0.50161-0.79346
   7   7   516002.06  885.81   1 0.61656-0.08350-0.47288 0.96068 0.62945-0.26478
  -7  -7  -511123.10  870.08   1-0.89358 0.35998-0.02984-0.45815 0.44790-0.81271
   7   7   514068.92  925.40   1 0.67204-0.13825-0.48261 0.97065 0.56163-0.19677
   7   7   669677.11 2635.75   1 0.59588-0.06090-0.50689 0.98079 0.62287-0.18527
  -7  -7  -664349.28 2474.97   1-0.91761 0.38203-0.06681-0.40724 0.39180-0.82957
   7   7   667009.36 2480.15   1 0.68276-0.14698-0.51147 0.98557 0.52174-0.08390
   7   7   7 2059.81  424.12   1 0.57869-0.04178-0.53343 0.99344 0.61689-0.10635
  -7  -7  -7 1898.47  382.10   1-0.93709 0.39988-0.10356-0.35671 0.33334-0.84430
   7   7   7 3723.30  542.41   1 0.68842-0.15064-0.52834 0.98849 0.49692 0.01389
   7   7   826105.40 1523.56   1 0.56530-0.02648-0.55311 0.99924 0.61195-0.02848
  -7  -7  -823713.85 1409.14   1-0.95161 0.41248-0.13952-0.30682 0.27379-0.85773
   7   7   825544.19 1453.17   1 0.69118-0.15141-0.53715 0.98336 0.48345 0.10033
   7   8  -4 1824.84  463.50   1 0.79161-0.29421 0.25219 0.44024 0.55654-0.84830
   7   8  -3 8651.41 1149.80   1 0.79452-0.29511 0.16225 0.51627 0.58515-0.80397
   7   8  -2 1023.54  398.42   1 0.79036-0.28909 0.07494 0.58993 0.60803-0.75392
  -7  -8   2 1163.71  387.04   1-0.71300 0.21138 0.15008-0.81536 0.68490-0.53897
   7   8  -1 7277.80  757.85   1 0.78065-0.27745-0.00938 0.66033 0.62489-0.69784
  -7  -8   1 7115.64  704.35   1-0.74485 0.24122 0.12489-0.77623 0.65543-0.58246
   7   8   0  533.15  413.79   1 0.76616-0.26103-0.08874 0.72576 0.63649-0.63649
  -7  -8   0 1136.66  437.05   1-0.77720 0.27157 0.09727-0.73468 0.62168-0.62168
   7   8   138452.91 1449.38   1 0.74812-0.24107-0.16200 0.78509 0.64347-0.57052
  -7  -8  -138790.80 1432.74   1-0.80899 0.30135 0.06769-0.69116 0.58390-0.65686
   7   8   2 7390.17  689.05   1 0.72777-0.21838-0.22835 0.83755 0.64668-0.50081
  -7  -8  -2 5815.61  526.62   1-0.83924 0.32953 0.03666-0.64611 0.54251-0.68843
   7   8   322635.44  986.88   1 0.70649-0.19518-0.28712 0.88242 0.64685-0.42805
  -7  -8  -320719.25  888.64   1-0.86732 0.35562 0.00447-0.59999 0.49772-0.71661
   7   8   442767.84 2097.31   1 0.68536-0.17214-0.33819 0.91958 0.64490-0.35316
  -7  -8  -438136.33 1899.70   1-0.89254 0.37886-0.02838-0.55320 0.45006-0.74190
   7   8   5 1129.77  505.14   1 0.66538-0.15024-0.38157 0.94906 0.64161-0.27693
  -7  -8  -5  431.97  302.83   1-0.91447 0.39880-0.06156-0.50609 0.39992-0.76473
   7   8   5  513.03  230.03   1 0.62075-0.10534-0.37197 0.93961 0.69014-0.32561
   7   8   630944.34 1094.39   1 0.64721-0.13014-0.41756 0.97107 0.63777-0.20016
  -7  -8  -630386.85 1039.14   1-0.93294 0.41558-0.09491-0.45899 0.34729-0.78524
   7   8   629908.86  963.33   1 0.64293-0.12558-0.41691 0.97065 0.64250-0.20507
   7   8   710848.61 1242.56   1 0.63172-0.11274-0.44632 0.98594 0.63380-0.12326
  -7  -8  -7 9521.33 1172.28   1-0.94741 0.42814-0.12789-0.41207 0.29333-0.80428
   7   8   710993.91 1226.84   1 0.65604-0.13674-0.44585 0.98568 0.60895-0.09861
   7   9  -2  -22.61  244.96   1 0.79423-0.31079 0.14323 0.60098 0.59048-0.73636
  -7  -9   2 1014.43  319.68   1-0.78823 0.30455 0.08731-0.83227 0.60914-0.46321
   7   9  -1 1319.94  404.07   1 0.78965-0.30441 0.06649 0.66408 0.60993-0.68287
  -7  -9   1 1217.22  333.76   1-0.81059 0.32490 0.06613-0.79715 0.58186-0.50890
   7   9   0  551.92  286.53   1 0.78100-0.29383-0.00701 0.72365 0.62448-0.62448
  -7  -9   0  968.70  351.04   1-0.83368 0.34599 0.04261-0.75969 0.55059-0.55059
   7   9   1 6348.17  672.96   1 0.76889-0.27979-0.07570 0.77843 0.63487-0.56192
  -7  -9  -1 6948.71  627.12   1-0.85654 0.36674 0.01728-0.72033 0.51577-0.58874
   7   9   2 -133.11  315.10   1 0.75433-0.26330-0.13879 0.82758 0.64165-0.49576
  -7  -9  -2  742.55  385.30   1-0.87856 0.38678-0.00962-0.67949 0.47752-0.62344
   7   9   3 2025.66  464.44   1 0.73825-0.24485-0.19569 0.87061 0.64550-0.42670
  -7  -9  -3 1724.37  320.94   1-0.89900 0.40523-0.03761-0.63756 0.43631-0.65520
   7   9   413902.84  748.69   1 0.72175-0.22643-0.24590 0.90692 0.64699-0.35525
  -7  -9  -415156.22  737.72   1-0.91734 0.42158-0.06635-0.59489 0.39252-0.68436
   7   9   5 -230.97  315.53   1 0.70563-0.20840-0.28934 0.93646 0.64681-0.28213
  -7  -9  -5  501.89  288.08   1-0.93332 0.43582-0.09569-0.55183 0.34604-0.71100
   7   9   6 6205.14  891.27   1 0.69064-0.19150-0.32598 0.95921 0.64555-0.20794
  -7  -9  -6 5445.93  797.20   1-0.94632 0.44691-0.12507-0.50851 0.29802-0.73598
   7  10   1 8350.60 1043.68   1 0.78298-0.31183 0.00691 0.77543 0.62200-0.54905
  -7 -10  -1 8644.90 1037.29   1-0.89815 0.42628-0.03637-0.74633 0.43817-0.51114
   7  10   2  751.93  478.05   1 0.77343-0.30035-0.05242 0.82083 0.63169-0.48580
  -7 -10  -2  594.12  267.97   1-0.91262 0.43877-0.05854-0.71023 0.40457-0.55049
   7  10   3 2668.81  443.92   1 0.76219-0.28718-0.10655 0.86104 0.63852-0.41968
  -7 -10  -3 3279.93  495.51   1-0.92619 0.45034-0.08200-0.67284 0.36802-0.58691
  -8   5   2 1022.87  410.38   1-0.16279-0.66521 0.42462-0.05417 0.89061-0.74468
  -8   5   2  840.36  493.94   1-0.13055-0.69694 0.51251-0.14221 0.84869-0.70288
  -8   5   1 6626.53  781.46   1-0.24584-0.58416 0.39648-0.01208 0.88451-0.81154
  -8   5   1 5816.98  773.96   1-0.17994-0.64952 0.55130-0.16706 0.81466-0.74176
   8  -5   039951.63 3470.63   1 0.05901 0.77260-0.94462 0.54669 0.32280-0.32280
  -8   5   037768.70 3289.09   1-0.33864-0.49329 0.36066 0.03769 0.86904-0.86904
  -8   5   043427.02 3794.66   1-0.22946-0.60197 0.58801-0.18984 0.77561-0.77561
  -8   4   5  570.04  349.69   1 0.02276-0.82680 0.47454-0.22559 0.87993-0.51527
  -8   4   5   75.50  264.08   1 0.01469-0.81851 0.38686-0.13814 0.92201-0.55763
  -8   4   4  685.91  338.55   1-0.02697-0.77910 0.46289-0.20000 0.88600-0.59413
  -8   4   4  199.79  278.88   1-0.03196-0.77379 0.42909-0.16642 0.90269-0.61118
  -8   4   3 1366.71  384.97   1-0.08673-0.72132 0.44721-0.17037 0.89021-0.67131
  -8   4   3  980.42  383.13   1-0.08138-0.72621 0.47187-0.19514 0.87790-0.65918
  -8   4   210192.88  599.55   1-0.15678-0.65327 0.42651-0.13573 0.89078-0.74485
  -8   4   2 9149.30  520.06   1-0.13283-0.67674 0.51435-0.22369 0.84722-0.70141
   8  -4  -1  735.32  255.96   1 0.16159 0.64973-0.90534 0.60082 0.39273-0.46567
  -8   4   1 2015.54  509.18   1-0.23692-0.57512 0.39968-0.09495 0.88550-0.81253
   8  -4   0  273.86  227.45   1 0.10578 0.70789-0.92866 0.61032 0.35551-0.35551
  -8   4   0  -36.23  246.73   1-0.32615-0.48782 0.36580-0.04711 0.87167-0.87167
  -8   4   0  268.52  288.85   1-0.23682-0.57670 0.59328-0.27474 0.76937-0.76937
   8  -4   116902.31  838.05   1 0.06552 0.75010-0.94260 0.61039 0.32742-0.25449
  -8   4  -116916.75  834.37   1-0.42295-0.39301 0.32339 0.00920 0.84647-0.91948
  -8   4  -116746.10  825.94   1-0.28746-0.52814 0.62808-0.29556 0.72309-0.79605
   8  -4   2 7058.46  868.39   1 0.03771 0.77986-0.95077 0.60469 0.30758-0.16171
  -8   4  -2 4106.50  499.76   1-0.52437-0.29378 0.27154 0.07506 0.80703-0.95292
  -8   4  -2 5641.63  697.05   1-0.33606-0.48150 0.65897-0.31254 0.67291-0.81882
   8  -4   314126.70 1359.61   1 0.01974 0.79978-0.95542 0.59548 0.29458-0.07578
  -8   4  -310977.04 1035.15   1-0.62598-0.19414 0.21116 0.14938 0.75069-0.96953
  -8   4  -314047.30 1370.25   1-0.38215-0.43737 0.68571-0.32536 0.61948-0.83835
  -8   3   610601.22 1222.23   1 0.05408-0.83818 0.48126-0.32590 0.87490-0.43730
  -8   3   611118.65 1238.71   1 0.06140-0.84536 0.34283-0.18771 0.93738-0.50012
  -8   3   587186.0313371.93   1 0.01470-0.80077 0.47273-0.30344 0.88108-0.51641
  -8   3   4  866.18  366.11   1-0.03382-0.75429 0.46118-0.27796 0.88665-0.59479
  -8   3   4  247.07  247.60   1-0.03529-0.75254 0.43205-0.24900 0.90115-0.60964
  -8   3   367793.27 2550.79   1-0.09205-0.69805 0.44572-0.24856 0.89042-0.67152
  -8   3   370275.10 2596.44   1-0.08840-0.70128 0.47779-0.28070 0.87401-0.65529
   8  -3  -2 1016.46  192.78   1 0.30842 0.48308-0.81854 0.60753 0.48462-0.63049
  -8   3   2  723.39  283.72   1-0.16013-0.63196 0.42546-0.21435 0.89069-0.74476
  -8   3   2 1843.55  503.76   1-0.14326-0.64839 0.52269-0.31166 0.84039-0.69458
   8  -3  -1 2745.34  324.95   1 0.22436 0.56907-0.87283 0.64792 0.43337-0.50630
  -8   3   1 2716.67  399.84   1-0.23773-0.55635 0.39939-0.17433 0.88541-0.81245
  -8   3   1 3098.96  457.68   1-0.19828-0.59534 0.56515-0.34019 0.80080-0.72789
   8  -3   010095.03  851.19   1 0.16171 0.63365-0.90528 0.66646 0.39282-0.39282
  -8   3   0 8841.69  809.14   1-0.32376-0.47225 0.36677-0.12775 0.87215-0.87215
  -8   3   0 9838.42  852.88   1-0.25225-0.54335 0.60415-0.36524 0.75588-0.75588
   8  -3   1 1337.59  321.21   1 0.11619 0.68149-0.92464 0.67202 0.36266-0.28972
  -8   3  -1 1360.66  265.22   1-0.41661-0.38139 0.32636-0.07342 0.84848-0.92148
  -8   3  -1 1590.49  417.41   1-0.30428-0.49341 0.63906-0.38619 0.70639-0.77935
   8  -3   210089.07  760.73   1 0.08334 0.71630-0.93674 0.67025 0.33994-0.19407
  -8   3  -210029.79  733.23   1-0.51339-0.28678 0.27749-0.01056 0.81204-0.95793
  -8   3  -210817.00  766.98   1-0.35353-0.44612 0.66941-0.40263 0.65337-0.79928
   8  -3   3 1498.42  439.81   1 0.06102 0.74057-0.94400 0.66365 0.32423-0.10542
  -8   3  -3  982.16  211.12   1-0.61017-0.19199 0.22124 0.05963 0.76074-0.97958
  -8   3  -3  328.72  294.56   1-0.39960-0.40201 0.69511-0.41442 0.59760-0.81647
   8  -3   4  655.32  339.75   1 0.04728 0.75626-0.94809 0.65387 0.31445-0.02271
  -8   3  -4   22.83  175.39   1-0.70292-0.10080 0.15769 0.13708 0.69355-0.98541
  -8   3  -4  867.73  271.47   1-0.44226-0.36107 0.71613-0.42153 0.53994-0.83182
  -8   2   711014.84 1150.67   1 0.06696-0.83111 0.48387-0.42211 0.87256-0.36203
  -8   2   6 4299.33  477.47   1 0.03679-0.80292 0.47761-0.40191 0.87779-0.44019
  -8   2   6 5709.31  480.92   1 0.05700-0.82304 0.34705-0.27156 0.93610-0.49884
  -8   2   548904.17 1971.62   1-0.00177-0.76639 0.46896-0.37936 0.88321-0.51838
  -8   2   546009.45 1729.11   1 0.00627-0.77425 0.39461-0.30516 0.91882-0.55443
  -8   2   433094.99 1709.04   1-0.04935-0.72080 0.45723-0.35367 0.88797-0.59611
  -8   2   432935.92 1601.99   1-0.04869-0.72123 0.44382-0.34040 0.89479-0.60328
  -8   2   345175.09 1662.01   1-0.10628-0.66586 0.44169-0.32419 0.89084-0.67195
  -8   2   346415.71 1630.74   1-0.10605-0.66571 0.49251-0.37506 0.86381-0.64509
   8  -2  -282175.60 2727.93   1 0.38176 0.39183-0.76002 0.62858 0.52594-0.67182
  -8   2   285330.17 2929.99   1-0.17259-0.60154 0.42149-0.29004 0.89025-0.74432
  -8   2   283140.24 2811.35   1-0.16454-0.60920 0.53943-0.40803 0.82579-0.67998
   8  -2  -145368.16 1211.36   1 0.29438 0.48116-0.82852 0.68321 0.47632-0.54926
  -8   2   146601.17 1346.81   1-0.24772-0.52836 0.39597-0.25055 0.88421-0.81120
  -8   2   146464.44 1275.25   1-0.22224-0.55346 0.58280-0.43747 0.78162-0.70872
   8  -2   063048.90 1659.32   1 0.22656 0.55092-0.87158 0.71236 0.43475-0.43475
  -8   2   062126.94 1686.20   1-0.33082-0.44724 0.36389-0.20454 0.87070-0.87070
  -8   2   063184.42 1674.62   1-0.27790-0.49993 0.62170-0.46239 0.73229-0.73229
   8  -2   116866.08  740.94   1 0.17510 0.60431-0.89889 0.72578 0.40164-0.32870
  -8   2  -117792.57  796.79   1-0.41984-0.36020 0.32485-0.15158 0.84746-0.92047
  -8   2  -119077.35  822.47   1-0.33045-0.44933 0.65554-0.48232 0.67901-0.75196
   8  -2   230227.33 1161.03   1 0.13745 0.64425-0.91592 0.72901 0.37709-0.23122
  -8   2  -232071.48 1220.71   1-0.51208-0.27012 0.27819-0.09094 0.81263-0.95852
  -8   2  -229744.36 1127.79   1-0.37937-0.40237 0.68417-0.49705 0.62287-0.76878
   8  -2   326151.15 1137.91   1 0.11047 0.67318-0.92687 0.72610 0.35873-0.13993
  -8   2  -326669.06 1111.98   1-0.60403-0.18015 0.22508-0.02387 0.76451-0.98334
  -8   2  -323358.68 1526.47   1-0.42439-0.35910 0.70762-0.50659 0.56493-0.78384
   8  -2   4 1877.08  510.88   1 0.09261 0.69299-0.93350 0.71886 0.34640-0.05466
  -8   2  -4  589.28  211.51   1-0.69211-0.09368 0.16569 0.04940 0.70251-0.99437
  -8   2  -4 1200.05  261.68   1-0.46548-0.31996 0.72638-0.51144 0.50565-0.79752
   8  -2   539100.75 1717.05   1 0.08238 0.70518-0.93707 0.70857 0.33927 0.02539
  -8   2  -536138.67 1504.94   1-0.77247-0.01532 0.10145 0.12758 0.62688-0.99170
  -8   2  -530735.94 2957.56   1-0.50273-0.28466 0.74067-0.51182 0.44570-0.81055
  -8   1   7 2758.90  589.08   1 0.04072-0.78690 0.47845-0.49634 0.87716-0.36663
  -8   1   633888.69 1121.15   1 0.01107-0.75923 0.47190-0.47586 0.88157-0.44397
  -8   1   5  555.66  363.41   1-0.02688-0.72332 0.46291-0.45297 0.88599-0.52116
  -8   1   5  275.22  177.49   1-0.01626-0.73380 0.41508-0.40525 0.90963-0.54525
  -8   1   463222.12 2148.27   1-0.07648-0.67539 0.46771-0.44383 0.88056-0.58894
   8  -1  -3 4305.24  582.07   1 0.55806 0.19567-0.56343 0.52549 0.60918-0.82798
  -8   1   3 6132.89  584.10   1-0.12935-0.62483 0.43492-0.39709 0.89112-0.67222
  -8   1   3 4560.98  651.62   1-0.13889-0.61496 0.51920-0.48139 0.84328-0.62456
   8  -1  -282738.32 2399.52   1 0.45530 0.30038-0.68898 0.63715 0.56391-0.70979
  -8   1   280976.35 2460.49   1-0.19397-0.56221 0.41449-0.36271 0.88913-0.74320
  -8   1   283410.61 2452.19   1-0.20081-0.55501 0.56704-0.51528 0.79883-0.65302
   8  -1  -124422.76  855.64   1 0.36814 0.38948-0.77176 0.70604 0.51850-0.59143
  -8   1   124601.92  942.63   1-0.26678-0.49134 0.38897-0.32321 0.88177-0.80876
  -8   1   122728.72  786.24   1-0.26040-0.49756 0.60979-0.54404 0.74855-0.67560
   8  -1   058312.70 1757.99   1 0.29735 0.46223-0.82644 0.74683 0.47809-0.47809
  -8   1   060467.95 1883.29   1-0.34678-0.41332 0.35726-0.27758 0.86723-0.86723
  -8   1   057139.08 1729.89   1-0.31634-0.44357 0.64675-0.56710 0.69399-0.69399
   8  -1   151504.07 1624.30   1 0.24151 0.52001-0.86279 0.76928 0.44412-0.37119
  -8   1  -150735.05 1624.12   1-0.43190-0.33019 0.31915-0.22556 0.84355-0.91656
  -8   1  -149944.45 1544.52   1-0.36791-0.39396 0.67773-0.58417 0.63664-0.70959
   8  -1   249890.16 1381.57   1 0.19875 0.56470-0.88689 0.77947 0.41702-0.27115
  -8   1  -248185.57 1366.76   1-0.51950-0.24473 0.27419-0.16661 0.80927-0.95516
  -8   1  -247353.47 1333.00   1-0.41485-0.34898 0.70298-0.59551 0.57767-0.72358
   8  -1   330750.08 1196.91   1 0.16716 0.59822-0.90271 0.78139 0.39642-0.17761
  -8   1  -330558.46 1199.94   1-0.60646-0.15976 0.22357-0.10203 0.76303-0.98186
  -8   1  -326282.25 2055.73   1-0.45725-0.30835 0.72285-0.60148 0.51806-0.73697
   8  -1   429066.26 1523.18   1 0.14503 0.62228-0.91283 0.77760 0.38170-0.08995
  -8   1  -426259.08 1317.80   1-0.68958-0.07826 0.16753-0.03210 0.70455-0.99641
  -8   1  -424627.30 1882.87   1-0.49533-0.27222 0.73806-0.60278 0.45815-0.75003
   8  -1   533503.42 1199.52   1 0.13120 0.63842-0.91855 0.76964 0.37287-0.00819
  -8   1  -534520.61 1076.28   1-0.76559-0.00426 0.10745 0.04191 0.63428-0.99911
  -8   1  -534409.23 1134.34   1-0.52940-0.24010 0.74899-0.59980 0.39842-0.76327
   8  -1   622168.30 1379.38   1 0.12394 0.64762-0.92154 0.75876 0.36794 0.06966
  -8   1  -621409.66 1234.29   1-0.83175 0.05989 0.04465 0.11865 0.55333-0.99112
  -8   1  -617289.60 2139.48   1-0.55984-0.21199 0.75612-0.59305 0.33889-0.77674
  -8   0   7 5651.79  659.56   1 0.00587-0.73409 0.47071-0.56826 0.88226-0.37173
  -8   0   6 5323.92  605.36   1-0.02335-0.70690 0.46378-0.54746 0.88564-0.44784
  -8   0   5 1026.68  507.68   1-0.06076-0.67149 0.45424-0.52398 0.88880-0.52396
  -8   0   4 9899.82  692.72   1-0.10668-0.62756 0.44157-0.49736 0.89085-0.59899
  -8   0   410159.13  602.98   1-0.12793-0.60602 0.51040-0.56616 0.85036-0.55874
   8   0  -3 2937.32  269.95   1 0.61558 0.12023-0.47456 0.51623 0.62916-0.84796
  -8   0   3 3296.08  413.04   1-0.16119-0.57504 0.42512-0.46696 0.89066-0.67176
  -8   0   3 2914.34  301.27   1-0.19483-0.54109 0.56257-0.60439 0.80345-0.58473
   8   0  -214973.56  542.51   1 0.52447 0.21326-0.60850 0.63628 0.59552-0.74139
  -8   0   214131.06 1842.36   1-0.22403-0.51419 0.40423-0.43212 0.88679-0.74085
  -8   0   214627.70 1864.83   1-0.25863-0.47946 0.60857-0.63639 0.75016-0.60425
   8   0  -139563.43 1270.36   1 0.44173 0.29799-0.70312 0.71701 0.55720-0.63014
  -8   0   143277.44 1480.44   1-0.29438-0.44579 0.37845-0.39237 0.87755-0.80455
  -8   0   139920.56 1275.21   1-0.31764-0.42241 0.64757-0.66148 0.69264-0.61968
   8   0   012951.38  458.44   1 0.37083 0.37083-0.76948 0.76948 0.51997-0.51997
  -8   0   0 9765.48  587.52   1-0.37108-0.37108 0.34686-0.34686 0.86138-0.86138
  -8   0   0 9207.94  320.60   1-0.37100-0.37100 0.67949-0.67949 0.63296-0.63296
   8   0   183271.21 2577.84   1 0.31251 0.43113-0.81556 0.80166 0.48701-0.41407
  -8   0  -181611.70 2561.76   1-0.45207-0.29207 0.30941-0.29549 0.83659-0.90960
  -8   0  -178924.67 2423.74   1-0.41862-0.32518 0.70477-0.69087 0.57274-0.64571
   8   0   2 8525.41  647.86   1 0.26610 0.47947-0.84749 0.81968 0.45928-0.31341
  -8   0  -2 8324.33  697.37   1-0.53477-0.21148 0.26580-0.23789 0.80209-0.94798
  -8   0  -2 8914.17  806.20   1-0.46095-0.28480 0.72446-0.69665 0.51251-0.65845
   8   0   347133.03 1367.05   1 0.23044 0.51706-0.86933 0.82762 0.43720-0.21838
  -8   0  -348660.16 1376.14   1-0.61647-0.13177 0.21726-0.17540 0.75680-0.97563
  -8   0  -343940.76 1389.95   1-0.49843-0.24927 0.73917-0.69745 0.45296-0.67187
   8   0   476853.49 2666.17   1 0.20424 0.54519-0.88397 0.82835 0.42055-0.12880
  -8   0  -475657.76 2601.62   1-0.69433-0.05558 0.16406-0.10831 0.70070-0.99256
  -8   0  -471133.46 3319.86   1-0.53162-0.21804 0.74959-0.69397 0.39430-0.68618
   8   0   5 1088.67  373.69   1 0.18625 0.56511-0.89335 0.82382 0.40893-0.04424
  -8   0  -5 1267.77  408.34   1-0.76551 0.01360 0.10751-0.03782 0.63436-0.99919
  -8   0  -5 1204.24  409.76   1-0.56106-0.19090 0.75634-0.68687 0.33637-0.70125
   8   0   6105523.5 5899.95   1 0.17539 0.57790-0.89875 0.81531 0.40183 0.03578
  -8   0  -6103750.0 5741.70   1-0.82782 0.07390 0.04876 0.03486 0.55886-0.99665
  -8   0  -6100825.7 2667.20   1-0.58706-0.16683 0.75973-0.67636 0.27956-0.71742
   8   0   723934.29 1457.24   1 0.17074 0.58448-0.90100 0.80366 0.39878 0.11178
  -8   0  -723226.34 1307.96   1-0.87957 0.12376-0.01092 0.10843 0.47563-0.98636
  -8   0  -722183.05 2280.34   1-0.61004-0.14577 0.76018-0.66292 0.22352-0.73436
  -8  -1   7 2939.14  564.47   1-0.03793-0.67237 0.46015-0.63744 0.88703-0.37626
  -8  -1   6 6753.72  647.01   1-0.06672-0.64558 0.45266-0.61601 0.88918-0.45138
  -8  -1   5  778.15  335.29   1-0.10352-0.61077 0.44248-0.59188 0.89078-0.52595
   8   1  -419842.54 1077.58   1 0.73338-0.01742-0.21124 0.34646 0.64616-0.93789
  -8  -1   418982.35 1138.72   1-0.14851-0.56777 0.42909-0.56454 0.89096-0.59910
   8   1  -3 1341.14  191.76   1 0.66320 0.05466-0.38605 0.50737 0.64118-0.85998
  -8  -1   3 1473.83  261.35   1-0.20164-0.51663 0.41192-0.53343 0.88862-0.66972
  -8  -1   3 1427.83  179.02   1-0.28923-0.42899 0.62925-0.75063 0.72137-0.50250
   8   1  -214906.57  435.25   1 0.58613 0.13368-0.52212 0.62950 0.61954-0.76540
  -8  -1   215148.04  580.49   1-0.26236-0.45787 0.39061-0.49812 0.88237-0.73636
  -8  -1   214795.68  362.39   1-0.34895-0.37123 0.66671-0.77418 0.65857-0.51266
   8   1  -1  997.60  270.84   1 0.51122 0.21060-0.62505 0.71855 0.58987-0.66281
  -8  -1   1  579.40  121.46   1-0.40072-0.32141 0.69570-0.78926 0.59616-0.52320
   8   1   0 4089.21  379.95   1 0.44340 0.28035-0.70140 0.78101 0.55804-0.55804
  -8  -1   0 4883.21  494.57   1-0.40307-0.32113 0.33260-0.41227 0.85258-0.85258
  -8  -1   0 4889.90  577.36   1-0.44531-0.27864 0.71753-0.79719 0.53556-0.53556
   8   1   130625.16 1117.19   1 0.38501 0.34067-0.75715 0.82287 0.52770-0.45476
  -8  -1  -132169.65 1206.91   1-0.47950-0.24681 0.29526-0.36098 0.82637-0.89931
  -8  -1  -131301.26 1695.98   1-0.48399-0.24192 0.73383-0.79959 0.47668-0.54965
  -8  -1  -2 1873.68  359.03   1-0.55703-0.17126 0.25320-0.30497 0.79094-0.93683
  -8  -1  -2 1044.41  156.19   1-0.51767-0.21019 0.74555-0.79740 0.41972-0.56566
   8   1   3 8076.77  677.61   1 0.29800 0.43161-0.82598 0.86387 0.47847-0.25966
  -8  -1  -3 7843.94  672.92   1-0.63313-0.09714 0.20652-0.24433 0.74597-0.96481
  -8  -1  -3 7548.46  851.64   1-0.54721-0.18260 0.75348-0.79143 0.36443-0.58334
   8   1   464791.63 1803.20   1 0.26836 0.46318-0.84603 0.87001 0.46066-0.16891
  -8  -1  -463775.63 1772.31   1-0.70537-0.02659 0.15586-0.17978 0.69148-0.98334
  -8  -1  -462825.98 2660.18   1-0.57334-0.15874 0.75828-0.78240 0.31029-0.60220
   8   1   512010.39  766.92   1 0.24682 0.48666-0.85958 0.86966 0.44742-0.08273
  -8  -1  -510640.92  962.68   1-0.77133 0.03735 0.10246-0.11244 0.62813-0.99295
  -8  -1  -510333.45 1395.85   1-0.59639-0.13762 0.76024-0.77047 0.25756-0.62244
   8   1   612147.59  942.61   1 0.23248 0.50293-0.86815 0.86432 0.43847-0.00085
  -8  -1  -612953.59  887.35   1-0.82922 0.09324 0.04730-0.04334 0.55690-0.99469
  -8  -1  -614936.71 1841.68   1-0.61682-0.11911 0.75974-0.75607 0.20569-0.64355
  -8  -1  -717146.47  845.29   1-0.87772 0.13984-0.00853 0.02638 0.47908-0.98982
  -8  -1  -718539.99 1895.38   1-0.63490-0.10296 0.75698-0.73941 0.15449-0.66532
  -8  -2   7 9015.86  693.67   1-0.09095-0.60140 0.44603-0.70299 0.89038-0.37961
  -8  -2   643755.03 1767.65   1-0.11916-0.57518 0.43794-0.68096 0.89106-0.45327
   8   2  -5 1639.08  212.35   1 0.78776-0.09190 0.04664 0.18225 0.61421-0.97894
  -8  -2   5 2071.35  377.80   1-0.15516-0.54117 0.42702-0.65609 0.89082-0.52599
   8   2  -470192.82 1760.06   1 0.75422-0.05644-0.13920 0.35417 0.64168-0.93347
  -8  -2   467025.94 1834.97   1-0.19898-0.49934 0.41281-0.62794 0.88881-0.59694
   8   2  -314557.68 1846.93   1 0.70131-0.00135-0.30021 0.50116 0.64654-0.86535
  -8  -2   315678.20  796.20   1-0.25027-0.45002 0.39505-0.59615 0.88390-0.66488
   8   2  -2 7039.18  286.30   1 0.63865 0.06325-0.43368 0.62067 0.63564-0.78150
  -8  -2   2 6433.45  474.95   1-0.30870-0.39358 0.37282-0.56000 0.87504-0.72902
   8   2  -120105.55 1131.40   1 0.57373 0.13009-0.54082 0.71392 0.61509-0.68802
  -8  -2   116051.25 1000.68   1-0.37310-0.33116 0.34598-0.51924 0.86086-0.78785
  -8  -2   120399.63  702.32   1-0.51685-0.18726 0.74529-0.91852 0.42117-0.34820
   8   2   0 4111.84  375.55   1 0.51173 0.19413-0.62442 0.78364 0.59010-0.59010
  -8  -2   0 3694.05  431.69   1-0.44201-0.26423 0.31431-0.47365 0.84013-0.84013
  -8  -2   0 3594.30  398.05   1-0.54068-0.16539 0.75194-0.91126 0.37714-0.37714
   8   2   157939.05 1914.33   1 0.45579 0.25200-0.68846 0.83378 0.56415-0.49121
  -8  -2  -158586.44 1983.21   1-0.51342-0.19491 0.27747-0.42287 0.81203-0.88497
  -8  -2  -160343.47 1935.59   1-0.56261-0.14572 0.75662-0.90212 0.33314-0.40612
   8   2   2  452.39  243.83   1 0.40752 0.30220-0.73665 0.86809 0.53968-0.39380
  -8  -2  -2  775.40  406.20   1-0.58534-0.12497 0.23652-0.36796 0.77551-0.92140
  -8  -2  -2  227.22  109.58   1-0.58257-0.12769 0.75934-0.89095 0.28981-0.43576
   8   2   3 4850.52  507.83   1 0.36744 0.34421-0.77236 0.88990 0.51811-0.29929
  -8  -2  -3 3718.57  456.37   1-0.65548-0.05682 0.19160-0.30908 0.73050-0.94933
  -8  -2  -3 5891.56  872.17   1-0.60092-0.11127 0.76033-0.87805 0.24652-0.46544
   8   2   4 3324.31  594.22   1 0.33536 0.37829-0.79831 0.90190 0.50022-0.20847
  -8  -2  -4 2978.87  488.54   1-0.72175 0.00772 0.14334-0.24693 0.67714-0.96900
  -8  -2  -4 3758.12  643.66   1-0.61776-0.09637 0.75966-0.86348 0.20318-0.49508
   8   2   5  466.07  350.33   1 0.31096 0.40463-0.81669 0.90638 0.48611-0.12142
  -8  -2  -5  999.16  449.73   1-0.78213 0.06609 0.09286-0.18252 0.61615-0.98097
  -8  -2  -5  592.18  205.80   1-0.63315-0.08291 0.75736-0.84728 0.15973-0.52461
   8   2   6 4906.67  762.15   1 0.29356 0.42396-0.82909 0.90487 0.47583-0.03821
  -8  -2  -6 3075.44  500.25   1-0.83517 0.11721 0.04102-0.11677 0.54844-0.98621
  -8  -2  -6 3371.43  843.60   1-0.64720-0.07082 0.75341-0.82947 0.11614-0.55403
   8   2   7 5177.26  670.43   1 0.28251 0.43694-0.83666 0.89853 0.46922 0.04133
  -8  -2  -7 4961.74  512.24   1-0.87985 0.15990-0.01129-0.05052 0.47510-0.98583
  -8  -2  -7 5534.34  750.42   1-0.65981-0.06015 0.74793-0.81010 0.07232-0.58318
  -8  -3   7  313.43  337.06   1-0.15335-0.52104 0.42758-0.76422 0.89086-0.38010
  -8  -3   647724.25 1460.08   1-0.18070-0.49569 0.41886-0.74155 0.88988-0.45208
   8   3  -5 5463.47  604.56   1 0.79149-0.11358 0.09013 0.21839 0.60449-0.96922
  -8  -3   5 6470.61  720.64   1-0.21554-0.46284 0.40718-0.71592 0.88754-0.52271
   8   3  -4 4643.92  646.94   1 0.76970-0.08987-0.07171 0.36631 0.63435-0.92614
  -8  -3   4 3332.76  623.89   1-0.25762-0.42274 0.39236-0.68705 0.88299-0.59096
   8   3  -345035.46 1374.99   1 0.73105-0.04900-0.21844 0.49901 0.64640-0.86520
  -8  -3   346157.40 1553.71   1-0.30682-0.37552 0.37357-0.65434 0.87538-0.65636
   8   3  -222045.30  830.79   1 0.68188 0.00208-0.34606 0.61273 0.64441-0.79028
  -8  -3   219549.74 1396.33   1-0.36225-0.32207 0.35068-0.61753 0.86359-0.71757
   8   3  -161707.49 1933.69   1 0.62773 0.05817-0.45347 0.70618 0.63270-0.70563
  -8  -3   159898.24 1993.05   1-0.42280-0.26350 0.32346-0.57639 0.84652-0.77351
   8   3   0 1305.86  328.18   1 0.57334 0.11448-0.54139 0.78020 0.61495-0.61495
  -8  -3   0 1029.70  329.28   1-0.48689-0.20149 0.29146-0.53048 0.82339-0.82339
  -8  -3   0  478.57  123.96   1-0.64739-0.04107 0.75338-0.99248 0.11530-0.11530
   8   3   131856.25 1167.46   1 0.52200 0.16774-0.61164 0.83657 0.59447-0.52153
  -8  -3  -131785.51 1227.51   1-0.55285-0.13751 0.25560-0.48067 0.79310-0.86604
  -8  -3  -129817.19 1010.97   1-0.64486-0.04552 0.75424-0.97944 0.12352-0.19650
   8   3   235601.56 1252.22   1 0.47584 0.21598-0.66659 0.87764 0.57377-0.42789
  -8  -3  -235843.10 1267.45   1-0.61871-0.07363 0.21583-0.42694 0.75538-0.90127
  -8  -3  -236596.13 1222.12   1-0.64775-0.04457 0.75325-0.96456 0.11411-0.26006
   8   3   3 9472.90  782.00   1 0.43602 0.25773-0.70893 0.90608 0.55434-0.33552
  -8  -3  -3 8915.54  677.19   1-0.68257-0.01151 0.17260-0.36981 0.71014-0.92903
  -8  -3  -3 9573.76 1128.83   1-0.65335-0.04089 0.75101-0.94842 0.09540-0.31434
   8   3   425824.68  930.18   1 0.40299 0.29269-0.74087 0.92413 0.53730-0.24555
  -8  -3  -427179.31  968.73   1-0.74251 0.04642 0.12680-0.31007 0.65771-0.94957
  -8  -3  -425096.04 2274.81   1-0.66024-0.03594 0.74770-0.93122 0.07073-0.36265
   8   3   5 8218.89  727.60   1 0.37676 0.32086-0.76438 0.93376 0.52322-0.15853
  -8  -3  -5 7167.90  709.25   1-0.79701 0.09892 0.07916-0.24849 0.59874-0.96356
  -8  -3  -5 7795.88 1186.84   1-0.66767-0.03047 0.74325-0.91289 0.04215-0.40706
   8   3   623360.44 1056.10   1 0.35703 0.34252-0.78104 0.93653 0.51233-0.07470
  -8  -3  -623120.15 1073.19   1-0.84489 0.14485 0.03048-0.18589 0.53406-0.97183
  -8  -3  -619036.34 2572.16   1-0.67513-0.02495 0.73761-0.89336 0.01076-0.44864
   8   3   7  190.78  320.74   1 0.34340 0.35808-0.79207 0.93366 0.50467 0.00589
  -8  -3  -7  667.68  315.20   1-0.88532 0.18330-0.01850-0.12297 0.46459-0.97533
  -8  -3  -7  744.86  309.58   1-0.68230-0.01973 0.73071-0.87257-0.02277-0.48808
   8   3   8 3116.39  573.75   1 0.33524 0.36825-0.79840 0.92598 0.50015 0.08334
  -8  -4   6  862.06  470.69   1-0.25095-0.40749 0.39480-0.79701 0.88382-0.44578
   8   4  -544463.90 2064.08   1 0.79397-0.13399 0.13360 0.25435 0.59308-0.95778
  -8  -4   550342.50 1979.45   1-0.28410-0.37632 0.38242-0.77070 0.87922-0.51419
   8   4  -4  817.90  236.76   1 0.78087-0.11899-0.00788 0.38211 0.62463-0.91642
  -8  -4   4  475.03  300.12   1-0.32410-0.33830 0.36663-0.74100 0.87208-0.58005
   8   4  -336772.16 1038.96   1 0.75380-0.08998-0.14085 0.50114 0.64182-0.86066
  -8  -4   338265.66 1202.54   1-0.37039-0.29399 0.34716-0.70761 0.86155-0.64253
   8   4  -2 1249.25  273.43   1 0.71638-0.05032-0.26089 0.60719 0.64709-0.79296
  -8  -4   2 1429.32  465.20   1-0.42212-0.24425 0.32378-0.67031 0.84674-0.70072
   8   4  -127028.14  969.49   1 0.67289-0.00491-0.36576 0.69816 0.64298-0.71592
  -8  -4   127943.12 1107.64   1-0.47811-0.19024 0.29639-0.62899 0.82677-0.75377
   8   4   0102681.4 3136.09   1 0.62688 0.04302-0.45496 0.77339 0.63246-0.63246
  -8  -4   0102673.5 3187.59   1-0.53678-0.13364 0.26468-0.58337 0.80112-0.80112
   8   4   1 9235.25  403.19   1 0.58161 0.09021-0.52902 0.83356 0.61794-0.54501
  -8  -4  -1 8587.98  463.51   1-0.59669-0.07570 0.22962-0.53436 0.76891-0.84185
   8   4   262338.53 1998.09   1 0.53926 0.13449-0.58920 0.87984 0.60169-0.45582
  -8  -4  -258021.85 1897.16   1-0.65605-0.01833 0.19121-0.48200 0.73008-0.87597
   8   4   322140.96  865.10   1 0.50133 0.17452-0.63706 0.91383 0.58549-0.36668
  -8  -4  -323493.60  908.17   1-0.71324 0.03710 0.14990-0.42678 0.68469-0.90359
  -8  -4  -322059.32  826.32   1-0.69408 0.01776 0.71431-0.99141-0.08940-0.12953
   8   4   489238.49 2337.93   1 0.46873 0.20906-0.67448 0.93736 0.57039-0.27864
  -8  -4  -495031.18 2453.93   1-0.69356 0.01529 0.71524-0.97845-0.08600-0.20591
  -8  -4  -511056.84  890.31   1-0.81507 0.13492 0.06170-0.31071 0.57605-0.94087
  -8  -4  -511687.85  847.21   1-0.69474 0.01452 0.71311-0.96243-0.09378-0.27111
   8   4   634357.94 1450.50   1 0.42069 0.26096-0.72409 0.95918 0.54653-0.10890
  -8  -4  -632653.97 1349.40   1-0.85755 0.17544 0.01610-0.25118 0.51413-0.95190
   8   4   721607.68 1098.83   1 0.40517 0.27841-0.73885 0.96005 0.53845-0.02788
   8   5  -6  518.44  205.13   1 0.78621-0.14620 0.30724 0.17422 0.53615-0.97379
  -8  -5   6 1350.01  412.39   1-0.32976-0.31072 0.36432-0.84620 0.87093-0.43288
   8   5  -512197.17 1269.86   1 0.79452-0.15250 0.17852 0.28903 0.58039-0.94509
  -8  -5   514161.90  714.69   1-0.36043-0.28203 0.35146-0.81942 0.86403-0.49900
   8   5  -4 2951.84  477.28   1 0.78840-0.14446 0.05296 0.40088 0.61287-0.90466
  -8  -5   4 1915.44  388.78   1-0.39738-0.24706 0.33518-0.78922 0.85424-0.56221
   8   5  -343454.50 1542.65   1 0.77055-0.12468-0.06749 0.50741 0.63379-0.85263
  -8  -5   343723.23 1645.45   1-0.43993-0.20650 0.31531-0.75543 0.84085-0.62183
   8   5  -231434.82  948.86   1 0.74321-0.09506-0.17912 0.60504 0.64462-0.79049
  -8  -5   231112.38 1006.55   1-0.48706-0.16142 0.29137-0.71765 0.82332-0.67743
   8   5  -1  460.66  221.47   1 0.70943-0.05937-0.27950 0.69152 0.64697-0.71991
  -8  -5   1  304.60  299.57   1-0.53767-0.11279 0.26418-0.67650 0.80069-0.72774
   8   5   044959.19 1430.24   1 0.67202-0.02004-0.36761 0.76573 0.64283-0.64283
  -8  -5   043194.31 1431.14   1-0.59039-0.06205 0.23347-0.63183 0.77261-0.77261
   8   5   111841.95  893.96   1 0.63346 0.02045-0.44319 0.82733 0.63427-0.56134
  -8  -5  -114119.33 1847.50   1-0.64373-0.01070 0.19952-0.58393 0.73878-0.81172
   8   5   225139.28  916.93   1 0.59608 0.05974-0.50657 0.87682 0.62294-0.47707
  -8  -5  -226148.17  982.39   1-0.69624 0.04004 0.16266-0.53316 0.69913-0.84506
   8   5   319739.19 1193.19   1 0.56141 0.09633-0.55868 0.91504 0.61047-0.39167
  -8  -5  -319351.25 1180.32   1-0.74646 0.08826 0.12357-0.48013 0.65385-0.87274
   8   5   320928.01 1146.05   1 0.70961-0.05101-0.63907 0.99566 0.29670-0.07777
   8   5   4 5913.44  644.93   1 0.53056 0.12910-0.60064 0.94311 0.59809-0.30636
  -8  -5  -4 6825.36  721.42   1-0.79318 0.13297 0.08275-0.42537 0.60333-0.89519
   8   5   542467.06 2078.51   1 0.50421 0.15762-0.63361 0.96220 0.58677-0.22208
  -8  -5  -544957.92 2191.61   1-0.83538 0.17318 0.04080-0.36947 0.54814-0.91295
   8   5   6 7403.31  714.59   1 0.48270 0.18105-0.65884 0.97354 0.57698-0.13935
  -8  -5  -6 8939.02  804.40   1-0.87234 0.20816-0.00172-0.31301 0.48888-0.92665
   8   5   751978.48 2198.30   1 0.46614 0.19955-0.67732 0.97813 0.56915-0.05858
  -8  -5  -750835.42 2136.96   1-0.90353 0.23736-0.04433-0.25647 0.42621-0.93695
   8   6  -5 8402.62 1218.18   1 0.79331-0.16926 0.22361 0.32353 0.56625-0.93095
  -8  -6   510281.68 1167.15   1-0.44330-0.18121 0.31368-0.86131 0.83969-0.47465
   8   6  -4  658.50  236.25   1 0.79303-0.16697 0.11064 0.42260 0.59904-0.89080
  -8  -6   4  651.46  294.92   1-0.47622-0.15027 0.29735-0.83106 0.82752-0.53549
   8   6  -318287.11 1179.74   1 0.78232-0.15441 0.00216 0.51739 0.62286-0.84170
  -8  -6   318606.93 1257.82   1-0.51401-0.11452 0.27716-0.79706 0.81177-0.59293
   8   6  -210067.03  889.22   1 0.76349-0.13365-0.10085 0.60647 0.63789-0.78378
  -8  -6   2 9956.86  951.10   1-0.55574-0.07477 0.25395-0.75989 0.79161-0.64572
   8   6  -1  740.92  270.79   1 0.73822-0.10606-0.19580 0.68744 0.64551-0.71844
  -8  -6   1   81.34  266.48   1-0.60027-0.03222 0.22741-0.71941 0.76678-0.69383
  -8  -6   0 2092.58  500.07   1-0.64634 0.01186 0.19777-0.67581 0.73697-0.73697
   8   6   1 1962.10  406.72   1 0.67730-0.04131-0.35621 0.82005 0.64372-0.57078
  -8  -6  -1 1576.68  389.34   1-0.69266 0.05641 0.16529-0.62940 0.70206-0.77502
   8   6   2 7268.29  661.91   1 0.64541-0.00749-0.42100 0.87086 0.63733-0.49146
  -8  -6  -2 7131.89  579.98   1-0.73798 0.09972 0.13048-0.58066 0.66208-0.80801
   8   6   354338.42 1938.16   1 0.61491 0.02492-0.47570 0.91167 0.62895-0.41015
  -8  -6  -354399.79 1989.33   1-0.78111 0.14084 0.09378-0.53002 0.61730-0.83620
  -8  -6  -4 2075.21  318.17   1-0.82106 0.17879 0.05569-0.47799 0.56811-0.85997
   8   6   4 3085.65  351.19   1 0.69902-0.05649-0.56537 0.98767 0.43785-0.14596
   8   6   5 6068.55  608.25   1 0.56216 0.08151-0.55762 0.96581 0.61076-0.24609
  -8  -6  -5 5470.28  646.45   1-0.85703 0.21276 0.01672-0.42505 0.51499-0.87980
   8   6   5 5981.77  486.96   1 0.70433-0.05981-0.58937 0.99773 0.39566-0.03079
   8   6   6  822.40  439.60   1 0.54129 0.10429-0.58647 0.98077 0.60252-0.16492
  -8  -6  -6  536.00  312.12   1-0.88843 0.24218-0.02270-0.37169 0.45843-0.89620
   8   6   6  336.80  227.89   1 0.70592-0.05927-0.60175 0.99617 0.37358 0.06428
   8   6   7 7187.37  930.44   1 0.52459 0.12292-0.60835 0.98876 0.59557-0.08503
   8   7  -4  190.87  194.46   1 0.79454-0.18645 0.16708 0.44576 0.58376-0.87551
  -8  -7   4  802.37  299.91   1-0.55892-0.04965 0.25211-0.86564 0.78996-0.49818
   8   7  -321913.14 1021.43   1 0.78983-0.17987 0.06856 0.53061 0.60946-0.82830
  -8  -7   323469.88 1096.89   1-0.59100-0.01955 0.23309-0.83267 0.77225-0.55341
   8   7  -2 7974.72  644.17   1 0.77800-0.16611-0.02626 0.61151 0.62770-0.77360
  -8  -7   2 7812.57  685.00   1-0.62646 0.01391 0.21086-0.79648 0.75038-0.60450
   8   7  -1 7099.68  575.81   1 0.76020-0.14638-0.11505 0.68637 0.63941-0.71236
  -8  -7   1 8065.14  712.52   1-0.66420 0.04967 0.18561-0.75728 0.72414-0.65119
   8   7   012602.35  829.51   1 0.73798-0.12182-0.19656 0.75393 0.64554-0.64554
  -8  -7   010263.78  948.68   1-0.70310 0.08679 0.15756-0.71529 0.69341-0.69341
   8   7   1 9623.86  909.49   1 0.71311-0.09503-0.26975 0.81322 0.64706-0.57413
  -8  -7  -1 8018.23  773.67   1-0.74208 0.12376 0.12715-0.67094 0.65813-0.73110
   8   7   220498.20 1101.52   1 0.68707-0.06708-0.33428 0.86385 0.64512-0.49925
  -8  -7  -221757.07 1164.44   1-0.78004 0.15972 0.09474-0.62459 0.61850-0.76443
   8   7   3  564.17  344.38   1 0.66123-0.03932-0.39007 0.90575 0.64078-0.42198
  -8  -7  -3  470.29  293.35   1-0.81604 0.19372 0.06074-0.57666 0.57478-0.79368
   8   7   4 1437.59  434.86   1 0.63662-0.01278-0.43742 0.93911 0.63511-0.34337
  -8  -7  -4 1776.44  507.18   1-0.84925 0.22489 0.02562-0.52754 0.52736-0.81921
   8   7   5  466.30  291.22   1 0.61436 0.01139-0.47662 0.96442 0.62879-0.26412
  -8  -7  -5  939.39  346.48   1-0.87907 0.25274-0.01028-0.47771 0.47656-0.84137
   8   7   628803.44 1670.95   1 0.59500 0.03267-0.50829 0.98219 0.62258-0.18497
  -8  -7  -628632.55 1680.28   1-0.90499 0.27667-0.04655-0.42751 0.42285-0.86063
   8   7   629003.54 1587.40   1 0.68630-0.05774-0.52186 0.99596 0.50659-0.06875
   8   8  -216727.93 1060.03   1 0.78759-0.19364 0.04501 0.61985 0.61455-0.76044
  -8  -8   217639.28 1078.86   1-0.69723 0.10286 0.16193-0.82721 0.69831-0.55238
   8   8  -1 2243.30  392.59   1 0.77609-0.18022-0.03759 0.68854 0.62949-0.70243
  -8  -8   1 2540.30  395.88   1-0.72765 0.13129 0.13871-0.79006 0.67176-0.59880
   8   8   015980.44  667.64   1 0.76033-0.16253-0.11451 0.75153 0.63935-0.63935
  -8  -8   019229.38  818.60   1-0.75907 0.16070 0.11302-0.75043 0.64111-0.64111
   8   8   1 9411.79  584.36   1 0.74152-0.14135-0.18487 0.80796 0.64495-0.57201
  -8  -8  -1 8094.99  622.11   1-0.79053 0.19015 0.08520-0.70867 0.60646-0.67942
   8   8   2 1687.04  351.32   1 0.72103-0.11894-0.24795 0.85714 0.64701-0.50114
  -8  -8  -2 2076.89  431.19   1-0.82113 0.21875 0.05562-0.66515 0.56801-0.71394
  -8  -8  -3 6657.12  766.83   1-0.85007 0.24563 0.02470-0.62022 0.52608-0.74497
   8   8   4  503.89  322.50   1 0.67939-0.07348-0.35159 0.93299 0.64404-0.35230
   8   8   530377.70 1751.06   1 0.66015-0.05232-0.39226 0.95976 0.64056-0.27588
  -8  -8  -532045.68 1826.23   1-0.90060 0.29219-0.03997-0.52769 0.43278-0.79759
   8   9   0  372.18  278.65   1 0.77648-0.19663-0.03535 0.75200 0.62914-0.62914
  -8  -9   0  355.12  267.56   1-0.81252 0.23209 0.06423-0.78131 0.57937-0.57937
   8   9   146519.74 2514.65   1 0.76320-0.18143-0.10211 0.80483 0.63803-0.56508
  -8  -9  -146442.38 2499.40   1-0.83643 0.25390 0.03968-0.74273 0.54662-0.61958
   8   9   211306.71 1321.35   1 0.74787-0.16417-0.16291 0.85170 0.64353-0.49764
  -8  -9  -2 8356.10  979.01   1-0.85987 0.27535 0.01339-0.70250 0.51032-0.65624
   8   9   329111.24 2630.76   1 0.73142-0.14533-0.21730 0.89222 0.64636-0.42756
  -8  -9  -325274.78 2296.82   1-0.88209 0.29558-0.01421-0.66097 0.47085-0.68974
  -9   3   2  886.37  310.53   1-0.23841-0.64646 0.39915-0.18804 0.88534-0.73941
  -9   3   2  371.28  242.92   1-0.21187-0.67251 0.57523-0.36420 0.79007-0.64426
  -9   3   1 5460.41  753.80   1-0.30825-0.57855 0.37300-0.14790 0.87512-0.80211
  -9   3   1 3385.50  440.92   1-0.25861-0.62792 0.60856-0.38350 0.75017-0.67722
   9  -3   019552.24 1735.04   1 0.24464 0.64344-0.86091 0.62209 0.44607-0.44607
  -9   3   021577.76 1949.13   1-0.38489-0.50390 0.34079-0.10177 0.85774-0.85774
  -9   3   022457.21 2024.18   1-0.30447-0.58402 0.63918-0.40022 0.70621-0.70621
  -9   2   4 1273.37  535.03   1-0.13360-0.72933 0.43364-0.33009 0.89112-0.59925
  -9   2   4  724.53  227.93   1-0.13941-0.72311 0.51962-0.41611 0.84294-0.55131
  -9   2   3 1311.52  427.06   1-0.18635-0.67857 0.41701-0.29951 0.88958-0.67069
  -9   2   3 1106.49  308.57   1-0.18753-0.67696 0.55706-0.43961 0.80901-0.59029
  -9   2   230265.10 1351.45   1-0.24662-0.62025 0.39637-0.26487 0.88434-0.73832
  -9   2   229784.80 1284.34   1-0.23600-0.63047 0.59270-0.46130 0.77007-0.62425
   9  -2  -1 1037.87  220.39   1 0.36270 0.50553-0.77634 0.63102 0.51549-0.58842
  -9   2   1 2213.78  601.95   1-0.31419-0.55466 0.37063-0.22521 0.87402-0.80101
  -9   2   1 1039.92  211.35   1-0.28379-0.58484 0.62564-0.48024 0.72665-0.65370
   9  -2   010842.18  573.80   1 0.29862 0.57157-0.82555 0.66633 0.47884-0.47884
  -9   2   010752.54  617.63   1-0.38788-0.48295 0.33945-0.18011 0.85692-0.85692
  -9   2   011587.33  640.45   1-0.32996-0.54062 0.65524-0.49593 0.67954-0.67954
  -9   2  -1 2086.12  364.81   1-0.46617-0.40665 0.30242-0.12916 0.83139-0.90440
  -9   2  -1 1351.67  254.44   1-0.37392-0.49861 0.68113-0.50792 0.62946-0.70242
   9  -2   214624.15 1585.93   1 0.20993 0.66413-0.88090 0.69387 0.42419-0.27832
  -9   2  -214837.66 1892.48   1-0.41527-0.45923 0.70319-0.51606 0.57712-0.72303
  -9   1   521324.58 1349.46   1-0.10972-0.73326 0.44069-0.43076 0.89092-0.52609
  -9   1   4 1503.53  378.06   1-0.15343-0.69154 0.42756-0.40368 0.89086-0.59900
  -9   1   340774.37 1291.79   1-0.20465-0.64231 0.41090-0.37307 0.88841-0.66951
   9  -1  -2  227.95  148.20   1 0.49985 0.34854-0.63883 0.58700 0.58483-0.73070
  -9   1   2  958.62  417.73   1-0.26301-0.58590 0.39037-0.33854 0.88228-0.73627
  -9   1   2  197.57  150.61   1-0.27419-0.57456 0.61921-0.56737 0.73579-0.58988
   9  -1  -1 3392.34  551.29   1 0.42189 0.42843-0.72292 0.65721 0.54715-0.62009
  -9   1   1 2999.87  549.03   1-0.32816-0.52273 0.36498-0.29922 0.87126-0.79825
  -9   1   1 2556.33  407.71   1-0.32175-0.52896 0.65015-0.58440 0.68831-0.61535
   9  -1   0 2994.41  463.44   1 0.35688 0.49538-0.78117 0.70156 0.51225-0.51225
  -9   1   0 3364.23  637.87   1-0.39891-0.45396 0.33449-0.25482 0.85380-0.85380
  -9   1   0 3514.36  577.17   1-0.36680-0.48587 0.67710-0.59744 0.63795-0.63795
   9  -1   1  546.65  233.20   1 0.30425 0.54999-0.82154 0.72803 0.48216-0.40923
  -9   1  -1  460.39  267.06   1-0.47373-0.38113 0.29861-0.20502 0.82849-0.90150
  -9   1  -1  791.48  283.48   1-0.40890-0.44572 0.69995-0.60639 0.58553-0.65849
   9  -1   2 6510.65  686.95   1 0.26275 0.59342-0.84964 0.74222 0.45724-0.31136
  -9   1  -2 6656.27  699.62   1-0.55063-0.30638 0.25687-0.14929 0.79423-0.94012
  -9   1  -2 4319.74  622.29   1-0.44782-0.40855 0.71867-0.61120 0.53193-0.67786
   9  -1   3 7530.20  577.49   1 0.23108 0.62702-0.86896 0.74764 0.43760-0.21878
  -9   1  -3 6953.69 1137.24   1-0.62724-0.23176 0.21035-0.08882 0.74987-0.96870
  -9   1  -3 6377.65  730.88   1-0.48363-0.37470 0.73370-0.61232 0.47726-0.69617
   9  -1   4 1812.07  514.84   1 0.20798 0.65205-0.88196 0.74673 0.42295-0.13120
  -9   1  -4 1018.54  373.28   1-0.70113-0.15945 0.15903-0.02360 0.69506-0.98692
  -9   1  -4  499.60  270.62   1-0.51633-0.34395 0.74513-0.60985 0.42210-0.71398
  -9   0   537162.60 2054.56   1-0.13860-0.68642 0.43213-0.50186 0.89109-0.52626
  -9   0   416575.97  733.80   1-0.18109-0.64592 0.41874-0.47452 0.88986-0.59800
   9   0  -268415.96 2482.25   1 0.55426 0.27617-0.56875 0.59653 0.60770-0.75357
  -9   0   270170.64 2654.87   1-0.28714-0.54382 0.38125-0.40909 0.87874-0.73273
   9   0  -115772.48  834.89   1 0.48104 0.35139-0.66074 0.67463 0.57620-0.64914
  -9   0   114841.01  858.51   1-0.34978-0.48316 0.35599-0.36991 0.86655-0.79354
  -9   0   116287.91  859.15   1-0.37621-0.45659 0.68241-0.69632 0.62671-0.55376
   9   0   065378.12 3058.83   1 0.41718 0.41718-0.72748 0.72748 0.54472-0.54472
  -9   0   068886.58 3276.22   1-0.41746-0.41746 0.32596-0.32596 0.84821-0.84821
  -9   0   060558.09 3549.00   1-0.41729-0.41729 0.70411-0.70411 0.57453-0.57453
  -9   0  -1  882.35  333.58   1-0.48867-0.34839 0.29054-0.27658 0.82266-0.89561
  -9   0  -1 1537.16  307.59   1-0.45504-0.38149 0.72189-0.70798 0.52134-0.59431
   9   0   231303.97 1286.55   1 0.31992 0.51836-0.81008 0.78227 0.49133-0.34545
  -9   0  -233259.32 1388.88   1-0.56145-0.27759 0.25065-0.22274 0.78862-0.93451
  -9   0  -230522.96 2252.15   1-0.48943-0.34906 0.73590-0.70808 0.46787-0.61381
   9   0   3 7891.42  658.31   1 0.28552 0.55469-0.83462 0.79290 0.47103-0.25222
  -9   0  -3 8812.95  569.89   1-0.63376-0.20727 0.20611-0.16424 0.74556-0.96439
  -9   0  -3 6476.72 1001.15   1-0.52065-0.31979 0.74645-0.70474 0.41439-0.63330
   9   0   4 5846.76  583.15   1 0.25948 0.58266-0.85171 0.79609 0.45523-0.16348
  -9   0  -4 5914.24  567.96   1-0.70338-0.13926 0.15735-0.10160 0.69316-0.98502
  -9   0  -4 5685.97  673.85   1-0.54892-0.29347 0.75387-0.69825 0.36105-0.65293
   9   0   5 6053.91  681.58   1 0.24087 0.60321-0.86318 0.79365 0.44372-0.07903
  -9   0  -5 4843.89  558.20   1-0.76810-0.07654 0.10527-0.03558 0.63160-0.99643
  -9   0  -5 6053.18  793.84   1-0.57455-0.27020 0.75844-0.68896 0.30766-0.67254
  -9  -1   5 1435.12  362.63   1-0.17530-0.63176 0.42062-0.57002 0.89013-0.52530
   9   1  -3 8505.30  582.41   1 0.67235 0.13820-0.36690 0.48823 0.64289-0.86170
  -9  -1   3 8849.09  707.77   1-0.26433-0.54669 0.38988-0.51131 0.88211-0.66308
   9   1  -260628.72 2819.70   1 0.60401 0.20850-0.49381 0.60120 0.62554-0.77141
  -9  -1   258759.77 2811.82   1-0.31868-0.49432 0.36883-0.47634 0.87315-0.72714
   9   1  -1 5750.01  550.55   1 0.53757 0.27687-0.59145 0.68494 0.60100-0.67393
  -9  -1   1 6933.43  787.47   1-0.37860-0.43638 0.34357-0.43716 0.85942-0.78641
   9   1   069583.51 3242.83   1 0.47698 0.33948-0.66532 0.74492 0.57430-0.57430
  -9  -1   074250.88 3503.85   1-0.44297-0.37399 0.31384-0.39351 0.83980-0.83980
  -9  -1   069604.42 3227.97   1-0.48380-0.33289 0.73376-0.81342 0.47698-0.47698
   9   1   131534.16 1555.27   1 0.42410 0.39429-0.72077 0.78649 0.54828-0.47534
  -9  -1  -131919.66 1642.69   1-0.51027-0.30882 0.27916-0.34488 0.81343-0.88638
  -9  -1  -128292.05 1412.24   1-0.51311-0.30553 0.74411-0.80987 0.42778-0.50075
   9   1   211308.05  748.12   1 0.37959 0.44073-0.76192 0.81375 0.52476-0.37889
  -9  -1  -211343.93  721.05   1-0.57875-0.24233 0.24048-0.29224 0.77924-0.92512
  -9  -1  -211125.30 1687.37   1-0.53979-0.28081 0.75172-0.80357 0.37885-0.52479
   9   1   332669.05 1320.56   1 0.34337 0.47889-0.79209 0.83003 0.50465-0.28584
  -9  -1  -331680.97 1355.73   1-0.64649-0.17657 0.19767-0.23549 0.73686-0.95570
  -9  -1  -332073.84 1386.87   1-0.56418-0.25875 0.75689-0.79490 0.32986-0.54878
   9   1   4 7983.33  777.96   1 0.31491 0.50935-0.81380 0.83778 0.48841-0.19666
  -9  -1  -4 6182.15  640.46   1-0.71156-0.11314 0.15118-0.17510 0.68616-0.97802
  -9  -1  -4 6720.73 1066.16   1-0.58624-0.23862 0.75967-0.78379 0.28144-0.57334
   9   1   524272.38 1415.28   1 0.29368 0.53250-0.82900 0.83908 0.47591-0.11122
  -9  -1  -519609.01 1152.00   1-0.77201-0.05470 0.10186-0.11185 0.62739-0.99221
  -9  -1  -519149.03 2252.07   1-0.60627-0.22052 0.76030-0.77052 0.23315-0.59803
  -9  -2   5 4333.33  572.94   1-0.21975-0.56936 0.40572-0.63479 0.88718-0.52235
  -9  -2   4 8866.20  683.93   1-0.25927-0.53181 0.39175-0.60677 0.88278-0.59075
   9   2  -319374.34 1180.59   1 0.70456 0.08808-0.29205 0.49299 0.64675-0.86555
  -9  -2   319540.29 1337.68   1-0.30532-0.48774 0.37416-0.57526 0.87565-0.65663
   9   2  -2 3316.13  352.62   1 0.64779 0.14680-0.41644 0.60344 0.63790-0.78377
  -9  -2   2 3127.68  541.73   1-0.35721-0.43783 0.35284-0.54002 0.86481-0.71879
   9   2  -158011.53 2717.56   1 0.58956 0.20695-0.51682 0.68992 0.62072-0.69366
  -9  -2   154932.92 2640.62   1-0.41410-0.38293 0.32752-0.50078 0.84926-0.77625
   9   2   0 5330.20  486.58   1 0.53397 0.26446-0.59619 0.75540 0.59951-0.59951
   9   2   169893.92 2399.46   1 0.48358 0.31692-0.65784 0.80317 0.57739-0.50445
  -9  -2  -167158.75 2374.87   1-0.53789-0.26323 0.26406-0.40945 0.80058-0.87352
  -9  -2  -168649.83 2320.43   1-0.58159-0.21953 0.75925-0.90475 0.29202-0.36499
   9   2   212837.14  748.31   1 0.43965 0.36278-0.70525 0.83668 0.55616-0.41029
  -9  -2  -214562.26  904.65   1-0.60175-0.20135 0.22649-0.35793 0.76588-0.91177
  -9  -2  -213959.27 1672.19   1-0.59680-0.20626 0.76025-0.89186 0.25657-0.40252
   9   2   359849.21 2256.16   1 0.40271 0.40165-0.74113 0.85868 0.53715-0.31834
  -9  -2  -361262.34 2338.39   1-0.66464-0.14045 0.18530-0.30279 0.72381-0.94264
   9   2   411298.69  591.34   1 0.37277 0.43352-0.76782 0.87148 0.52104-0.22928
  -9  -2  -4 8648.11  775.32   1-0.72486-0.08190 0.14091-0.24450 0.67432-0.96618
  -9  -2  -410574.87 1235.43   1-0.62591-0.18101 0.75867-0.86249 0.18068-0.47259
   9   2   512652.05  734.68   1 0.34952 0.45870-0.78716 0.87693 0.50813-0.14343
  -9  -2  -515201.35  850.04   1-0.78072-0.02804 0.09413-0.18378 0.61774-0.98256
  -9  -2  -512640.45 1751.72   1-0.63935-0.16950 0.75588-0.84580 0.14096-0.50584
  -9  -3   5  808.38  391.74   1-0.27158-0.49956 0.38717-0.69578 0.88110-0.51606
   9   3  -4 3679.06  424.80   1 0.76802 0.00448-0.07994 0.37454 0.63541-0.92719
  -9  -3   4 3960.68  583.09   1-0.30941-0.46372 0.37254-0.66723 0.87491-0.58288
   9   3  -310363.42  710.52   1 0.73090 0.04383-0.21889 0.49946 0.64641-0.86522
  -9  -3   311625.56  921.10   1-0.35315-0.42196 0.35457-0.63534 0.86577-0.64674
   9   3  -217048.35  947.34   1 0.68518 0.09147-0.33859 0.60527 0.64487-0.79074
  -9  -3   217228.67 1072.77   1-0.40219-0.37490 0.33300-0.59985 0.85284-0.70683
   9   3  -115663.71  885.91   1 0.63571 0.14289-0.43909 0.69180 0.63487-0.70780
  -9  -3   116527.82 1018.14   1-0.45563-0.32345 0.30766-0.56059 0.83531-0.76230
   9   3   0  996.51  255.76   1 0.58642 0.19410-0.52168 0.76050 0.61963-0.61963
  -9  -3   0  470.00  304.82   1-0.51225-0.26892 0.27810-0.51712 0.81256-0.81256
   9   3   1 3888.37  408.11   1 0.53995 0.24249-0.58828 0.81320 0.60197-0.52904
  -9  -3  -1 2680.99  378.33   1-0.57077-0.21238 0.24520-0.47027 0.78363-0.85658
   9   3   215150.40  905.60   1 0.49805 0.28648-0.64098 0.85203 0.58401-0.43814
  -9  -3  -213675.19  891.83   1-0.62968-0.15546 0.20877-0.41988 0.74827-0.89416
   9   3   3 7567.69  663.22   1 0.46165 0.32482-0.68219 0.87935 0.56699-0.34817
  -9  -3  -3 7704.71  655.54   1-0.68744-0.09938 0.16909-0.36630 0.70627-0.92517
  -9  -3  -3 6617.17 1062.57   1-0.65824-0.12877 0.74874-0.94615 0.07806-0.29701
   9   3   460011.79 1735.39   1 0.43117 0.35722-0.71379 0.89705 0.55189-0.26013
  -9  -3  -462524.46 1799.00   1-0.74251-0.04631 0.12681-0.31008 0.65772-0.94958
  -9  -3  -460868.45 1826.73   1-0.66407-0.12489 0.74553-0.92906 0.05628-0.34820
   9   3   5 3626.14  559.09   1 0.40667 0.38366-0.73745 0.90682 0.53924-0.17454
  -9  -3  -5 4251.89  507.43   1-0.79350 0.00267 0.08245-0.25178 0.60295-0.96777
  -9  -3  -5 4544.67  692.05   1-0.67064-0.12027 0.74117-0.91080 0.03002-0.39492
   9   3   645583.05 2478.21   1 0.38797 0.40429-0.75453 0.91002 0.52929-0.09166
  -9  -3  -643435.28 2339.68   1-0.83925 0.04647 0.03665-0.19206 0.54250-0.98028
  -9  -3  -642872.75 2332.03   1-0.67742-0.11544 0.73559-0.89134 0.00049-0.43838
  -9  -4   5  305.68  328.57   1-0.33074-0.42244 0.36392-0.75220 0.87072-0.50569
   9   4  -429840.08 1261.53   1 0.77895-0.02439-0.02036 0.39458 0.62674-0.91853
  -9  -4   432752.17 1476.62   1-0.36626-0.38891 0.34895-0.72332 0.86259-0.57057
   9   4  -3 4444.81  484.76   1 0.75196 0.00452-0.14786 0.50816 0.64240-0.86124
  -9  -4   3 4507.64  584.03   1-0.40721-0.34994 0.33070-0.69115 0.85135-0.63233
   9   4  -2 6658.23  531.76   1 0.71616 0.04258-0.26148 0.60778 0.64709-0.79296
  -9  -4   2 6831.06  677.57   1-0.45290-0.30624 0.30900-0.65553 0.83629-0.69028
   9   4  -1 6725.45  617.82   1 0.67551 0.08515-0.36011 0.69250 0.64343-0.71636
  -9  -4   1 7951.68  746.80   1-0.50234-0.25888 0.28338-0.61603 0.81690-0.74396
   9   4   0  827.04  342.22   1 0.63310 0.12950-0.44383 0.76226 0.63417-0.63417
  -9  -4   0  738.03  322.94   1-0.55448-0.20872 0.25467-0.57336 0.79226-0.79226
   9   4   113389.89  775.33   1 0.59167 0.17286-0.51354 0.81807 0.62145-0.54851
  -9  -4  -115171.14  932.84   1-0.60804-0.15714 0.22258-0.52732 0.76206-0.83500
   9   4   2 4328.41  481.78   1 0.55299 0.21345-0.57051 0.86116 0.60720-0.46134
  -9  -4  -2 3874.96  479.04   1-0.66165-0.10551 0.18737-0.47816 0.72602-0.87190
   9   4   3 7326.19  599.24   1 0.51832 0.25004-0.61629 0.89304 0.59288-0.37408
  -9  -4  -3 7156.97  664.57   1-0.71397-0.05490 0.14934-0.42622 0.68405-0.90294
  -9  -4  -4 1077.23  448.48   1-0.76366-0.00721 0.10910-0.37205 0.63632-0.92818
  -9  -4  -4  735.68  244.51   1-0.69447-0.07656 0.71360-0.97681-0.09200-0.19991
   9   4   5 1683.36  343.41   1 0.46354 0.30889-0.68014 0.92913 0.56790-0.20321
  -9  -4  -5 1741.79  481.31   1-0.80956 0.03667 0.06714-0.31614 0.58317-0.94800
  -9  -4  -5 1325.63  308.68   1-0.69553-0.07745 0.71161-0.96093-0.09918-0.26571
   9   4   6 4810.48  653.78   1 0.44384 0.33052-0.70096 0.93605 0.55825-0.12062
  -9  -4  -6 3874.28  575.87   1-0.85069 0.07585 0.02398-0.25906 0.52510-0.96287
   9   5  -4  988.28  249.51   1 0.78678-0.05017 0.03759 0.41625 0.61607-0.90786
  -9  -5   4 2486.84  517.34   1-0.42912-0.30809 0.32048-0.77451 0.84447-0.55244
   9   5  -323116.52 1029.76   1 0.76817-0.02963-0.07923 0.51916 0.63532-0.85416
  -9  -5   322567.45 1124.39   1-0.46669-0.27251 0.30216-0.74227 0.83119-0.61217
   9   5  -2 1102.09  332.38   1 0.74117-0.00033-0.18604 0.61196 0.64501-0.79088
  -9  -5   2  792.67  341.61   1-0.50841-0.23285 0.28016-0.70643 0.81426-0.66837
   9   5  -156234.51 2102.20   1 0.70877 0.03398-0.28123 0.69325 0.64695-0.71988
  -9  -5   155919.12 2186.55   1-0.55339-0.18986 0.25529-0.66762 0.79282-0.71988
   9   5   0  725.05  361.33   1 0.67354 0.07112-0.36434 0.76247 0.64310-0.64310
  -9  -5   0  432.57  329.97   1-0.60056-0.14467 0.22723-0.62560 0.76660-0.76660
   9   5   121043.54 1328.00   1 0.63768 0.10893-0.43547 0.81961 0.63539-0.56245
  -9  -5  -121321.66 1806.78   1-0.64874-0.09847 0.19616-0.58057 0.73528-0.80822
   9   5   216589.80 1128.17   1 0.60315 0.14537-0.49521 0.86547 0.62527-0.47940
  -9  -5  -216580.96 1188.57   1-0.69675-0.05218 0.16228-0.53278 0.69871-0.84464
   9   5   3 2303.34  386.10   1 0.57123 0.17922-0.54450 0.90086 0.61417-0.39537
  -9  -5  -3 2522.20  460.80   1-0.74337-0.00756 0.12610-0.48266 0.65687-0.87577
   9   5   440897.94 1266.89   1 0.54283 0.20953-0.58441 0.92688 0.60315-0.31141
  -9  -5  -442502.56 1320.44   1-0.78749 0.03454 0.08800-0.43062 0.61001-0.90186
   9   5   5 1418.45  478.12   1 0.51853 0.23575-0.61603 0.94461 0.59297-0.22830
   9   6  -316494.97  988.18   1 0.78011-0.05952-0.01293 0.53248 0.62550-0.84434
  -9  -6   318318.94 1110.37   1-0.53053-0.19078 0.26815-0.78805 0.80413-0.58529
   9   6  -2 4249.94  432.00   1 0.76078-0.03826-0.11261 0.61824 0.63916-0.78505
  -9  -6   2 4480.52  616.40   1-0.56770-0.15559 0.24700-0.75295 0.78529-0.63940
   9   6  -127901.15  905.20   1 0.73583-0.01099-0.20349 0.69513 0.64585-0.71879
  -9  -6   130013.16 1086.18   1-0.60766-0.11762 0.22281-0.71481 0.76229-0.68935
   9   6   0 9266.56  583.88   1 0.70748 0.01928-0.28458 0.76233 0.64690-0.64690
  -9  -6   0 9957.42  546.64   1-0.64939-0.07787 0.19572-0.67376 0.73482-0.73482
   9   6   1 1197.67  321.45   1 0.67756 0.05111-0.35563 0.81947 0.64376-0.57082
  -9  -6  -1 2185.69  414.52   1-0.69184-0.03715 0.16589-0.63000 0.70273-0.77569
   9   6   259226.64 1675.92   1 0.64762 0.08298-0.41677 0.86663 0.63786-0.49200
  -9  -6  -260430.13 1777.65   1-0.73396 0.00296 0.13371-0.58388 0.66589-0.81182
   9   6   3 2187.06  490.94   1 0.61919 0.11334-0.46839 0.90436 0.63024-0.41144
  -9  -6  -3 3187.40  483.29   1-0.77469 0.04169 0.09950-0.53574 0.62445-0.84335
   9   6   434164.52 1518.51   1 0.59316 0.14128-0.51119 0.93326 0.62196-0.33022
  -9  -6  -431997.64 1448.07   1-0.81310 0.07810 0.06366-0.48596 0.57862-0.87048
   9   6   5 7592.60  954.72   1 0.57026 0.16611-0.54592 0.95411 0.61381-0.24914
  -9  -6  -5 5629.19  751.07   1-0.84837 0.11136 0.02661-0.43494 0.52873-0.89354
   9   7  -1  281.28  236.41   1 0.75720-0.05071-0.12741 0.69874 0.64062-0.71357
  -9  -7   1  934.22  443.31   1-0.66391-0.04340 0.18581-0.75748 0.72435-0.65141
   9   7   027530.16 1559.96   1 0.73518-0.02633-0.20556 0.76293 0.64594-0.64594
  -9  -7   030159.82 1750.83   1-0.69977-0.00927 0.16005-0.71778 0.69620-0.69620
   9   7   1 4476.60  437.52   1 0.71102-0.00025-0.27532 0.81879 0.64702-0.57408
  -9  -7  -1 5816.70  680.93   1-0.73620 0.02515 0.13191-0.67570 0.66377-0.73674
   9   7   2 4549.79  448.70   1 0.68608 0.02659-0.33654 0.86612 0.64499-0.49912
  -9  -7  -2 5512.17  625.84   1-0.77222 0.05916 0.10168-0.63153 0.62715-0.77308
   9   7   327173.81 1589.37   1 0.66159 0.05300-0.38934 0.90502 0.64085-0.42205
  -9  -7  -329887.93 1725.47   1-0.80695 0.09189 0.06967-0.58559 0.58648-0.80538
   9   7   4 1303.16  416.07   1 0.63843 0.07810-0.43408 0.93577 0.63558-0.34384
  -9  -7  -4 1211.17  379.55   1-0.83958 0.12249 0.03629-0.53821 0.54200-0.83385
  10   1  -1  224.27  201.68   1 0.56729 0.33984-0.55024 0.64374 0.61270-0.68563
 -10  -1   1  603.52  321.37   1-0.42681-0.48094 0.32157-0.41516 0.84523-0.77222
  10   1   0 1245.31  362.21   1 0.51265 0.39652-0.62329 0.70290 0.59050-0.59050
 -10  -1   0  343.94  343.58   1-0.48409-0.42581 0.29291-0.37258 0.82453-0.82453
  10   1   1 9102.23 1041.92   1 0.46434 0.44676-0.67928 0.74499 0.56829-0.49535
 -10  -1  -1 8736.11 1018.26   1-0.54382-0.36806 0.26073-0.32645 0.79766-0.87060
  10   2  -225642.25 1389.93   1 0.66244 0.22481-0.38762 0.57466 0.64103-0.78689
 -10  -2   221790.28 1324.65   1-0.40544-0.48238 0.33151-0.51870 0.85188-0.70587
 -10  -2   1  499.42  340.95   1-0.45610-0.43370 0.30742-0.48069 0.83513-0.76212
  10   2   048012.28 2527.26   1 0.55997 0.33116-0.56073 0.71994 0.60992-0.60992
 -10  -2   047686.25 2559.96   1-0.51009-0.38184 0.27926-0.43861 0.81351-0.81351
  10   2   1  974.50  353.75   1 0.51418 0.37887-0.62146 0.76678 0.59109-0.51815
 -10  -2  -1  728.65  347.74   1-0.56622-0.32769 0.24787-0.39327 0.78609-0.85904
  10   2   225378.25 1423.35   1 0.47394 0.42120-0.66872 0.80016 0.57287-0.42699
 -10  -2  -224374.33 1453.68   1-0.62324-0.27265 0.21293-0.34437 0.75247-0.89836
  10   3  -236967.77 3214.49   1 0.69385 0.17549-0.31839 0.58506 0.64589-0.79176
 -10  -3   234851.89 3088.53   1-0.44339-0.42647 0.31364-0.58049 0.83965-0.69364
  10   3  -114710.40 1593.33   1 0.64892 0.22237-0.41427 0.66698 0.63817-0.71110
 -10  -3   114007.74 1698.66   1-0.49094-0.38103 0.28936-0.54233 0.82172-0.74878
  10   3   020662.00 1195.51   1 0.60422 0.26899-0.49346 0.73228 0.62561-0.62561
 -10  -3   023282.81 1453.38   1-0.54135-0.33261 0.26212-0.50114 0.79888-0.79888
  10   3   113349.47 1473.86   1 0.56200 0.31314-0.55785 0.78278 0.61069-0.53776
  10   3   2 8096.64  928.49   1 0.52371 0.35334-0.60947 0.82051 0.59519-0.44933
 -10  -3  -2 8433.70 1077.99   1-0.64646-0.23147 0.19769-0.40881 0.73688-0.88277
  10   4  -147885.51 2524.79   1 0.68323 0.17011-0.34302 0.67541 0.64461-0.71754
 -10  -4   150283.39 4388.32   1-0.53065-0.32336 0.26808-0.60073 0.80407-0.73113
  10   4   0  633.84  348.14   1 0.64438 0.21092-0.42294 0.74137 0.63708-0.63708
 -10  -4   0 1386.17  617.39   1-0.57720-0.27879 0.24140-0.56009 0.78010-0.78010
  10   4   194790.74 4879.81   1 0.60650 0.25072-0.48974 0.79427 0.62634-0.55341
 -10  -4  -198416.55 8477.16   1-0.62524-0.23273 0.21164-0.51638 0.75118-0.82412
  10   4   2 1156.73  372.06   1 0.57111 0.28803-0.54467 0.83532 0.61412-0.46826
 -10  -4  -2  914.67  329.00   1-0.67368-0.18627 0.17899-0.46977 0.71701-0.86290
;
_shelx_hkl_checksum              38146
loop_
_space_group_symop_operation_xyz
'x, y, z'
'-x, -y, -z'
loop_
_atom_site_label
_atom_site_type_symbol
_atom_site_fract_x
_atom_site_fract_y
_atom_site_fract_z
_atom_site_U_iso_or_equiv
_atom_site_adp_type
_atom_site_occupancy
_atom_site_site_symmetry_order
_atom_site_calc_flag
_atom_site_refinement_flags_posn
Br1 Br 0.26588(2) 0.59971(2) 0.48315(2) 0.02735(7) Uani 1 1 d .
S1 S 0.05802(6) 0.71606(5) 0.07503(5) 0.02168(10) Uani 1 1 d .
O1 O 0.34871(18) 0.91556(16) 0.23809(15) 0.0283(3) Uani 1 1 d .
O2 O -0.07729(17) 0.81539(19) -0.01660(15) 0.0331(3) Uani 1 1 d .
O3 O 0.0253(2) 0.57297(17) 0.14603(15) 0.0319(3) Uani 1 1 d .
N1 N 0.12074(19) 0.80831(18) 0.19183(16) 0.0200(3) Uani 1 1 d .
C1 C 0.0173(2) 0.8447(2) 0.31361(19) 0.0205(3) Uani 1 1 d .
H1 H 0.0685 0.9170 0.3533 0.025 Uiso 1 1 calc R
C2 C -0.1723(2) 0.9231(2) 0.2720(2) 0.0259(4) Uani 1 1 d .
H2A H -0.2272 0.8537 0.2332 0.031 Uiso 1 1 calc R
H2B H -0.1755 1.0138 0.2006 0.031 Uiso 1 1 calc R
C3 C -0.2735(2) 0.9691(2) 0.3983(2) 0.0287(4) Uani 1 1 d .
H3A H -0.2255 1.0460 0.4315 0.034 Uiso 1 1 calc R
H3B H -0.3946 1.0140 0.3705 0.034 Uiso 1 1 calc R
C4 C -0.2639(3) 0.8313(2) 0.5154(2) 0.0301(4) Uani 1 1 d .
H4A H -0.3253 0.7604 0.4860 0.036 Uiso 1 1 calc R
H4B H -0.3216 0.8650 0.5964 0.036 Uiso 1 1 calc R
C5 C -0.0747(3) 0.7480(2) 0.5561(2) 0.0256(4) Uani 1 1 d .
H5A H -0.0166 0.8144 0.5962 0.031 Uiso 1 1 calc R
H5B H -0.0733 0.6564 0.6260 0.031 Uiso 1 1 calc R
C6 C 0.0221(2) 0.7039(2) 0.42843(19) 0.0209(3) Uani 1 1 d .
H6 H -0.0343 0.6324 0.3922 0.025 Uiso 1 1 calc R
C7 C 0.2839(2) 0.8449(2) 0.16813(19) 0.0211(3) Uani 1 1 d .
C8 C 0.3627(2) 0.7777(2) 0.04766(18) 0.0196(3) Uani 1 1 d .
C9 C 0.5249(2) 0.7864(2) -0.0078(2) 0.0242(4) Uani 1 1 d .
H9 H 0.5964 0.8395 0.0287 0.029 Uiso 1 1 calc R
C10 C 0.5772(2) 0.7137(2) -0.1194(2) 0.0270(4) Uani 1 1 d .
H10 H 0.6860 0.7170 -0.1572 0.032 Uiso 1 1 calc R
C11 C 0.4698(3) 0.6358(2) -0.1759(2) 0.0266(4) Uani 1 1 d .
H11 H 0.5080 0.5882 -0.2508 0.032 Uiso 1 1 calc R
C12 C 0.3057(2) 0.6280(2) -0.12197(19) 0.0251(4) Uani 1 1 d .
H12 H 0.2324 0.5775 -0.1598 0.030 Uiso 1 1 calc R
C13 C 0.2581(2) 0.6992(2) -0.00949(18) 0.0198(3) Uani 1 1 d .
loop_
_atom_site_aniso_label
_atom_site_aniso_U_11
_atom_site_aniso_U_22
_atom_site_aniso_U_33
_atom_site_aniso_U_23
_atom_site_aniso_U_13
_atom_site_aniso_U_12
Br1 0.02180(11) 0.02915(11) 0.02718(11) -0.00441(8) -0.00296(7) 0.00219(7)
S1 0.0181(2) 0.0306(2) 0.0195(2) -0.00559(18) 0.00120(16) -0.01135(17)
O1 0.0266(7) 0.0338(7) 0.0311(7) -0.0137(6) 0.0034(6) -0.0143(6)
O2 0.0193(6) 0.0512(9) 0.0282(7) -0.0076(7) -0.0042(6) -0.0058(6)
O3 0.0404(8) 0.0379(8) 0.0264(7) -0.0093(6) 0.0087(6) -0.0255(7)
N1 0.0173(7) 0.0260(8) 0.0189(7) -0.0062(6) 0.0025(6) -0.0077(6)
C1 0.0191(8) 0.0216(8) 0.0205(8) -0.0046(7) 0.0015(7) -0.0036(6)
C2 0.0206(8) 0.0265(9) 0.0259(9) -0.0004(7) -0.0003(7) 0.0006(7)
C3 0.0205(9) 0.0276(10) 0.0351(11) -0.0065(8) 0.0033(8) 0.0009(7)
C4 0.0250(9) 0.0314(10) 0.0326(11) -0.0068(8) 0.0099(8) -0.0034(8)
C5 0.0276(9) 0.0251(9) 0.0222(9) -0.0043(7) 0.0054(7) -0.0022(7)
C6 0.0181(8) 0.0217(8) 0.0220(9) -0.0049(7) -0.0001(7) -0.0018(6)
C7 0.0186(8) 0.0241(9) 0.0209(9) -0.0021(7) -0.0003(7) -0.0068(7)
C8 0.0179(8) 0.0222(8) 0.0182(8) -0.0015(7) -0.0001(6) -0.0050(6)
C9 0.0197(8) 0.0297(9) 0.0241(9) -0.0024(7) 0.0001(7) -0.0092(7)
C10 0.0200(8) 0.0359(10) 0.0231(9) -0.0010(8) 0.0035(7) -0.0063(7)
C11 0.0286(9) 0.0315(10) 0.0180(9) -0.0046(8) 0.0020(7) -0.0036(8)
C12 0.0274(9) 0.0293(9) 0.0205(9) -0.0050(7) -0.0015(7) -0.0095(7)
C13 0.0177(8) 0.0236(8) 0.0177(8) -0.0008(7) 0.0011(6) -0.0066(6)
loop_
_atom_type_symbol
_atom_type_description
_atom_type_scat_dispersion_real
_atom_type_scat_dispersion_imag
_atom_type_scat_source
C C 0.0033 0.0016 'International Tables Vol C Tables 4.2.6.8 and 6.1.1.4'
H H 0.0000 0.0000 'International Tables Vol C Tables 4.2.6.8 and 6.1.1.4'
Br Br -0.2901 2.4595 'International Tables Vol C Tables 4.2.6.8 and 6.1.1.4'
N N 0.0061 0.0033 'International Tables Vol C Tables 4.2.6.8 and 6.1.1.4'
O O 0.0106 0.0060 'International Tables Vol C Tables 4.2.6.8 and 6.1.1.4'
S S 0.1246 0.1234 'International Tables Vol C Tables 4.2.6.8 and 6.1.1.4'
loop_
_geom_angle_atom_site_label_1
_geom_angle_atom_site_label_2
_geom_angle_atom_site_label_3
_geom_angle
O2 S1 N1 110.93(9)
O2 S1 C13 109.77(9)
O3 S1 O2 117.34(9)
O3 S1 N1 109.19(8)
O3 S1 C13 113.87(9)
N1 S1 C13 93.11(8)
C1 N1 S1 123.58(12)
C7 N1 S1 114.64(12)
C7 N1 C1 121.75(14)
N1 C1 H1 107.5
N1 C1 C2 111.89(15)
N1 C1 C6 112.90(14)
C2 C1 H1 107.5
C2 C1 C6 109.42(15)
C6 C1 H1 107.5
C1 C2 H2A 109.5
C1 C2 H2B 109.5
C1 C2 C3 110.84(16)
H2A C2 H2B 108.1
C3 C2 H2A 109.5
C3 C2 H2B 109.5
C2 C3 H3A 109.4
C2 C3 H3B 109.4
H3A C3 H3B 108.0
C4 C3 C2 111.07(16)
C4 C3 H3A 109.4
C4 C3 H3B 109.4
C3 C4 H4A 109.3
C3 C4 H4B 109.3
C3 C4 C5 111.77(16)
H4A C4 H4B 107.9
C5 C4 H4A 109.3
C5 C4 H4B 109.3
C4 C5 H5A 109.6
C4 C5 H5B 109.6
H5A C5 H5B 108.1
C6 C5 C4 110.20(16)
C6 C5 H5A 109.6
C6 C5 H5B 109.6
Br1 C6 H6 108.7
C1 C6 Br1 110.20(12)
C1 C6 H6 108.7
C5 C6 Br1 109.36(12)
C5 C6 C1 111.24(15)
C5 C6 H6 108.7
O1 C7 N1 124.41(17)
O1 C7 C8 127.01(16)
N1 C7 C8 108.55(15)
C9 C8 C7 126.54(16)
C13 C8 C7 113.60(15)
C13 C8 C9 119.85(17)
C8 C9 H9 121.0
C10 C9 C8 118.08(17)
C10 C9 H9 121.0
C9 C10 H10 119.4
C9 C10 C11 121.23(17)
C11 C10 H10 119.4
C10 C11 H11 119.4
C10 C11 C12 121.10(18)
C12 C11 H11 119.4
C11 C12 H12 121.8
C13 C12 C11 116.47(17)
C13 C12 H12 121.8
C8 C13 S1 109.73(13)
C12 C13 S1 126.91(14)
C12 C13 C8 123.25(16)
loop_
_geom_bond_atom_site_label_1
_geom_bond_atom_site_label_2
_geom_bond_distance
Br1 C6 1.9746(18)
S1 O2 1.4316(15)
S1 O3 1.4285(15)
S1 N1 1.6733(15)
S1 C13 1.7536(18)
O1 C7 1.207(2)
N1 C1 1.476(2)
N1 C7 1.399(2)
C1 H1 0.9800
C1 C2 1.529(2)
C1 C6 1.528(3)
C2 H2A 0.9700
C2 H2B 0.9700
C2 C3 1.529(3)
C3 H3A 0.9700
C3 H3B 0.9700
C3 C4 1.518(3)
C4 H4A 0.9700
C4 H4B 0.9700
C4 C5 1.534(3)
C5 H5A 0.9700
C5 H5B 0.9700
C5 C6 1.520(3)
C6 H6 0.9800
C7 C8 1.489(2)
C8 C9 1.390(2)
C8 C13 1.385(2)
C9 H9 0.9300
C9 C10 1.387(3)
C10 H10 0.9300
C10 C11 1.394(3)
C11 H11 0.9300
C11 C12 1.396(3)
C12 H12 0.9300
C12 C13 1.381(3)
loop_
_geom_torsion_atom_site_label_1
_geom_torsion_atom_site_label_2
_geom_torsion_atom_site_label_3
_geom_torsion_atom_site_label_4
_geom_torsion
S1 N1 C1 C2 -50.2(2)
S1 N1 C1 C6 73.73(18)
S1 N1 C7 O1 177.47(15)
S1 N1 C7 C8 -4.50(18)
O1 C7 C8 C9 -1.2(3)
O1 C7 C8 C13 178.31(18)
O2 S1 N1 C1 75.23(16)
O2 S1 N1 C7 -106.78(14)
O2 S1 C13 C8 108.28(14)
O2 S1 C13 C12 -67.90(19)
O3 S1 N1 C1 -55.59(16)
O3 S1 N1 C7 122.39(14)
O3 S1 C13 C8 -117.87(14)
O3 S1 C13 C12 65.95(19)
N1 S1 C13 C8 -5.28(14)
N1 S1 C13 C12 178.54(17)
N1 C1 C2 C3 -176.22(15)
N1 C1 C6 Br1 54.31(17)
N1 C1 C6 C5 175.78(14)
N1 C7 C8 C9 -179.13(17)
N1 C7 C8 C13 0.3(2)
C1 N1 C7 O1 -4.5(3)
C1 N1 C7 C8 173.52(15)
C1 C2 C3 C4 -56.3(2)
C2 C1 C6 Br1 179.63(12)
C2 C1 C6 C5 -58.9(2)
C2 C3 C4 C5 54.7(2)
C3 C4 C5 C6 -55.0(2)
C4 C5 C6 Br1 179.19(13)
C4 C5 C6 C1 57.2(2)
C6 C1 C2 C3 57.9(2)
C7 N1 C1 C2 131.91(17)
C7 N1 C1 C6 -104.12(19)
C7 C8 C9 C10 178.86(17)
C7 C8 C13 S1 3.63(19)
C7 C8 C13 C12 179.98(16)
C8 C9 C10 C11 0.9(3)
C9 C8 C13 S1 -176.85(14)
C9 C8 C13 C12 -0.5(3)
C9 C10 C11 C12 -0.1(3)
C10 C11 C12 C13 -0.9(3)
C11 C12 C13 S1 176.94(14)
C11 C12 C13 C8 1.2(3)
C13 S1 N1 C1 -172.21(14)
C13 S1 N1 C7 5.77(14)
C13 C8 C9 C10 -0.6(3)
