#------------------------------------------------------------------------------
#$Date: 2019-11-24 01:18:29 +0200 (Sun, 24 Nov 2019) $
#$Revision: 235951 $
#$URL: file:///home/coder/svn-repositories/cod/cif/1/55/37/1553732.cif $
#------------------------------------------------------------------------------
#
# This file is available in the Crystallography Open Database (COD),
# http://www.crystallography.net/
#
# All data on this site have been placed in the public domain by the
# contributors.
#
data_1553732
loop_
_publ_author_name
'Zhang, He'
'Leng, Xuebing'
'Wan, Xiaolong'
'Shen, Qilong'
_publ_section_title
;
 (1S)-(&#x2212;)-N-Trifluoromethylthio-2,10-camphorsultam and its
 derivatives: easily available, optically pure reagents for asymmetric
 trifluoromethylthiolation
;
_journal_issue                   6
_journal_name_full               'Organic Chemistry Frontiers'
_journal_page_first              1051
_journal_paper_doi               10.1039/C7QO00042A
_journal_volume                  4
_journal_year                    2017
_chemical_absolute_configuration rmad
_chemical_formula_moiety         'C11 H14 Cl2 F3 N O2 S2'
_chemical_formula_sum            'C11 H14 Cl2 F3 N O2 S2'
_chemical_formula_weight         384.25
_space_group_crystal_system      monoclinic
_space_group_IT_number           4
_space_group_name_Hall           'P 2yb'
_space_group_name_H-M_alt        'P 1 21 1'
_atom_sites_solution_hydrogens   geom
_atom_sites_solution_primary     direct
_audit_creation_date             2016-07-21
_audit_creation_method
;
Olex2 1.2
(compiled 2016.02.19 svn.r3266 for OlexSys, GUI svn.r5155)
;
_audit_update_record
;
2017-01-15 deposited with the CCDC.
2017-02-10 downloaded from the CCDC.
;
_cell_angle_alpha                90
_cell_angle_beta                 95.0620(10)
_cell_angle_gamma                90
_cell_formula_units_Z            2
_cell_length_a                   7.7869(6)
_cell_length_b                   10.8732(8)
_cell_length_c                   8.8809(7)
_cell_measurement_reflns_used    5654
_cell_measurement_temperature    130
_cell_measurement_theta_max      30.67
_cell_measurement_theta_min      2.63
_cell_volume                     749.00(10)
_computing_cell_refinement       'SAINT v7.68A (Bruker, 2009)'
_computing_data_reduction        'SAINT v7.68A (Bruker, 2009)'
_computing_molecular_graphics    'Olex2 (Dolomanov et al., 2009)'
_computing_publication_material  'Olex2 (Dolomanov et al., 2009)'
_computing_structure_refinement  'ShelXL (Sheldrick, 2015)'
_computing_structure_solution    'ShelXS (Sheldrick, 2008)'
_diffrn_ambient_temperature      130
_diffrn_measured_fraction_theta_full 1.000
_diffrn_measured_fraction_theta_max 0.998
_diffrn_measurement_device_type  'Bruker APEX-II CCD'
_diffrn_measurement_method       '\f and \w scans'
_diffrn_radiation_monochromator  graphite
_diffrn_radiation_type           MoK\a
_diffrn_radiation_wavelength     0.71073
_diffrn_reflns_av_R_equivalents  0.0147
_diffrn_reflns_av_unetI/netI     0.0251
_diffrn_reflns_Laue_measured_fraction_full 1.000
_diffrn_reflns_Laue_measured_fraction_max 0.998
_diffrn_reflns_limit_h_max       11
_diffrn_reflns_limit_h_min       -11
_diffrn_reflns_limit_k_max       15
_diffrn_reflns_limit_k_min       -15
_diffrn_reflns_limit_l_max       10
_diffrn_reflns_limit_l_min       -12
_diffrn_reflns_number            7661
_diffrn_reflns_point_group_measured_fraction_full 0.984
_diffrn_reflns_point_group_measured_fraction_max 0.962
_diffrn_reflns_theta_full        25.242
_diffrn_reflns_theta_max         30.672
_diffrn_reflns_theta_min         2.302
_diffrn_standards_number         0
_exptl_absorpt_coefficient_mu    0.746
_exptl_absorpt_correction_T_max  0.7461
_exptl_absorpt_correction_T_min  0.6619
_exptl_absorpt_correction_type   multi-scan
_exptl_absorpt_process_details
;
SADABS-2008/1 (Bruker,2008) was used for absorption correction.
wR2(int) was 0.0582 before and 0.0304 after correction.
The Ratio of minimum to maximum transmission is 0.8871.
The \l/2 correction factor is 0.0015.
;
_exptl_crystal_colour            colourless
_exptl_crystal_colour_primary    colourless
_exptl_crystal_density_diffrn    1.704
_exptl_crystal_density_method    'not measured'
_exptl_crystal_description       block
_exptl_crystal_F_000             392
_exptl_crystal_size_max          0.3
_exptl_crystal_size_mid          0.25
_exptl_crystal_size_min          0.22
_refine_diff_density_max         0.428
_refine_diff_density_min         -0.616
_refine_diff_density_rms         0.060
_refine_ls_abs_structure_details
;
 Flack x determined using 1940 quotients [(I+)-(I-)]/[(I+)+(I-)]
 (Parsons, Flack and Wagner, Acta Cryst. B69 (2013) 249-259).
;
_refine_ls_abs_structure_Flack   0.056(19)
_refine_ls_extinction_method     none
_refine_ls_goodness_of_fit_ref   1.035
_refine_ls_hydrogen_treatment    constr
_refine_ls_matrix_type           full
_refine_ls_number_parameters     192
_refine_ls_number_reflns         4461
_refine_ls_number_restraints     1
_refine_ls_restrained_S_all      1.035
_refine_ls_R_factor_all          0.0292
_refine_ls_R_factor_gt           0.0285
_refine_ls_shift/su_max          0.003
_refine_ls_shift/su_mean         0.000
_refine_ls_structure_factor_coef Fsqd
_refine_ls_weighting_details
'w=1/[\s^2^(Fo^2^)+(0.0371P)^2^+0.3150P] where P=(Fo^2^+2Fc^2^)/3'
_refine_ls_weighting_scheme      calc
_refine_ls_wR_factor_gt          0.0720
_refine_ls_wR_factor_ref         0.0725
_reflns_Friedel_coverage         0.840
_reflns_Friedel_fraction_full    0.967
_reflns_Friedel_fraction_max     0.923
_reflns_number_gt                4364
_reflns_number_total             4461
_reflns_threshold_expression     'I > 2\s(I)'
_cod_data_source_file            c7qo00042a2.cif
_cod_data_source_block           mo_dm16474_0m
_cod_database_code               1553732
_shelx_space_group_comment
;
The symmetry employed for this shelxl refinement is uniquely defined
by the following loop, which should always be used as a source of
symmetry information in preference to the above space-group names.
They are only intended as comments.
;
_shelx_estimated_absorpt_t_max   0.853
_shelx_estimated_absorpt_t_min   0.807
_olex2_refinement_description
;
1. Fixed Uiso
 At 1.2 times of:
  All C(H) groups, All C(H,H) groups
 At 1.5 times of:
  All C(H,H,H) groups
2.a Ternary CH refined with riding coordinates:
 C2(H2), C6(H6)
2.b Secondary CH2 refined with riding coordinates:
 C3(H3A,H3B), C7(H7A,H7B), C8(H8A,H8B)
2.c Idealised Me refined as rotating group:
 C9(H9A,H9B,H9C), C10(H10A,H10B,H10C)
;
_shelx_res_file
;
    mo_dm16474_0m.res created by SHELXL-2014/7

TITL mo_dm16474_0m in P2(1)
CELL 0.71073 7.7869 10.8732 8.8809 90 95.062 90
ZERR 2 0.0006 0.0008 0.0007 0 0.001 0
LATT -1
SYMM -X,0.5+Y,-Z
SFAC C H Cl F N O S
UNIT 22 28 4 6 2 4 4

L.S. 4
PLAN  -2 0 0
SIZE 0.22 0.25 0.3
TEMP -143.15
BOND $H
MORE -1
CONF
fmap 2
acta
REM <olex2.extras>
REM <HklSrc "%.\\mo_dm16474_0m.hkl">
REM </olex2.extras>

WGHT    0.037100    0.315000
FVAR       0.27738
CL1   3    0.387897    0.746655    0.811588    11.00000    0.01773    0.02502 =
         0.02911    0.00143    0.00662   -0.00512
CL2   3    0.448104    1.005295    0.810915    11.00000    0.01915    0.02108 =
         0.02998   -0.00507    0.00277    0.00540
S1    7    0.830862    0.927864    0.452233    11.00000    0.02056    0.07916 =
         0.02227    0.02412    0.00245   -0.00660
S2    7    0.465311    0.975994    0.446696    11.00000    0.02672    0.02035 =
         0.02542    0.00432   -0.00954    0.00043
F1    4    0.216254    0.852555    0.315310    11.00000    0.02329    0.07441 =
         0.04265   -0.01833   -0.00360   -0.00537
F2    4    0.432933    0.843242    0.194037    11.00000    0.05958    0.18300 =
         0.03418   -0.04889    0.02318   -0.05370
F3    4    0.427487    0.740288    0.395955    11.00000    0.13780    0.02981 =
         0.09527   -0.01795   -0.08982    0.01359
O1    6    0.878159    1.051788    0.426802    11.00000    0.03174    0.10978 =
         0.14644    0.10393    0.00525   -0.01058
O2    6    0.808419    0.846921    0.326535    11.00000    0.03110    0.22686 =
         0.02197   -0.03317    0.00310    0.00762
N1    5    0.647979    0.929244    0.542950    11.00000    0.01749    0.02082 =
         0.01740    0.00621   -0.00186   -0.00219
C1    1    0.555586    0.860296    0.805145    11.00000    0.01382    0.01534 =
         0.01891   -0.00058    0.00341   -0.00019
C2    1    0.655715    0.835102    0.661976    11.00000    0.01489    0.01518 =
         0.01282    0.00084    0.00125   -0.00075
AFIX  13
H2    2    0.619473    0.753882    0.616879    11.00000   -1.20000
AFIX   0
C3    1    0.963319    0.857833    0.602301    11.00000    0.01723    0.02979 =
         0.01613    0.00231    0.00464   -0.00014
AFIX  23
H3A   2    1.016113    0.781650    0.566379    11.00000   -1.20000
H3B   2    1.056750    0.914649    0.640011    11.00000   -1.20000
AFIX   0
C4    1    0.848075    0.828075    0.728231    11.00000    0.01330    0.01617 =
         0.01420    0.00038    0.00254   -0.00012
C5    1    0.855532    0.914869    0.868709    11.00000    0.01464    0.01823 =
         0.01457   -0.00094    0.00079   -0.00010
C6    1    0.700433    0.849351    0.934611    11.00000    0.01657    0.02505 =
         0.01302    0.00086    0.00238    0.00145
AFIX  13
H6    2    0.670046    0.883289    1.033493    11.00000   -1.20000
AFIX   0
C7    1    0.762897    0.713932    0.941810    11.00000    0.02197    0.02520 =
         0.02223    0.01036    0.00299    0.00171
AFIX  23
H7A   2    0.663893    0.656474    0.935207    11.00000   -1.20000
H7B   2    0.835877    0.697873    1.036772    11.00000   -1.20000
AFIX   0
C8    1    0.868793    0.700201    0.802250    11.00000    0.01835    0.01538 =
         0.02264    0.00248    0.00104    0.00350
AFIX  23
H8A   2    0.991324    0.681718    0.833218    11.00000   -1.20000
H8B   2    0.820673    0.634867    0.733243    11.00000   -1.20000
AFIX   0
C9    1    0.840124    1.053264    0.830922    11.00000    0.02119    0.01726 =
         0.02965   -0.00453   -0.00316   -0.00259
AFIX 137
H9A   2    0.815431    1.099026    0.921600    11.00000   -1.50000
H9B   2    0.746419    1.066021    0.751319    11.00000   -1.50000
H9C   2    0.948743    1.082580    0.795864    11.00000   -1.50000
AFIX   0
C10   1    1.021172    0.902856    0.976062    11.00000    0.01680    0.02994 =
         0.02033   -0.00265   -0.00321    0.00037
AFIX 137
H10A  2    1.118570    0.937442    0.927495    11.00000   -1.50000
H10B  2    1.043333    0.815844    0.999067    11.00000   -1.50000
H10C  2    1.006997    0.947639    1.069925    11.00000   -1.50000
AFIX   0
C11   1    0.387504    0.845452    0.331009    11.00000    0.02403    0.03681 =
         0.01991   -0.00534   -0.00367    0.00143
HKLF 4

REM  mo_dm16474_0m in P2(1)
REM R1 =  0.0285 for    4364 Fo > 4sig(Fo)  and  0.0292 for all    4461 data
REM    192 parameters refined using      1 restraints

END

WGHT      0.0375      0.3088

REM Highest difference peak  0.428,  deepest hole -0.616,  1-sigma level  0.060
Q1    1   0.4840  0.7743  0.3404  11.00000  0.05    0.43
Q2    1   0.3862  0.7366  0.4284  11.00000  0.05    0.40
;
_shelx_res_checksum              16466
_shelx_hkl_file
;
  -1   0   0  237.05    5.02
  -2   0   0   57.29    1.24
  -3   0   0  275.65    5.68
  -4   0   0   66.88    1.51
  -5   0   0  107.62    2.38
  -6   0   0   14.96    0.51
  -7   0   0   21.88    0.70
  -8   0   0    2.16    0.24
   9   0   0   -0.13    0.07
  -9   0   0   -0.11    0.09
 -10   0   0   17.01    0.68
 -11   0   0    4.03    0.34
  11   0   0    3.97    0.29
   0  -1   0   -0.64    0.03
   1  -1   0  190.46    3.55
  -1  -1   0  185.03    3.78
  -1  -1   0  189.05    3.88
  -1   1   0  174.66    3.95
  -2  -1   0  539.75   11.35
  -2  -1   0  538.75   10.78
  -2   1   0  528.15   11.33
  -3  -1   0  139.17    2.90
  -3   1   0  136.05    2.90
  -4   1   0   47.03    1.11
  -5  -1   0  305.00    6.39
  -5   1   0  307.79    6.39
  -6  -1   0   37.36    1.00
  -6   1   0   38.78    1.00
  -7  -1   0   37.62    1.02
   7  -1   0   36.72    0.89
  -7   1   0   36.73    1.01
   8  -1   0   35.24    0.87
  -8  -1   0   35.32    1.02
  -8   1   0   33.62    1.00
  -9  -1   0    2.48    0.27
   9  -1   0    2.57    0.19
  -9   1   0    2.58    0.27
  10  -1   0    2.60    0.23
 -10  -1   0    2.63    0.29
 -10   1   0    2.50    0.29
 -11  -1   0   16.22    0.70
  11  -1   0   16.84    0.61
 -11   1   0   17.17    0.72
   0  -2   0 1000.00   19.39
   0  -2   0  979.34   19.26
   0   2   0  974.60   20.30
  -1  -2   0   13.34    0.30
   1  -2   0   13.65    0.29
  -1  -2   0   13.80    0.32
  -1   2   0   13.16    0.32
  -2  -2   0   74.83    1.61
  -2  -2   0   75.83    1.54
   2  -2   0   74.98    1.51
   2  -2   0   76.39    1.50
  -2   2   0   75.77    1.61
  -3  -2   0  165.80    3.48
  -3  -2   0  166.75    3.33
   3  -2   0  168.18    3.26
  -3   2   0  164.74    3.48
   4  -2   0   27.10    0.63
  -4  -2   0   26.69    0.70
  -4   2   0   26.60    0.70
  -5  -2   0   71.97    1.66
   5  -2   0   71.62    1.52
  -5   2   0   72.88    1.67
  -6  -2   0   43.47    1.14
   6  -2   0   45.30    1.02
  -6   2   0   44.92    1.14
  -7  -2   0   14.30    0.52
   7  -2   0   13.48    0.43
  -7   2   0   12.61    0.50
   8  -2   0   37.33    0.91
  -8  -2   0   34.77    1.04
  -8   2   0   36.33    1.04
   9  -2   0   13.47    0.46
  -9  -2   0   12.00    0.54
   9  -2   0   12.86    0.46
  -9   2   0   12.71    0.55
 -10  -2   0   20.90    0.79
  10  -2   0   22.33    0.67
  10  -2   0   21.98    0.68
 -10   2   0   20.96    0.79
 -11  -2   0   12.99    0.62
 -11   2   0   12.91    0.61
   0  -3   0   -0.10    0.02
   0  -3   0    0.06    0.03
   0   3   0   -0.06    0.03
  -1  -3   0   54.22    1.16
   1  -3   0   53.01    1.07
   1  -3   0   53.90    1.10
  -1  -3   0   53.92    1.09
  -1  -3   0   54.46    1.11
  -1   3   0   54.25    1.15
   2  -3   0  190.85    3.79
  -2  -3   0  197.47    4.03
   2  -3   0  194.31    3.81
  -2  -3   0  197.52    3.86
  -2   3   0  193.56    4.02
  -3  -3   0   89.98    1.93
   3  -3   0   90.07    1.79
  -3  -3   0   88.63    1.85
   3  -3   0   87.91    1.80
  -3   3   0   88.63    1.93
   4  -3   0   25.66    0.62
  -4  -3   0   26.31    0.69
  -4  -3   0   25.72    0.65
   4  -3   0   26.93    0.60
  -4   3   0   25.79    0.69
   5  -3   0   80.00    1.72
  -5  -3   0   85.54    1.88
   5  -3   0   84.27    1.71
  -5   3   0   78.49    1.86
   6  -3   0   60.02    1.31
  -6  -3   0   60.98    1.47
   6  -3   0   60.48    1.33
  -6   3   0   59.76    1.47
  -7  -3   0   53.93    1.38
   7  -3   0   53.44    1.23
   7  -3   0   54.82    1.22
  -7   3   0   52.02    1.36
   8  -3   0   16.53    0.51
  -8  -3   0   16.15    0.61
   8  -3   0   16.19    0.52
  -8   3   0   16.55    0.61
  -9  -3   0    2.51    0.28
   9  -3   0    2.48    0.21
   9  -3   0    2.79    0.21
  -9   3   0    3.00    0.30
  10  -3   0   10.74    0.44
 -10  -3   0   11.07    0.54
 -10   3   0   10.83    0.53
   0  -4   0   28.03    0.59
   0   4   0   27.38    0.62
  -1  -4   0  315.14    6.40
   1  -4   0  310.68    6.07
  -1  -4   0  317.53    6.06
  -1  -4   0  321.36    6.43
   1  -4   0  312.69    6.26
  -1   4   0  309.57    6.56
   2  -4   0  137.50    2.69
   2  -4   0  135.95    2.71
  -2  -4   0  137.66    2.88
  -2  -4   0  135.98    2.75
  -2  -4   0  139.78    2.69
  -2   4   0  135.23    2.86
   3  -4   0   23.07    0.57
  -3  -4   0   23.52    0.59
  -3  -4   0   23.62    0.61
   3  -4   0   23.93    0.52
  -3   4   0   24.62    0.62
  -4  -4   0    1.41    0.13
   4  -4   0    1.10    0.08
   4  -4   0    0.95    0.10
  -4  -4   0    1.03    0.11
  -4   4   0    1.27    0.15
   5  -4   0    1.51    0.13
   5  -4   0    1.67    0.12
  -5  -4   0    1.46    0.16
  -5   4   0    1.66    0.18
   6  -4   0   22.74    0.62
   6  -4   0   23.73    0.59
  -6  -4   0   23.02    0.70
  -6   4   0   22.32    0.70
   7  -4   0    0.50    0.10
  -7  -4   0    0.48    0.13
   7  -4   0    0.40    0.10
  -7   4   0    0.60    0.14
   8  -4   0    1.86    0.19
   8  -4   0    1.91    0.18
  -8  -4   0    1.87    0.23
  -8   4   0    2.10    0.24
  -9  -4   0    1.15    0.21
   9  -4   0    1.53    0.19
  -9   4   0    1.04    0.19
  10  -4   0    0.64    0.15
 -10  -4   0    0.63    0.18
 -10   4   0    0.46    0.17
   0  -5   0    0.07    0.04
   0  -5   0    0.13    0.04
  -1  -5   0   93.76    1.92
  -1  -5   0   96.14    1.94
  -1  -5   0   96.80    2.03
   1  -5   0   95.03    1.90
   1  -5   0   96.03    1.93
  -1   5   0   96.37    2.02
   2  -5   0   30.93    0.65
  -2  -5   0   31.67    0.72
  -2  -5   0   31.56    0.75
   2  -5   0   31.02    0.71
  -2  -5   0   30.44    0.69
  -2   5   0   30.32    0.73
  -3  -5   0  104.14    2.15
  -3  -5   0  104.97    2.24
   3  -5   0  102.82    2.06
   3  -5   0  101.28    2.11
  -3   5   0  102.69    2.23
   4  -5   0   64.99    1.35
   4  -5   0   66.35    1.42
  -4  -5   0   65.56    1.45
  -4  -5   0   66.99    1.51
  -4   5   0   64.18    1.51
   5  -5   0   12.69    0.40
  -5  -5   0   12.13    0.44
   5  -5   0   12.27    0.34
  -5   5   0   12.15    0.45
   6  -5   0   46.33    0.99
   6  -5   0   42.47    1.04
  -6  -5   0   45.38    1.16
  -6   5   0   42.21    1.14
  -7  -5   0   20.61    0.69
   7  -5   0   20.77    0.55
   7  -5   0   20.29    0.61
  -7   5   0   20.08    0.68
   8  -5   0    7.88    0.35
  -8  -5   0    7.43    0.41
  -8   5   0    8.23    0.42
   9  -5   0    9.70    0.41
  -9  -5   0    9.08    0.47
  -9   5   0   10.06    0.48
 -10  -5   0    1.69    0.26
  10  -5   0    1.62    0.20
 -10   5   0    1.78    0.26
   0  -6   0   54.04    1.16
   0  -6   0   54.11    1.13
   0   6   0   54.48    1.19
  -1  -6   0   49.24    1.12
  -1  -6   0   50.08    1.07
   1  -6   0   50.45    1.08
  -1  -6   0   49.87    1.07
   1  -6   0   50.41    1.03
  -1   6   0   49.03    1.10
   1   6   0   49.29    1.11
  -2  -6   0   24.52    0.63
  -2  -6   0   25.34    0.59
   2  -6   0   24.72    0.53
  -2  -6   0   24.35    0.60
   2  -6   0   25.10    0.61
  -2   6   0   24.18    0.61
  -3  -6   0   15.12    0.40
  -3  -6   0   14.21    0.42
   3  -6   0   14.05    0.34
  -3  -6   0   14.44    0.44
  -3   6   0   14.97    0.44
   4  -6   0   60.99    1.25
  -4  -6   0   63.11    1.38
  -4  -6   0   59.52    1.42
   4  -6   0   59.02    1.34
  -4   6   0   61.07    1.43
  -5  -6   0   25.74    0.71
   5  -6   0   27.07    0.69
  -5  -6   0   24.20    0.73
   5  -6   0   26.25    0.60
  -5   6   0   25.47    0.74
   6  -6   0    9.54    0.36
  -6  -6   0    9.51    0.40
  -6   6   0    9.28    0.41
   7  -6   0    4.82    0.26
  -7  -6   0    4.87    0.30
  -7   6   0    5.40    0.33
  -8  -6   0   21.83    0.75
   8  -6   0   21.11    0.66
  -8   6   0   21.38    0.74
  -9  -6   0   30.63    0.99
   9  -6   0   28.97    0.86
  -9   6   0   33.07    0.99
  10  -6   0    6.82    0.37
 -10  -6   0    6.06    0.42
 -10   6   0    6.51    0.42
   0  -7   0    0.06    0.06
   0  -7   0    0.04    0.04
   0   7   0    0.10    0.05
  -1  -7   0   42.05    0.93
  -1  -7   0   43.30    0.95
   1  -7   0   41.47    0.89
   1  -7   0   41.34    0.96
   1   7   0   42.79    0.97
  -1   7   0   42.43    0.97
   2  -7   0   26.84    0.66
  -2  -7   0   25.45    0.64
  -2  -7   0   26.62    0.68
   2  -7   0   25.85    0.57
  -2  -7   0   26.68    0.64
  -2   7   0   25.80    0.66
   3  -7   0   33.83    0.71
  -3  -7   0   33.17    0.78
  -3  -7   0   32.62    0.81
  -3  -7   0   34.35    0.85
  -3   7   0   33.11    0.84
  -4  -7   0   82.74    1.86
   4  -7   0   82.59    1.76
  -4  -7   0   78.42    1.77
  -4   7   0   80.49    1.84
   5  -7   0    8.54    0.34
  -5  -7   0    8.11    0.35
  -5  -7   0    8.89    0.36
  -5   7   0    7.88    0.37
   6  -7   0   22.63    0.66
  -6  -7   0   23.63    0.72
  -6   7   0   22.00    0.72
   7  -7   0   12.18    0.45
  -7  -7   0   11.81    0.50
  -7   7   0   12.38    0.51
   8  -7   0    6.02    0.32
  -8  -7   0    5.59    0.35
  -8   7   0    5.71    0.37
   9  -7   0    0.10    0.10
  -9  -7   0    0.25    0.14
  -9   7   0    0.04    0.14
   0  -8   0   80.59    1.65
   0  -8   0   81.07    1.69
   0   8   0   77.53    1.74
   1  -8   0  155.26    3.13
   1  -8   0  157.97    3.07
  -1  -8   0  148.93    3.10
  -1  -8   0  155.80    3.12
   1   8   0  155.90    3.25
  -1   8   0  152.18    3.25
  -2  -8   0   57.34    1.32
  -2  -8   0   57.01    1.25
  -2  -8   0   55.92    1.25
   2  -8   0   55.90    1.17
   2  -8   0   55.09    1.27
  -2   8   0   58.54    1.30
  -3  -8   0    4.72    0.24
  -3  -8   0    4.58    0.22
   3  -8   0    4.88    0.25
  -3  -8   0    4.68    0.23
  -3   8   0    4.61    0.26
   4  -8   0    5.41    0.27
  -4  -8   0    5.66    0.27
  -4  -8   0    5.84    0.29
  -4   8   0    5.98    0.31
  -5  -8   0    7.24    0.34
  -5  -8   0    7.05    0.32
   5  -8   0    7.02    0.32
  -5   8   0    6.85    0.35
   6  -8   0   29.32    0.82
  -6  -8   0   30.06    0.88
  -6   8   0   29.87    0.89
  -7  -8   0    0.73    0.16
   7  -8   0    0.78    0.15
  -7   8   0    0.59    0.17
   8  -8   0    1.04    0.17
  -8  -8   0    1.23    0.20
  -8   8   0    1.10    0.21
   9  -8   0    2.03    0.24
  -9  -8   0    1.55    0.24
  -9   8   0    1.82    0.27
   0  -9   0   -0.01    0.05
   0  -9   0    0.03    0.08
   0   9   0    0.05    0.07
   1  -9   0   57.59    1.29
   1  -9   0   57.82    1.19
  -1  -9   0   54.48    1.23
  -1  -9   0   57.07    1.26
   1   9   0   55.18    1.29
  -1   9   0   55.98    1.29
  -2  -9   0    3.64    0.20
  -2  -9   0    4.11    0.22
   2  -9   0    3.87    0.22
   2   9   0    3.64    0.20
  -2   9   0    3.39    0.22
   3  -9   0   17.20    0.54
  -3  -9   0   17.22    0.54
  -3  -9   0   17.84    0.51
  -3  -9   0   17.16    0.52
  -3   9   0   17.55    0.53
  -4  -9   0   27.00    0.75
  -4  -9   0   27.68    0.78
   4  -9   0   26.93    0.76
  -4   9   0   28.87    0.79
   5  -9   0   10.74    0.43
  -5  -9   0   10.27    0.43
  -5   9   0   11.88    0.48
  -6  -9   0    9.07    0.42
   6  -9   0    8.98    0.40
  -6   9   0    8.97    0.43
  -7  -9   0   18.74    0.68
   7  -9   0   16.93    0.61
  -7   9   0   20.05    0.69
   8  -9   0    1.18    0.19
  -8  -9   0    1.40    0.22
  -8   9   0    0.84    0.21
   9  -9   0    6.07    0.36
  -9  -9   0    6.27    0.41
   0 -10   0   16.26    0.50
   0  10   0   15.31    0.46
  -1 -10   0    5.11    0.25
  -1 -10   0    4.91    0.22
   1 -10   0    5.23    0.26
   1  10   0    5.04    0.24
  -1  10   0    4.66    0.23
  -2 -10   0   15.21    0.46
  -2 -10   0   14.94    0.47
   2 -10   0   15.43    0.50
   2  10   0   14.49    0.47
  -2  10   0   15.20    0.47
  -3 -10   0   12.44    0.43
  -3 -10   0   12.48    0.44
  -3 -10   0   12.14    0.42
   3 -10   0   12.73    0.46
   3  10   0   12.80    0.44
  -3  10   0   12.35    0.44
   4 -10   0   26.02    0.76
  -4 -10   0   26.51    0.78
  -4 -10   0   27.19    0.75
  -4  10   0   27.85    0.79
  -5 -10   0   10.09    0.42
   5 -10   0    9.99    0.42
  -5  10   0    9.62    0.44
   6 -10   0    0.96    0.17
  -6 -10   0    0.90    0.17
  -6  10   0    0.71    0.19
  -7 -10   0    5.02    0.34
   7 -10   0    4.73    0.31
  -8 -10   0    2.47    0.28
   8 -10   0    2.37    0.26
   0 -11   0   -0.06    0.07
   0  11   0    0.04    0.07
   1 -11   0    0.86    0.14
  -1 -11   0    0.69    0.13
  -1  11   0    0.86    0.13
   1  11   0    0.85    0.13
  -2 -11   0    9.88    0.36
  -2 -11   0    9.87    0.38
   2 -11   0    9.69    0.40
  -2  11   0   10.18    0.38
   2  11   0    9.29    0.36
   3 -11   0   15.89    0.54
  -3 -11   0   15.40    0.50
  -3 -11   0   15.57    0.50
  -3  11   0   14.54    0.51
   3  11   0   15.47    0.51
   4 -11   0    5.02    0.30
  -4 -11   0    4.59    0.27
  -4 -11   0    5.03    0.29
  -5 -11   0   14.42    0.54
   5 -11   0   13.28    0.52
   6 -11   0    7.22    0.38
  -6 -11   0    7.94    0.40
  -7 -11   0   19.64    0.72
   7 -11   0   20.01    0.70
   0 -12   0   30.23    0.84
   1 -12   0   13.35    0.50
  -1 -12   0   14.11    0.50
   1  12   0   13.93    0.46
  -2 -12   0    4.80    0.27
   2 -12   0    4.13    0.28
   2  12   0    4.76    0.26
   3 -12   0    3.79    0.28
  -3 -12   0    4.19    0.25
   3  12   0    4.69    0.26
   4 -12   0   10.26    0.44
   4  12   0   10.19    0.42
   5 -12   0    4.95    0.32
  -5 -12   0    4.65    0.30
  -6 -12   0    0.13    0.12
   6 -12   0    0.12    0.12
   7 -12   0    0.70    0.17
  -7 -12   0    0.75    0.18
   0 -13   0    0.06    0.09
  -1 -13   0    4.93    0.30
   1 -13   0    4.68    0.29
   2 -13   0    9.79    0.43
  -2 -13   0   10.44    0.43
  -3 -13   0    5.52    0.30
   3 -13   0    5.90    0.34
   4 -13   0    2.01    0.24
   5 -13   0    8.24    0.42
   6 -13   0    1.14    0.20
   0 -14   0    7.51    0.38
   1 -14   0    1.13    0.19
  -1 -14   0    1.09    0.18
   2 -14   0    0.14    0.13
  -2 -14   0    0.39    0.13
   3 -14   0    1.55    0.22
  -3 -14   0    1.53    0.20
   4 -14   0    1.94    0.25
   0 -15   0   -0.10    0.11
   1 -15   0    5.94    0.36
  -1 -15   0    5.21    0.34
  -2 -15   0    1.41    0.21
   2 -15   0    1.25    0.21
  11   0  -1   10.76    0.47
 -11   0   1    9.61    0.52
 -10   0   1   12.84    0.58
  10   0  -1   13.04    0.50
  -9   0   1   10.33    0.48
  -8   0   1    0.54    0.14
   8   0  -1    0.79    0.12
   7   0  -1   20.63    0.53
  -7   0   1   19.50    0.65
  -6   0   1   54.29    1.33
  -5   0   1    0.28    0.09
  -4   0   1   13.84    0.42
  -3   0   1   48.83    1.10
  -2   0   1   12.35    0.32
   2   0  -1   12.12    0.27
  -1   0   1  161.82    3.47
   1   0  -1  160.84    3.15
   0   0  -1  132.37    2.76
   0   0  -1  129.58    2.67
  -1   0  -1   56.03    1.14
  -2   0  -1   25.93    0.57
  -2   0  -1   27.15    0.63
  -3   0  -1  107.63    2.28
  -3   0  -1  105.04    2.15
  -4   0  -1    2.53    0.14
  -5   0  -1    0.02    0.08
  -6   0  -1   11.19    0.43
  -7   0  -1    2.08    0.22
  -8   0  -1    4.22    0.30
  -9   0  -1    1.28    0.21
 -10   0  -1    0.87    0.21
  10   0   1    0.70    0.15
 -11   0  -1   -0.04    0.12
  11  -1  -1    1.40    0.21
 -11  -1   1    1.24    0.23
 -11   1   1    1.24    0.23
  11   1  -1    1.61    0.22
 -10  -1   1   10.21    0.51
  10  -1  -1    9.83    0.43
 -10   1   1   10.54    0.51
  -9  -1   1    4.55    0.33
   9  -1  -1    4.40    0.27
  -9   1   1    4.40    0.32
   8  -1  -1   32.39    0.80
  -8  -1   1   32.10    0.95
  -8   1   1   31.35    0.93
   8   1  -1   31.46    0.78
  -7  -1   1   23.22    0.73
   7  -1  -1   24.65    0.62
  -7   1   1   23.90    0.73
   6  -1  -1   26.86    0.65
  -6  -1   1   27.77    0.77
  -6   1   1   25.89    0.75
  -5  -1   1   60.71    1.44
   5  -1  -1   62.01    1.29
  -5   1   1   62.48    1.43
   4  -1  -1   56.70    1.18
  -4  -1   1   57.04    1.30
  -4   1   1   57.03    1.30
   3  -1  -1  127.76    2.50
  -3  -1   1  128.00    2.70
  -3   1   1  128.09    2.69
  -2  -1   1  162.11    3.41
   2  -1  -1  163.46    3.25
   2  -1  -1  160.62    3.19
  -2   1   1  175.18    3.41
  -1  -1   1   17.72    0.35
   1  -1  -1   17.60    0.37
  -1  -1   1   18.14    0.41
   1   1  -1   17.46    0.34
  -1   1   1   17.76    0.39
   0  -1  -1   69.84    1.41
   0  -1  -1   68.21    1.35
   0   1  -1   69.47    1.36
   0   1  -1   68.89    1.43
  -1  -1  -1  137.76    2.73
  -1  -1  -1  136.26    2.84
  -1   1  -1  138.44    2.84
  -1   1  -1  141.29    2.70
  -2  -1  -1    0.67    0.08
  -2  -1  -1    0.45    0.06
  -2   1  -1    0.38    0.04
  -2   1  -1    0.41    0.08
  -3  -1  -1   17.97    0.44
  -3  -1  -1   17.10    0.48
  -3   1  -1   17.40    0.42
  -3   1  -1   18.24    0.49
  -4  -1  -1   63.95    1.37
  -4  -1  -1   63.63    1.46
  -4   1  -1   64.94    1.47
  -5  -1  -1   18.23    0.56
  -5   1  -1   18.49    0.57
  -6  -1  -1   23.25    0.70
  -6   1  -1   23.78    0.71
  -7  -1  -1    5.97    0.32
  -7   1  -1    5.21    0.31
  -8  -1  -1   21.36    0.73
  -8   1  -1   21.31    0.72
   9  -1   1    7.48    0.34
  -9  -1  -1    7.54    0.42
  -9   1  -1    7.84    0.43
  10  -1   1   15.77    0.54
 -10  -1  -1   15.55    0.65
 -10   1  -1   14.60    0.64
  11  -2  -1    3.48    0.27
 -11  -2   1    4.45    0.36
 -11   2   1    4.57    0.35
  10  -2  -1   12.89    0.50
 -10  -2   1   13.07    0.60
 -10   2   1   13.79    0.59
  -9  -2   1    7.45    0.41
   9  -2  -1    7.64    0.32
   9  -2  -1    7.42    0.34
  -9   2   1    6.58    0.39
  -8  -2   1    1.60    0.21
   8  -2  -1    1.92    0.17
   8  -2  -1    1.60    0.18
  -8   2   1    1.62    0.21
   7  -2  -1   16.21    0.47
   7  -2  -1   16.17    0.49
  -7  -2   1   16.14    0.57
  -7   2   1   16.87    0.57
   6  -2  -1   37.43    0.90
  -6  -2   1   38.04    1.01
   6  -2  -1   39.85    0.89
  -6   2   1   38.02    0.99
   5  -2  -1   14.87    0.41
   5  -2  -1   15.07    0.40
  -5  -2   1   14.59    0.47
  -4  -2   1   25.71    0.68
   4  -2  -1   26.31    0.60
   4  -2  -1   26.58    0.61
  -4   2   1   25.83    0.67
   3  -2  -1  110.08    2.18
   3  -2  -1  110.13    2.21
  -3  -2   1  108.91    2.35
  -3   2   1  110.75    2.33
   2  -2  -1   14.93    0.35
   2  -2  -1   14.76    0.34
  -2   2   1   14.10    0.37
   1  -2  -1   48.67    0.98
   1  -2  -1   48.02    0.97
  -1  -2   1   48.35    0.94
  -1   2   1   47.38    1.01
   0  -2  -1  203.13    3.89
   0  -2   1  201.23    3.88
   0  -2  -1  198.57    4.11
   0  -2  -1  199.08    4.14
   0   2  -1  205.21    4.12
   1  -2   1   68.21    1.36
  -1  -2  -1   70.32    1.43
  -1  -2  -1   66.47    1.36
  -2  -2  -1  204.20    3.93
  -2  -2  -1  197.52    4.10
  -2   2  -1  194.94    4.11
  -3  -2  -1   47.69    1.10
  -3  -2  -1   48.07    1.05
  -3   2  -1   48.67    1.12
  -4  -2  -1   13.07    0.41
  -4  -2  -1   12.95    0.38
  -4   2  -1   12.81    0.43
  -5  -2  -1   74.89    1.70
  -5  -2  -1   73.06    1.60
  -5   2  -1   72.84    1.71
  -6  -2  -1   68.34    1.63
  -6   2  -1   67.49    1.63
  -7  -2  -1   31.04    0.89
   7  -2   1   29.63    0.78
  -7   2  -1   30.19    0.89
  -8  -2  -1   13.18    0.53
   8  -2   1   12.60    0.45
  -8   2  -1   12.76    0.53
   9  -2   1    2.59    0.21
  -9  -2  -1    2.60    0.28
  -9   2  -1    2.93    0.27
 -10  -2  -1    5.77    0.39
  10  -2   1    6.02    0.32
 -10   2  -1    4.67    0.36
 -10  -3   1    2.50    0.29
  10  -3  -1    2.49    0.24
 -10   3   1    2.30    0.28
  -9  -3   1    8.53    0.45
   9  -3  -1    9.66    0.38
   9  -3  -1    8.56    0.37
  -9   3   1    8.19    0.43
   8  -3  -1    0.26    0.10
   8  -3  -1    0.13    0.09
  -8  -3   1    0.19    0.12
  -8   3   1    0.24    0.13
  -7  -3   1   15.80    0.58
   7  -3  -1   16.94    0.49
   7  -3  -1   17.11    0.49
  -7   3   1   16.11    0.56
  -6  -3   1   24.32    0.72
   6  -3  -1   24.97    0.63
   6  -3  -1   24.48    0.63
  -6   3   1   24.41    0.70
   5  -3  -1   65.88    1.39
   5  -3  -1   67.32    1.40
  -5  -3   1   63.65    1.53
  -5   3   1   64.12    1.51
   4  -3  -1   11.31    0.33
   4  -3  -1   11.41    0.32
  -4  -3   1   11.52    0.38
  -4   3   1   11.79    0.38
  -3  -3   1   59.56    1.35
   3  -3  -1   60.34    1.25
   3  -3  -1   59.73    1.25
  -3   3   1   61.55    1.33
  -2  -3   1   48.25    1.07
  -2  -3   1   47.50    0.95
   2  -3  -1   47.59    0.99
   2  -3  -1   47.95    0.98
  -2   3   1   46.67    1.04
   1  -3  -1   95.97    1.97
  -1  -3   1  100.88    2.10
   1  -3  -1  103.13    1.99
  -1  -3   1  101.18    1.95
  -1   3   1   97.72    2.05
   0  -3  -1  189.64    3.68
   0  -3  -1  189.05    3.63
   0  -3   1  189.28    3.62
   0   3   1  182.35    3.83
   0   3  -1  185.29    3.84
  -1  -3  -1   45.14    0.95
   1  -3   1   44.57    0.92
  -1  -3  -1   44.33    0.93
  -1   3  -1   42.66    0.97
   2  -3   1    0.72    0.04
  -2  -3  -1    0.72    0.08
   2  -3   1    0.77    0.07
  -2  -3  -1    0.63    0.07
  -2   3  -1    0.52    0.08
  -3  -3  -1   22.23    0.57
  -3   3  -1   21.52    0.58
  -4  -3  -1   24.61    0.66
  -4  -3  -1   24.72    0.63
   4  -3   1   25.42    0.61
  -4   3  -1   24.09    0.67
  -5  -3  -1   53.17    1.25
  -5  -3  -1   54.46    1.31
   5  -3   1   55.72    1.21
  -5   3  -1   55.11    1.33
  -6  -3  -1   18.12    0.59
   6  -3   1   17.77    0.52
  -6   3  -1   17.42    0.59
   7  -3   1   11.87    0.41
  -7  -3  -1   11.48    0.47
  -7   3  -1   12.30    0.50
   8  -3   1   18.47    0.57
  -8  -3  -1   18.12    0.66
  -8   3  -1   17.69    0.65
   9  -3   1   25.19    0.70
  -9  -3  -1   23.55    0.82
   9  -3   1   24.16    0.72
  -9   3  -1   24.30    0.83
  10  -3   1    1.94    0.22
 -10  -3  -1    2.16    0.27
 -10   3  -1    1.46    0.25
 -10  -4   1    1.89    0.26
 -10   4   1    1.74    0.25
  -9  -4   1    6.78    0.41
   9  -4  -1    7.30    0.33
   9  -4  -1    7.85    0.35
  -9   4   1    7.76    0.41
  -8  -4   1    1.64    0.22
   8  -4  -1    1.78    0.17
   8  -4  -1    1.67    0.18
  -8   4   1    1.57    0.21
   7  -4  -1    1.62    0.16
   7  -4  -1    1.67    0.16
  -7  -4   1    1.66    0.21
  -7   4   1    2.34    0.20
   6  -4  -1   31.01    0.78
  -6  -4   1   31.07    0.88
   6  -4  -1   33.14    0.77
  -6   4   1   32.33    0.87
   5  -4  -1    3.34    0.18
   5  -4  -1    2.79    0.15
  -5  -4   1    3.34    0.21
  -5   4   1    2.67    0.21
   4  -4  -1    6.27    0.20
  -4  -4   1    5.69    0.25
   4  -4  -1    6.05    0.22
  -4   4   1    5.36    0.25
   3  -4  -1   74.92    1.53
   3  -4  -1   76.50    1.56
  -3  -4   1   75.46    1.67
  -3   4   1   74.09    1.64
   2  -4  -1   20.76    0.50
  -2  -4   1   22.19    0.54
  -2  -4   1   20.87    0.47
   2  -4  -1   20.67    0.47
  -2   4   1   19.78    0.50
   1  -4  -1   47.49    0.98
  -1  -4   1   46.78    1.06
  -1  -4   1   48.40    0.97
  -1  -4   1   47.17    0.99
  -1   4   1   48.02    1.01
   0  -4  -1    8.75    0.25
   0  -4   1    8.30    0.24
   0  -4   1    8.95    0.21
   0  -4  -1    8.81    0.24
   0   4   1    9.16    0.22
   0   4  -1    9.31    0.26
  -1  -4  -1  324.35    6.11
  -1  -4  -1  305.90    6.38
  -1  -4  -1  317.68    6.44
   1  -4   1  315.60    6.10
  -1   4  -1  314.71    6.46
   2  -4   1  230.40    4.45
  -2  -4  -1  232.07    4.55
  -2  -4  -1  230.64    4.73
   2  -4   1  224.29    4.48
  -2  -4  -1  231.98    4.47
  -2   4  -1  227.30    4.74
  -3  -4  -1  110.46    2.35
   3  -4   1  109.48    2.22
   3  -4   1  108.11    2.16
  -3  -4  -1  111.39    2.27
  -3   4  -1  108.57    2.36
   4  -4   1   64.44    1.39
   4  -4   1   65.48    1.33
  -4  -4  -1   64.82    1.49
  -4  -4  -1   65.97    1.43
  -4   4  -1   64.25    1.51
   5  -4   1   39.23    0.86
  -5  -4  -1   39.46    0.96
  -5  -4  -1   39.56    1.01
   5  -4   1   39.66    0.93
  -5   4  -1   39.17    1.02
   6  -4   1    1.25    0.14
   6  -4   1    1.28    0.12
  -6  -4  -1    0.98    0.15
  -6  -4  -1    0.94    0.14
  -6   4  -1    1.04    0.18
   7  -4   1    6.27    0.29
  -7  -4  -1    6.14    0.34
   7  -4   1    6.15    0.25
  -7   4  -1    5.73    0.35
   8  -4   1   22.01    0.66
  -8  -4  -1   21.26    0.74
  -8   4  -1   22.11    0.75
  -9  -4  -1    0.97    0.19
   9  -4   1    1.26    0.18
  -9   4  -1    1.05    0.21
  10  -4   1    0.43    0.14
 -10  -4  -1    0.21    0.15
 -10   4  -1    0.38    0.17
 -10  -5   1    3.31    0.34
  10  -5  -1    3.36    0.25
 -10   5   1    3.26    0.33
  -9  -5   1   14.07    0.60
   9  -5  -1   13.76    0.50
  -9   5   1   14.39    0.58
  -8  -5   1   46.57    1.31
   8  -5  -1   47.39    1.16
   8  -5  -1   48.23    1.13
  -8   5   1   48.56    1.28
   7  -5  -1   12.84    0.41
   7  -5  -1   12.64    0.43
  -7  -5   1   12.41    0.51
  -7   5   1   12.82    0.49
  -6  -5   1    0.77    0.14
   6  -5  -1    0.89    0.11
   6  -5  -1    0.80    0.12
  -6   5   1    0.64    0.14
  -5  -5   1    3.82    0.24
   5  -5  -1    4.19    0.21
   5  -5  -1    4.36    0.19
  -5   5   1    4.56    0.26
  -4  -5   1   15.05    0.48
   4  -5  -1   14.62    0.43
   4  -5  -1   15.52    0.39
  -4   5   1   15.77    0.47
  -3  -5   1    4.48    0.21
   3  -5  -1    4.76    0.16
   3  -5  -1    4.40    0.19
  -3   5   1    4.05    0.21
   2  -5  -1   17.96    0.42
  -2  -5   1   18.13    0.43
  -2  -5   1   18.31    0.46
   2  -5  -1   18.28    0.47
  -2  -5   1   18.33    0.49
  -2   5   1   17.97    0.46
  -1  -5   1   21.96    0.51
  -1  -5   1   22.67    0.51
   1  -5  -1   22.04    0.50
   1  -5  -1   21.40    0.53
  -1  -5   1   21.36    0.55
   1   5  -1   22.49    0.55
  -1   5   1   22.60    0.51
   0  -5   1    1.40    0.09
   0  -5  -1    1.41    0.09
   0  -5  -1    1.19    0.09
   0   5  -1    1.18    0.10
   0   5   1    1.30    0.08
  -1  -5  -1   49.63    1.06
  -1  -5  -1   50.58    1.06
   1  -5   1   50.14    0.98
  -1  -5  -1   48.98    1.08
   1  -5   1   48.77    1.05
  -1   5  -1   49.38    1.10
  -2  -5  -1    6.64    0.23
   2  -5   1    6.28    0.22
  -2  -5  -1    5.75    0.21
  -2  -5  -1    6.00    0.22
  -2   5  -1    6.18    0.24
  -3  -5  -1   42.64    1.01
   3  -5   1   42.32    0.96
  -3  -5  -1   42.28    0.98
   3  -5   1   43.16    0.87
  -3   5  -1   44.09    1.02
   4  -5   1   19.66    0.44
  -4  -5  -1   19.56    0.55
  -4  -5  -1   19.25    0.56
  -4   5  -1   19.17    0.59
  -5  -5  -1  104.34    2.23
  -5  -5  -1  104.47    2.33
   5  -5   1  101.05    2.18
   5  -5   1  105.46    2.10
  -5   5  -1  103.56    2.35
   6  -5   1   50.44    1.22
  -6  -5  -1   52.98    1.32
   6  -5   1   54.88    1.15
  -6   5  -1   51.74    1.34
   7  -5   1   16.20    0.52
  -7  -5  -1   15.44    0.57
  -7   5  -1   15.47    0.59
  -8  -5  -1    5.58    0.35
   8  -5   1    6.15    0.32
  -8   5  -1    5.65    0.37
   9  -5   1    4.77    0.29
  -9  -5  -1    4.79    0.34
  -9   5  -1    4.29    0.34
  10  -5   1   26.68    0.82
 -10  -5  -1   25.97    0.92
 -10   5  -1   26.30    0.92
 -10  -6   1    4.18    0.35
  10  -6  -1    4.05    0.28
 -10   6   1    3.85    0.34
  -9  -6   1    0.45    0.15
   9  -6  -1    0.35    0.13
  -9   6   1    0.57    0.17
   8  -6  -1    0.27    0.11
  -8  -6   1    0.36    0.13
  -8   6   1    0.27    0.13
  -7  -6   1    1.17    0.18
   7  -6  -1    1.48    0.17
  -7   6   1    1.16    0.18
  -6  -6   1   40.19    1.09
   6  -6  -1   39.94    0.98
   6  -6  -1   40.63    0.93
  -6   6   1   40.75    1.06
   5  -6  -1   24.63    0.59
   5  -6  -1   23.95    0.65
  -5  -6   1   24.39    0.72
  -5   6   1   24.27    0.70
   4  -6  -1    3.07    0.14
   4  -6  -1    3.13    0.18
  -4  -6   1    2.84    0.19
  -4   6   1    3.46    0.22
   3  -6  -1   13.45    0.34
  -3  -6   1   13.66    0.43
   3  -6  -1   13.23    0.40
  -3  -6   1   13.37    0.36
  -3   6   1   13.68    0.41
  -2  -6   1   24.84    0.60
  -2  -6   1   24.13    0.57
  -2  -6   1   24.04    0.64
   2  -6  -1   24.99    0.56
   2  -6  -1   24.92    0.61
  -2   6   1   25.26    0.60
   1  -6  -1   15.97    0.39
  -1  -6   1   15.85    0.39
   1  -6  -1   15.46    0.43
  -1  -6   1   15.16    0.40
  -1   6   1   16.49    0.40
   1   6  -1   16.18    0.44
   0  -6   1   50.79    1.05
   0  -6  -1   50.96    1.09
   0  -6  -1   51.55    1.11
   0  -6   1   50.78    1.09
   0   6   1   51.26    1.11
   0   6  -1   52.69    1.15
  -1  -6  -1   86.75    1.84
  -1  -6  -1   84.46    1.79
   1  -6   1   87.19    1.70
  -1  -6  -1   87.61    1.78
   1  -6   1   85.29    1.78
  -1   6  -1   87.07    1.87
  -2  -6  -1    0.72    0.09
  -2  -6  -1    0.97    0.10
  -2  -6  -1    0.72    0.09
   2  -6   1    0.55    0.09
  -2   6  -1    0.67    0.10
   3  -6   1   12.72    0.27
   3  -6   1   11.45    0.37
  -3  -6  -1   11.97    0.38
  -3  -6  -1   12.88    0.39
  -3   6  -1   12.33    0.41
   4  -6   1   15.55    0.46
  -4  -6  -1   15.64    0.48
  -4  -6  -1   15.15    0.47
   4  -6   1   15.11    0.35
  -4   6  -1   15.00    0.51
  -5  -6  -1   10.25    0.39
   5  -6   1    9.94    0.36
  -5  -6  -1    9.37    0.38
  -5   6  -1    9.93    0.43
   6  -6   1   17.18    0.53
  -6  -6  -1   15.13    0.55
  -6   6  -1   15.71    0.58
   7  -6   1   19.69    0.61
  -7  -6  -1   18.83    0.66
  -7   6  -1   19.91    0.69
  -8  -6  -1   23.40    0.79
   8  -6   1   23.78    0.72
  -8   6  -1   23.71    0.81
   9  -6   1    0.48    0.14
  -9  -6  -1    0.34    0.15
  -9   6  -1    0.25    0.16
  10  -6   1    3.85    0.29
 -10  -6  -1    3.68    0.34
 -10   6  -1    4.42    0.37
  -9  -7   1    2.09    0.27
   9  -7  -1    2.16    0.22
  -9   7   1    1.72    0.24
   8  -7  -1    2.72    0.21
  -8  -7   1    2.30    0.26
  -8   7   1    2.68    0.27
   7  -7  -1    3.22    0.23
  -7  -7   1    3.14    0.26
  -7   7   1    2.83    0.25
  -6  -7   1    8.55    0.39
   6  -7  -1    8.44    0.35
  -6   7   1    8.33    0.38
  -5  -7   1   27.48    0.80
   5  -7  -1   27.03    0.74
   5  -7  -1   27.57    0.66
  -5   7   1   29.00    0.78
   4  -7  -1    8.00    0.31
   4  -7  -1    7.49    0.24
  -4  -7   1    7.27    0.32
  -4   7   1    8.03    0.33
   3  -7  -1    8.35    0.31
  -3  -7   1    7.82    0.26
   3  -7  -1    8.44    0.25
  -3  -7   1    8.19    0.32
  -3   7   1    8.33    0.31
   2  -7  -1   13.68    0.35
  -2  -7   1   14.20    0.43
  -2  -7   1   13.14    0.38
   2  -7  -1   13.10    0.41
  -2  -7   1   13.19    0.37
  -2   7   1   13.17    0.38
   1  -7  -1   88.72    1.83
  -1  -7   1   84.34    1.79
  -1  -7   1   89.57    1.80
   1  -7  -1   85.49    1.79
   1   7  -1   87.15    1.90
  -1   7   1   88.19    1.86
   0  -7  -1   30.93    0.70
   0  -7   1   29.35    0.65
   0  -7  -1   30.53    0.73
   0  -7   1   30.19    0.71
   0   7  -1   29.63    0.73
   0   7   1   29.40    0.70
   1  -7   1   37.67    0.80
  -1  -7  -1   39.94    0.89
   1  -7   1   38.77    0.90
  -1  -7  -1   39.89    0.91
  -1  -7  -1   39.78    0.91
  -1   7  -1   39.19    0.93
   1   7   1   40.10    0.90
  -2  -7  -1   35.73    0.82
  -2  -7  -1   33.31    0.82
   2  -7   1   34.91    0.82
  -2  -7  -1   34.11    0.81
  -2   7  -1   33.64    0.84
   3  -7   1    9.10    0.33
  -3  -7  -1    8.98    0.33
  -3  -7  -1    8.97    0.31
  -3  -7  -1    9.19    0.33
  -3   7  -1    8.61    0.34
  -4  -7  -1    2.06    0.17
   4  -7   1    2.32    0.18
  -4  -7  -1    1.88    0.17
  -4   7  -1    1.78    0.21
  -5  -7  -1    3.57    0.23
   5  -7   1    4.02    0.24
  -5  -7  -1    3.99    0.24
  -5   7  -1    4.04    0.30
  -6  -7  -1    1.53    0.19
   6  -7   1    1.56    0.18
  -6  -7  -1    1.65    0.18
  -6   7  -1    1.52    0.21
  -7  -7  -1   13.24    0.53
   7  -7   1   13.37    0.49
  -7   7  -1   13.48    0.55
   8  -7   1    8.88    0.40
  -8  -7  -1    8.16    0.42
  -8   7  -1    8.76    0.46
   9  -7   1   11.53    0.49
  -9  -7  -1   10.84    0.53
  -9   7  -1   12.13    0.57
  -9  -8   1    3.29    0.33
   9  -8  -1    3.38    0.26
   8  -8  -1    4.33    0.29
  -8  -8   1    4.44    0.32
  -8   8   1    4.92    0.34
  -7  -8   1    5.88    0.35
   7  -8  -1    5.85    0.31
  -7   8   1    5.52    0.33
  -6  -8   1    6.03    0.33
   6  -8  -1    6.27    0.31
  -6   8   1    6.68    0.35
  -5  -8   1    9.50    0.41
   5  -8  -1   10.21    0.39
  -5   8   1   10.78    0.42
   4  -8  -1   12.22    0.43
  -4  -8   1   12.21    0.45
  -4   8   1   12.35    0.44
  -3  -8   1   26.61    0.74
  -3  -8   1   27.22    0.66
   3  -8  -1   26.61    0.72
   3  -8  -1   26.96    0.63
  -3   8   1   28.01    0.71
   2  -8  -1   39.77    0.89
  -2  -8   1   39.44    0.92
  -2  -8   1   39.75    0.93
  -2  -8   1   41.47    1.01
  -2   8   1   42.74    0.96
   2   8  -1   41.20    0.99
   1  -8  -1   66.46    1.40
  -1  -8   1   60.69    1.35
  -1  -8   1   61.48    1.33
   1  -8  -1   60.94    1.33
   1   8  -1   63.10    1.43
  -1   8   1   64.89    1.38
   0  -8   1   20.49    0.47
   0  -8  -1   19.70    0.55
   0  -8  -1   18.94    0.50
   0  -8   1   18.95    0.53
   0   8   1   20.39    0.51
   0   8  -1   19.59    0.54
  -1  -8  -1    9.76    0.32
  -1  -8  -1   10.53    0.35
   1  -8   1    9.46    0.24
   1  -8   1    9.68    0.34
   1   8   1   10.49    0.32
  -1   8  -1   10.23    0.34
   2  -8   1   37.53    0.90
  -2  -8  -1   36.96    0.90
  -2  -8  -1   37.34    0.89
  -2  -8  -1   36.35    0.88
  -2   8  -1   37.19    0.92
   3  -8   1   28.34    0.73
  -3  -8  -1   28.75    0.72
  -3  -8  -1   27.14    0.74
  -3  -8  -1   27.40    0.73
  -3   8  -1   28.64    0.76
   4  -8   1   28.99    0.76
  -4  -8  -1   27.43    0.77
  -4  -8  -1   28.45    0.77
  -4   8  -1   28.56    0.80
  -5  -8  -1    3.14    0.23
   5  -8   1    3.04    0.22
  -5  -8  -1    3.33    0.23
  -5   8  -1    3.53    0.29
  -6  -8  -1    0.08    0.10
   6  -8   1    0.24    0.10
  -6  -8  -1    0.14    0.10
  -6   8  -1   -0.20    0.13
   7  -8   1    2.58    0.22
  -7  -8  -1    2.93    0.25
  -7   8  -1    3.02    0.31
  -8  -8  -1    1.55    0.22
   8  -8   1    1.73    0.21
  -8   8  -1    1.44    0.25
   9  -8   1    4.93    0.32
  -9  -8  -1    4.49    0.34
  -9   8  -1    4.88    0.38
  -9  -9   1    7.86    0.46
   9  -9  -1    7.59    0.40
   8  -9  -1    6.10    0.34
  -8  -9   1    6.29    0.38
  -7  -9   1   16.72    0.63
   7  -9  -1   15.40    0.57
  -6  -9   1    8.06    0.40
   6  -9  -1    8.12    0.37
  -6   9   1    8.27    0.40
   5  -9  -1    8.86    0.38
  -5  -9   1    8.77    0.40
  -5   9   1    8.73    0.39
   4  -9  -1    1.71    0.18
  -4  -9   1    1.74    0.19
  -4   9   1    1.77    0.20
  -3  -9   1    7.69    0.33
   3  -9  -1    7.45    0.33
  -3  -9   1    7.58    0.29
  -3   9   1    7.94    0.32
  -2  -9   1    7.42    0.29
   2  -9  -1    7.60    0.25
   2  -9  -1    7.95    0.32
  -2  -9   1    7.16    0.27
   2   9  -1    6.82    0.30
  -2   9   1    7.18    0.29
   1  -9  -1   14.76    0.46
   1  -9  -1   14.97    0.40
  -1  -9   1   14.96    0.40
  -1  -9   1   13.99    0.44
   1   9  -1   14.46    0.45
  -1   9   1   14.71    0.42
   0  -9   1    0.77    0.08
   0  -9  -1    0.50    0.11
   0  -9  -1    0.50    0.09
   0  -9   1    0.39    0.09
   0   9  -1    0.43    0.10
   0   9   1    0.51    0.09
  -1  -9  -1    8.39    0.33
   1  -9   1    8.96    0.34
  -1  -9  -1    9.08    0.31
  -1   9  -1    8.97    0.33
   1   9   1    9.05    0.30
   2  -9   1   18.25    0.55
  -2  -9  -1   19.15    0.54
  -2  -9  -1   18.78    0.54
  -2  -9  -1   18.56    0.54
   2   9   1   19.51    0.53
  -2   9  -1   18.63    0.55
   3  -9   1   25.10    0.70
  -3  -9  -1   26.31    0.69
  -3  -9  -1   25.13    0.69
  -3  -9  -1   24.88    0.69
  -3   9  -1   25.53    0.71
   4  -9   1   25.66    0.72
  -4  -9  -1   24.05    0.71
  -4  -9  -1   26.09    0.72
  -4   9  -1   25.26    0.74
   5  -9   1   21.52    0.65
  -5  -9  -1   21.13    0.66
  -5  -9  -1   20.73    0.66
  -5   9  -1   21.45    0.70
  -6  -9  -1   16.39    0.59
  -6  -9  -1   17.09    0.59
   6  -9   1   16.58    0.57
  -6   9  -1   16.34    0.63
   7  -9   1   10.00    0.44
  -7  -9  -1   10.08    0.46
  -7   9  -1   10.44    0.51
   8  -9   1    6.83    0.37
  -8  -9  -1    7.12    0.40
  -8   9  -1    7.16    0.44
  -8 -10   1    2.33    0.28
   8 -10  -1    2.19    0.24
   7 -10  -1   15.21    0.57
  -7 -10   1   16.01    0.63
   6 -10  -1    6.74    0.35
  -6 -10   1    6.73    0.37
  -5 -10   1   23.80    0.74
   5 -10  -1   21.94    0.69
  -4 -10   1   31.52    0.79
   4 -10  -1   31.22    0.86
  -4 -10   1   31.65    0.89
   3 -10  -1   14.42    0.50
  -3 -10   1   13.92    0.50
  -3 -10   1   15.07    0.46
   3  10  -1   14.91    0.50
   2 -10  -1   23.30    0.65
  -2 -10   1   21.07    0.60
   2  10  -1   20.96    0.62
  -2  10   1   21.55    0.59
  -1 -10   1    2.54    0.18
   1 -10  -1    2.57    0.20
  -1  10   1    2.58    0.16
   1  10  -1    2.25    0.17
   0 -10  -1    9.57    0.37
   0 -10  -1    9.71    0.32
   0 -10   1    9.55    0.36
   0  10   1    9.86    0.32
   0  10  -1    9.76    0.36
  -1 -10  -1    6.59    0.27
  -1 -10  -1    6.71    0.30
   1 -10   1    6.78    0.30
   1  10   1    7.13    0.27
  -1  10  -1    7.03    0.30
  -2 -10  -1    4.93    0.26
   2 -10   1    5.09    0.26
  -2 -10  -1    4.87    0.24
   2  10   1    5.22    0.23
  -2  10  -1    4.79    0.26
  -3 -10  -1    1.31    0.15
  -3 -10  -1    0.80    0.13
  -3 -10  -1    0.95    0.14
   3 -10   1    0.91    0.15
  -3  10  -1    1.04    0.16
   4 -10   1    3.99    0.25
  -4 -10  -1    3.62    0.24
  -4 -10  -1    3.33    0.23
  -4  10  -1    3.42    0.27
  -5 -10  -1   17.04    0.59
  -5 -10  -1   17.50    0.59
   5 -10   1   17.94    0.60
  -5  10  -1   17.74    0.64
  -6 -10  -1    7.57    0.38
   6 -10   1    7.01    0.37
  -6 -10  -1    7.08    0.37
  -6  10  -1    7.72    0.44
   7 -10   1   16.57    0.61
  -7 -10  -1   16.27    0.62
  -7  10  -1   17.05    0.68
  -8 -10  -1    1.88    0.25
   8 -10   1    1.48    0.22
  -8  10  -1    1.60    0.26
   7 -11  -1    3.79    0.30
  -7 -11   1    4.01    0.31
  -6 -11   1    2.56    0.27
   6 -11  -1    2.99    0.28
  -5 -11   1    1.69    0.22
   5 -11  -1    1.78    0.21
  -4 -11   1   11.99    0.41
   4 -11  -1   12.04    0.48
  -4 -11   1   12.03    0.48
   4  11  -1   11.18    0.45
  -3 -11   1    8.08    0.33
   3 -11  -1    8.32    0.37
   3  11  -1    8.58    0.36
   2 -11  -1    0.27    0.11
  -2 -11   1    0.19    0.09
   2  11  -1    0.43    0.11
  -1 -11   1    3.56    0.22
   1 -11  -1    3.80    0.24
   1  11  -1    3.68    0.22
   0 -11   1   18.93    0.58
   0 -11  -1   18.65    0.59
   0  11  -1   19.89    0.58
  -1 -11  -1   41.63    1.06
  -1 -11  -1   43.60    1.02
   1 -11   1   42.36    1.06
  -1  11  -1   43.12    1.07
   2 -11   1   13.22    0.48
  -2 -11  -1   12.76    0.44
  -2 -11  -1   13.53    0.47
  -2  11  -1   13.88    0.48
   2  11   1   13.99    0.44
   3 -11   1    4.05    0.26
  -3 -11  -1    4.78    0.27
  -3 -11  -1    4.39    0.25
  -3  11  -1    4.45    0.28
   3  11   1    4.40    0.25
  -4 -11  -1    2.18    0.21
  -4 -11  -1    1.58    0.19
   4 -11   1    1.90    0.21
  -4  11  -1    1.50    0.22
   5 -11   1    0.15    0.11
  -5 -11  -1   -0.04    0.09
  -5 -11  -1   -0.04    0.09
  -5  11  -1   -0.15    0.15
   6 -11   1    0.59    0.15
  -6 -11  -1    0.64    0.15
  -6  11  -1    0.51    0.20
  -7 -11  -1    3.84    0.30
   7 -11   1    4.14    0.31
   7 -12  -1    1.51    0.22
  -7 -12   1    1.46    0.23
  -6 -12   1    1.38    0.22
   6 -12  -1    1.08    0.19
  -5 -12   1    9.99    0.47
   5 -12  -1   10.42    0.47
   5  12  -1   10.71    0.46
   4 -12  -1   14.66    0.56
   4  12  -1   16.26    0.56
   3 -12  -1   13.26    0.52
  -3 -12   1   13.49    0.47
   3  12  -1   13.57    0.49
   2 -12  -1   20.60    0.66
  -2 -12   1   20.16    0.62
   2  12  -1   20.63    0.64
   1 -12  -1   13.02    0.49
  -1 -12   1   13.41    0.47
   1  12  -1   13.66    0.47
   0 -12   1    1.54    0.18
   0 -12  -1    1.14    0.17
   0  12  -1    1.42    0.17
  -1 -12  -1   12.13    0.47
   1 -12   1   12.14    0.46
  -1  12  -1   12.35    0.45
  -2 -12  -1    5.77    0.31
   2 -12   1    6.64    0.34
  -2  12  -1    6.39    0.32
   3 -12   1   10.88    0.45
  -3 -12  -1   11.24    0.43
  -3 -12  -1   10.85    0.43
  -3  12  -1   11.52    0.46
   4 -12   1    4.43    0.30
  -4 -12  -1    4.79    0.29
   5 -12   1    6.82    0.37
  -5 -12  -1    7.08    0.37
   6 -12   1    4.38    0.31
  -6 -13   1    5.32    0.36
   6 -13  -1    4.82    0.35
   6  13  -1    5.32    0.34
   5 -13  -1    0.74    0.17
   5  13  -1    0.55    0.15
   4 -13  -1    3.25    0.26
   4  13  -1    2.99    0.24
   3 -13  -1    0.05    0.10
  -3 -13   1    0.12    0.10
   3  13  -1    0.24    0.11
  -2 -13   1    4.37    0.27
   2 -13  -1    3.91    0.28
   2  13  -1    4.23    0.26
   1 -13  -1    2.60    0.25
  -1 -13   1    1.99    0.21
   1  13  -1    2.49    0.20
   0 -13   1    8.60    0.39
   0 -13  -1    8.32    0.39
   0  13  -1    8.66    0.37
  -1 -13  -1    4.44    0.29
   1 -13   1    5.26    0.31
   2 -13   1   10.08    0.44
  -2 -13  -1   10.23    0.43
   3 -13   1   11.04    0.48
  -3 -13  -1   10.94    0.45
  -4 -13  -1   20.15    0.66
   4 -13   1   20.30    0.70
   5 -13   1    8.87    0.44
   4 -14  -1   11.56    0.52
   3 -14  -1    7.92    0.42
   2 -14  -1    1.91    0.24
  -2 -14   1    2.66    0.23
   1 -14  -1   18.92    0.67
  -1 -14   1   20.36    0.66
   0 -14  -1    1.90    0.22
   0 -14   1    1.82    0.22
  -1 -14  -1    5.48    0.32
   1 -14   1    4.77    0.31
  -2 -14  -1    3.33    0.26
   2 -14   1    2.85    0.27
  -3 -14  -1    3.64    0.27
   3 -14   1    3.40    0.27
   4 -14   1    0.22    0.14
   2 -15  -1    2.20    0.27
   1 -15  -1    3.87    0.31
  -1 -15   1    3.34    0.27
   0 -15   1    3.23    0.27
   0 -15  -1    2.82    0.28
  -1 -15  -1   20.15    0.71
   1 -15   1   19.82    0.70
   2 -15   1    8.91    0.45
  -2 -15  -1    7.75    0.41
 -11   0   2    3.06    0.33
  11   0  -2    2.94    0.29
 -10   0   2    0.31    0.13
  10   0  -2    0.50    0.13
   9   0  -2   10.03    0.42
  -9   0   2   10.37    0.48
   8   0  -2    9.25    0.37
  -8   0   2    9.45    0.43
  -7   0   2    0.11    0.09
   7   0  -2    0.16    0.08
   7   0  -2    0.31    0.07
   6   0  -2    6.28    0.22
  -6   0   2    6.39    0.30
   5   0  -2  147.69    2.85
  -5   0   2  142.43    3.11
  -4   0   2   23.60    0.61
   4   0  -2   23.50    0.58
   4   0  -2   24.02    0.52
   3   0  -2   39.38    0.80
   3   0  -2   39.49    0.86
  -3   0   2   39.78    0.90
   2   0  -2  457.01    9.29
   2   0  -2  429.28    8.71
  -2   0   2  457.52    9.44
   1   0  -2  163.27    3.26
   1   0  -2  172.82    3.30
  -1   0   2  166.87    3.43
   0   0  -2   25.57    0.55
   0   0  -2   25.07    0.54
  -1   0  -2   71.88    1.45
  -1   0  -2   72.77    1.52
  -2   0  -2  540.86   11.57
  -2   0  -2  527.47   10.92
  -3   0  -2  161.97    3.21
  -3   0  -2  159.21    3.39
  -4   0  -2   15.05    0.47
  -4   0  -2   14.05    0.39
  -5   0  -2    5.05    0.22
  -5   0  -2    5.08    0.27
  -6   0  -2   72.79    1.74
  -7   0  -2    1.14    0.17
  -8   0  -2   14.85    0.58
  -9   0  -2    2.21    0.27
 -10   0  -2    0.39    0.16
  11  -1  -2    9.27    0.45
 -11  -1   2   10.56    0.54
  11   1  -2   10.26    0.47
 -11   1   2   10.43    0.52
  10  -1  -2   13.99    0.53
 -10  -1   2   14.10    0.61
 -10   1   2   15.37    0.62
  10   1  -2   14.98    0.56
  -9  -1   2    4.87    0.33
   9  -1  -2    4.98    0.28
   9   1  -2    3.76    0.26
  -9   1   2    4.91    0.32
   8  -1  -2   11.91    0.38
  -8  -1   2   11.81    0.49
   8  -1  -2   10.44    0.41
  -8   1   2   13.58    0.51
   7  -1  -2   15.37    0.49
  -7  -1   2   16.17    0.56
   7  -1  -2   16.34    0.45
  -7   1   2   16.39    0.56
   7   1  -2   16.74    0.43
  -6  -1   2   41.49    1.06
   6  -1  -2   41.20    0.91
   6  -1  -2   40.71    0.97
   6   1  -2   41.46    0.88
  -6   1   2   39.81    1.04
   5  -1  -2   32.24    0.72
  -5  -1   2   31.13    0.83
   5   1  -2   33.74    0.70
  -5   1   2   32.20    0.83
   4  -1  -2    9.23    0.29
   4  -1  -2    9.16    0.25
  -4  -1   2    9.77    0.33
  -4   1   2    9.21    0.31
   4   1  -2    9.49    0.23
  -3  -1   2  309.79    6.31
   3  -1  -2  310.86    6.03
   3  -1  -2  305.41    5.90
  -3   1   2  306.39    6.29
   3   1  -2  302.46    5.89
   2  -1  -2   25.22    0.53
   2  -1  -2   25.81    0.57
   2   1  -2   25.66    0.57
  -2   1   2   25.81    0.58
   1  -1  -2  255.74    5.36
  -1  -1   2  264.01    5.48
   1  -1  -2  271.15    5.20
   1   1  -2  260.77    5.24
  -1   1   2  262.35    5.46
   0  -1  -2  627.38   13.06
   0  -1  -2  644.71   13.23
   0   1  -2  645.18   12.82
   0   1  -2  645.05   13.50
  -1  -1  -2   20.24    0.46
  -1  -1  -2   20.56    0.48
  -1   1  -2   20.62    0.44
  -1   1  -2   19.88    0.48
  -2  -1  -2  148.75    3.00
  -2  -1  -2  152.53    3.15
  -2   1  -2  151.94    2.98
  -2   1  -2  150.70    3.15
  -3  -1  -2  209.67    4.27
  -3  -1  -2  204.33    4.07
  -3   1  -2  206.34    4.04
  -3   1  -2  197.92    4.28
  -4  -1  -2   13.86    0.44
  -4  -1  -2   13.14    0.39
  -4   1  -2   14.22    0.46
  -4   1  -2   13.52    0.37
  -5  -1  -2   28.40    0.71
  -5  -1  -2   29.57    0.79
  -5   1  -2   26.37    0.78
  -6  -1  -2   11.74    0.40
  -6   1  -2   11.56    0.46
  -7  -1  -2   15.74    0.56
  -7   1  -2   14.06    0.55
  -8  -1  -2    7.02    0.39
  -8   1  -2    5.87    0.35
  -9  -1  -2    9.06    0.46
  -9   1  -2    8.49    0.45
 -10  -1  -2    1.88    0.27
  10  -1   2    1.80    0.20
 -10   1  -2    2.23    0.29
 -11  -2   2    0.72    0.20
  11  -2  -2    0.82    0.17
  11   2  -2    1.01    0.20
 -11   2   2    0.72    0.19
 -10  -2   2    1.47    0.24
  10  -2  -2    1.39    0.19
 -10   2   2    1.56    0.23
  10   2  -2    1.43    0.20
   9  -2  -2   32.05    0.87
  -9  -2   2   31.31    0.98
  -9   2   2   30.56    0.94
   8  -2  -2   54.95    1.32
  -8  -2   2   57.43    1.47
   8  -2  -2   57.95    1.27
  -8   2   2   54.90    1.43
   7  -2  -2   37.68    0.86
  -7  -2   2   36.10    1.01
   7  -2  -2   34.43    0.89
  -7   2   2   37.20    0.99
   6  -2  -2   87.63    1.80
   6  -2  -2   87.60    1.86
  -6  -2   2   83.56    2.00
  -6   2   2   88.96    1.98
   5  -2  -2   40.97    0.93
   5  -2  -2   40.23    0.89
  -5  -2   2   38.93    1.01
  -5   2   2   41.47    0.99
  -4  -2   2   37.95    0.93
   4  -2  -2   37.71    0.85
   4  -2  -2   37.86    0.82
  -4   2   2   38.24    0.90
   3  -2  -2   10.08    0.27
  -3  -2   2   10.41    0.32
   3  -2  -2   10.40    0.29
  -3   2   2   10.43    0.30
   2  -2  -2   23.00    0.54
  -2  -2   2   22.38    0.58
   2  -2  -2   27.53    0.53
  -2   2   2   23.75    0.54
  -1  -2   2   31.22    0.71
  -1  -2   2   30.86    0.62
   1  -2  -2   31.59    0.67
   1  -2  -2   30.47    0.66
   1   2  -2   31.23    0.66
  -1   2   2   30.91    0.64
   0  -2  -2  187.85    3.68
   0  -2  -2  182.88    3.82
   0  -2  -2  187.00    3.62
   0   2  -2  193.58    3.84
   0   2  -2  182.52    3.66
  -1  -2  -2   94.31    1.97
  -1  -2  -2   95.64    1.91
  -1   2  -2   93.44    1.85
  -2  -2  -2    1.65    0.11
  -2  -2  -2    1.61    0.11
  -2   2  -2    2.02    0.13
  -2   2  -2    1.73    0.07
  -3  -2  -2   35.98    0.82
  -3  -2  -2   35.87    0.87
  -3   2  -2   36.50    0.77
  -3   2  -2   36.74    0.88
  -4  -2  -2   61.42    1.33
  -4  -2  -2   58.58    1.39
  -4   2  -2   62.29    1.43
  -5  -2  -2   93.42    1.99
  -5  -2  -2   93.84    2.10
  -5   2  -2   92.76    2.13
  -6  -2  -2   50.18    1.22
  -6  -2  -2   52.94    1.31
  -6   2  -2   53.10    1.33
  -7  -2  -2    9.48    0.42
  -7   2  -2   10.08    0.46
  -8  -2  -2    9.29    0.45
  -8   2  -2    9.25    0.45
   9  -2   2    3.14    0.24
  -9  -2  -2    3.11    0.28
  -9   2  -2    3.42    0.30
 -10  -2  -2    4.07    0.33
  10  -2   2    3.95    0.27
 -10   2  -2    3.43    0.31
 -10  -3   2   12.99    0.60
  10  -3  -2   13.61    0.51
 -10   3   2   14.20    0.59
  -9  -3   2    6.62    0.39
   9  -3  -2    6.63    0.32
  -9   3   2    6.56    0.37
   8  -3  -2   15.68    0.51
  -8  -3   2   15.44    0.59
   8  -3  -2   16.73    0.50
  -8   3   2   15.10    0.57
   7  -3  -2    3.82    0.21
   7  -3  -2    3.94    0.21
  -7  -3   2    4.21    0.28
  -7   3   2    3.55    0.24
  -6  -3   2   13.79    0.49
   6  -3  -2   13.45    0.40
   6  -3  -2   12.72    0.41
  -6   3   2   13.86    0.47
   5  -3  -2    9.19    0.30
   5  -3  -2    9.01    0.29
  -5  -3   2    9.37    0.36
  -5   3   2    9.09    0.33
  -4  -3   2   14.34    0.44
   4  -3  -2   14.60    0.39
   4  -3  -2   14.11    0.38
  -4   3   2   13.40    0.41
   3  -3  -2   27.20    0.61
   3  -3  -2   27.16    0.62
  -3   3   2   25.76    0.63
  -2  -3   2  141.85    2.94
   2  -3  -2  140.63    2.79
   2  -3  -2  137.48    2.75
  -2  -3   2  142.22    2.69
  -2   3   2  137.24    2.88
   1  -3  -2   38.09    0.81
  -1  -3   2   38.55    0.87
  -1  -3   2   38.32    0.77
   1   3  -2   38.66    0.87
   0  -3  -2  163.16    3.26
   0  -3  -2  162.63    3.15
   0  -3  -2  155.91    3.19
   0  -3   2  161.79    3.12
   0   3  -2  158.41    3.33
   0   3  -2  162.26    3.14
  -1  -3  -2   74.06    1.52
  -1  -3  -2   73.12    1.54
  -1  -3  -2   72.61    1.50
   1  -3   2   73.93    1.48
  -1   3  -2   73.24    1.44
  -1   3  -2   74.75    1.58
  -2  -3  -2  126.01    2.60
  -2  -3  -2  130.30    2.69
  -2   3  -2  127.96    2.51
  -2   3  -2  128.95    2.71
  -3  -3  -2   91.03    1.90
  -3  -3  -2   89.22    1.97
  -3   3  -2   92.30    1.99
  -4  -3  -2   15.17    0.45
  -4  -3  -2   15.49    0.47
  -4   3  -2   15.65    0.51
  -5  -3  -2   53.05    1.28
  -5  -3  -2   52.15    1.21
  -5   3  -2   52.76    1.31
  -6  -3  -2   10.30    0.39
  -6  -3  -2   10.36    0.42
   6  -3   2   10.14    0.37
  -6   3  -2   10.87    0.46
  -7  -3  -2   22.60    0.72
   7  -3   2   21.98    0.64
  -7   3  -2   22.09    0.74
   8  -3   2    2.08    0.21
  -8  -3  -2    1.72    0.22
  -8   3  -2    1.76    0.24
  -9  -3  -2    3.27    0.29
   9  -3   2    2.80    0.23
  -9   3  -2    2.53    0.29
 -10  -3  -2    8.34    0.47
  10  -3   2    8.21    0.40
 -10   3  -2    8.28    0.48
 -10  -4   2    7.42    0.45
  10  -4  -2    7.25    0.36
 -10   4   2    6.61    0.40
  -9  -4   2    2.07    0.26
   9  -4  -2    2.24    0.19
   9  -4  -2    2.28    0.22
  -9   4   2    2.15    0.24
   8  -4  -2    0.69    0.12
   8  -4  -2    0.82    0.13
  -8  -4   2    0.72    0.16
  -8   4   2    0.90    0.17
   7  -4  -2   11.17    0.39
  -7  -4   2   11.33    0.47
   7  -4  -2   11.49    0.39
  -7   4   2   11.37    0.44
  -6  -4   2   48.61    1.24
   6  -4  -2   47.84    1.11
   6  -4  -2   49.06    1.11
  -6   4   2   49.46    1.20
   5  -4  -2   19.44    0.50
  -5  -4   2   19.09    0.58
   5  -4  -2   18.30    0.50
  -4  -4   2  142.52    3.11
   4  -4  -2  147.01    2.92
   4  -4  -2  143.17    2.89
  -4   4   2  145.49    3.06
   3  -4  -2  237.28    4.72
   3  -4  -2  238.93    4.67
  -3  -4   2  239.64    4.98
  -3   4   2  239.34    4.92
   2  -4  -2   62.75    1.32
  -2  -4   2   63.45    1.27
   2  -4  -2   62.99    1.32
  -2  -4   2   64.43    1.42
  -2   4   2   65.11    1.35
   1  -4  -2   26.04    0.59
  -1  -4   2   26.10    0.55
   1  -4  -2   26.18    0.59
  -1   4   2   25.28    0.55
   1   4  -2   24.61    0.62
   0  -4  -2  213.65    4.25
   0  -4   2  218.75    4.22
   0  -4  -2  216.74    4.31
   0   4   2  214.47    4.42
   0   4  -2  220.21    4.50
   0   4  -2  223.57    4.24
  -1  -4  -2   60.73    1.28
  -1  -4  -2   60.33    1.26
   1  -4   2   59.07    1.24
  -1  -4  -2   58.27    1.27
  -1   4  -2   62.66    1.33
  -2  -4  -2  155.10    3.12
  -2  -4  -2  146.43    3.02
   2  -4   2  148.75    2.97
  -2   4  -2  148.89    3.15
  -3  -4  -2   23.76    0.59
  -3  -4  -2   21.40    0.59
   3  -4   2   23.57    0.58
  -3   4  -2   23.81    0.63
  -4  -4  -2   20.02    0.56
  -4  -4  -2   20.94    0.58
   4  -4   2   20.64    0.55
  -4   4  -2   20.24    0.61
  -5  -4  -2   33.76    0.86
  -5  -4  -2   33.67    0.90
   5  -4   2   33.77    0.84
  -5   4  -2   36.03    0.95
  -6  -4  -2   18.95    0.61
  -6  -4  -2   18.50    0.57
   6  -4   2   18.27    0.55
  -6   4  -2   17.81    0.63
   7  -4   2    0.15    0.09
  -7  -4  -2    0.07    0.09
  -7  -4  -2    0.21    0.10
  -7   4  -2    0.09    0.13
   8  -4   2    6.29    0.32
  -8  -4  -2    6.19    0.36
  -8   4  -2    6.03    0.38
   9  -4   2    3.08    0.24
  -9  -4  -2    2.96    0.27
  -9   4  -2    2.73    0.30
  10  -4   2   11.25    0.48
 -10  -4  -2   12.08    0.58
 -10   4  -2   10.96    0.57
 -10  -5   2    5.60    0.39
 -10   5   2    5.77    0.37
   9  -5  -2    9.54    0.40
  -9  -5   2   10.24    0.50
   9  -5  -2    9.83    0.40
  -9   5   2   10.07    0.47
   8  -5  -2    5.02    0.27
   8  -5  -2    5.25    0.27
  -8  -5   2    5.12    0.34
  -8   5   2    5.25    0.32
  -7  -5   2    1.15    0.18
   7  -5  -2    1.05    0.14
   7  -5  -2    1.12    0.14
  -7   5   2    0.98    0.15
  -6  -5   2   15.16    0.55
   6  -5  -2   15.22    0.46
   6  -5  -2   15.51    0.47
  -6   5   2   17.77    0.53
  -5  -5   2   90.45    2.09
   5  -5  -2   91.62    1.92
   5  -5  -2   93.15    1.93
  -5   5   2   91.61    2.03
   4  -5  -2    8.95    0.30
  -4  -5   2    9.85    0.36
   4  -5  -2    8.80    0.28
  -4   5   2    8.98    0.32
   3  -5  -2    5.24    0.19
  -3  -5   2    5.04    0.24
  -3  -5   2    5.11    0.16
   3  -5  -2    5.23    0.21
  -3   5   2    5.14    0.21
   2  -5  -2   75.53    1.55
  -2  -5   2   73.45    1.49
   2  -5  -2   74.92    1.56
  -2  -5   2   75.41    1.66
  -2   5   2   73.62    1.58
   1  -5  -2   95.08    1.92
  -1  -5   2   93.28    1.88
   1  -5  -2   97.02    1.93
  -1   5   2   93.38    1.94
   1   5  -2   93.26    2.03
   0  -5  -2   22.74    0.54
   0  -5  -2   22.65    0.53
   0  -5   2   21.62    0.51
   0   5  -2   21.27    0.56
   0   5   2   22.13    0.49
   1  -5   2  113.45    2.26
  -1  -5  -2  110.46    2.29
  -1  -5  -2  112.73    2.27
  -1  -5  -2  110.85    2.34
  -1   5  -2  114.54    2.40
   2  -5   2   49.89    1.09
  -2  -5  -2   49.61    1.11
  -2  -5  -2   50.74    1.09
  -2  -5  -2   49.90    1.11
  -2   5  -2   49.74    1.15
  -3  -5  -2    7.18    0.27
  -3  -5  -2    7.49    0.27
   3  -5   2    7.16    0.26
  -3   5  -2    6.79    0.29
   4  -5   2   19.81    0.54
  -4  -5  -2   19.56    0.56
  -4  -5  -2   19.53    0.56
   4  -5   2   19.84    0.44
  -4   5  -2   20.01    0.61
   5  -5   2   19.04    0.56
  -5  -5  -2   19.24    0.60
   5  -5   2   20.71    0.47
  -5  -5  -2   19.44    0.58
  -5   5  -2   19.90    0.66
  -6  -5  -2   20.40    0.64
  -6  -5  -2   21.47    0.67
   6  -5   2   21.78    0.63
  -6   5  -2   21.56    0.71
  -7  -5  -2    1.98    0.21
   7  -5   2    2.30    0.19
  -7  -5  -2    2.79    0.23
  -7   5  -2    2.11    0.26
   8  -5   2   15.08    0.54
  -8  -5  -2   15.43    0.60
  -8   5  -2   15.20    0.62
  -9  -5  -2    5.05    0.34
   9  -5   2    4.34    0.29
  -9   5  -2    4.21    0.35
  10  -5   2    4.44    0.31
 -10  -5  -2    4.55    0.37
 -10  -6   2    8.29    0.48
 -10   6   2    8.17    0.44
   9  -6  -2   17.98    0.60
  -9  -6   2   18.19    0.72
  -9   6   2   17.81    0.66
  -8  -6   2   12.54    0.55
   8  -6  -2   12.40    0.46
  -8   6   2   13.33    0.51
   7  -6  -2   46.01    1.12
   7  -6  -2   46.86    1.09
  -7  -6   2   45.17    1.25
  -7   6   2   47.08    1.19
   6  -6  -2   20.19    0.58
   6  -6  -2   19.58    0.54
  -6  -6   2   20.17    0.66
  -6   6   2   19.54    0.60
   5  -6  -2    8.44    0.33
   5  -6  -2    8.92    0.30
  -5  -6   2    9.08    0.38
  -5   6   2    8.87    0.34
  -4  -6   2   17.81    0.56
   4  -6  -2   18.16    0.47
   4  -6  -2   17.34    0.50
  -4   6   2   18.76    0.52
  -3  -6   2   45.61    1.11
   3  -6  -2   46.71    1.04
  -3  -6   2   46.05    0.97
   3  -6  -2   45.68    1.00
  -3   6   2   46.11    1.05
  -2  -6   2   22.33    0.61
  -2  -6   2   22.17    0.51
   2  -6  -2   21.76    0.57
   2  -6  -2   21.78    0.53
  -2   6   2   22.17    0.53
   1  -6  -2   56.35    1.22
   1  -6  -2   57.36    1.20
  -1  -6   2   56.03    1.17
  -1   6   2   55.31    1.18
   1   6  -2   54.93    1.27
   0  -6   2   97.83    1.95
   0  -6  -2   95.70    1.98
   0  -6  -2   97.10    1.98
   0   6  -2   95.37    2.08
   0   6   2   94.93    2.00
  -1  -6  -2    2.80    0.15
   1  -6   2    2.26    0.13
  -1  -6  -2    2.54    0.12
  -1  -6  -2    2.42    0.14
  -1   6  -2    2.19    0.15
  -2  -6  -2   43.91    0.98
  -2  -6  -2   41.97    0.98
  -2  -6  -2   42.92    0.98
   2  -6   2   43.00    0.97
  -2   6  -2   42.56    1.02
  -3  -6  -2   25.02    0.66
  -3  -6  -2   25.97    0.67
   3  -6   2   26.42    0.66
  -3   6  -2   25.21    0.70
  -4  -6  -2   10.07    0.36
   4  -6   2    9.58    0.35
  -4  -6  -2   10.23    0.36
  -4   6  -2    9.39    0.40
   5  -6   2    0.65    0.12
  -5  -6  -2    0.31    0.10
  -5  -6  -2    0.72    0.13
  -5   6  -2    0.51    0.16
  -6  -6  -2   28.71    0.81
   6  -6   2   28.31    0.78
  -6  -6  -2   28.58    0.83
  -6   6  -2   28.21    0.88
  -7  -6  -2    4.65    0.30
  -7  -6  -2    4.69    0.29
   7  -6   2    4.62    0.27
  -7   6  -2    4.80    0.35
  -8  -6  -2    5.00    0.33
   8  -6   2    5.00    0.30
  -8   6  -2    4.21    0.35
  -9  -6  -2    2.48    0.28
   9  -6   2    2.17    0.24
  -9   6  -2    1.94    0.28
  -9  -7   2   21.30    0.80
   9  -7  -2   20.98    0.68
   8  -7  -2    5.16    0.29
  -8  -7   2    5.07    0.34
  -8   7   2    5.07    0.32
  -7  -7   2    2.17    0.25
   7  -7  -2    2.67    0.21
  -7   7   2    2.56    0.22
   6  -7  -2   17.72    0.55
   6  -7  -2   17.75    0.50
  -6  -7   2   17.53    0.62
  -6   7   2   17.99    0.57
  -5  -7   2   24.61    0.74
   5  -7  -2   24.07    0.67
   5  -7  -2   25.11    0.62
  -5   7   2   24.85    0.69
   4  -7  -2    8.85    0.29
  -4  -7   2    8.73    0.36
   4  -7  -2    8.82    0.33
  -4   7   2    9.16    0.33
  -3  -7   2    8.62    0.35
   3  -7  -2    9.08    0.33
  -3  -7   2    8.86    0.27
   3  -7  -2    8.85    0.28
  -3   7   2    9.27    0.31
   2  -7  -2   30.27    0.77
   2  -7  -2   32.18    0.73
  -2  -7   2   31.06    0.82
  -2  -7   2   31.68    0.72
   2   7  -2   31.61    0.80
  -2   7   2   32.23    0.73
  -1  -7   2   66.48    1.36
   1  -7  -2   63.16    1.41
   1  -7  -2   64.14    1.38
   1   7  -2   65.03    1.47
  -1   7   2   65.08    1.38
   0  -7   2   45.01    0.99
   0  -7  -2   44.60    1.02
   0  -7  -2   44.88    1.00
   0   7   2   44.53    0.97
   0   7  -2   44.24    1.05
  -1  -7  -2   68.63    1.45
  -1  -7  -2   68.54    1.46
   1  -7   2   66.50    1.43
  -1  -7  -2   66.85    1.45
   1   7   2   67.08    1.44
  -1   7  -2   65.03    1.51
  -2  -7  -2    6.40    0.26
  -2  -7  -2    6.63    0.24
  -2  -7  -2    6.71    0.27
   2  -7   2    6.82    0.27
  -2   7  -2    6.36    0.28
  -3  -7  -2   23.83    0.64
  -3  -7  -2   25.28    0.67
   3  -7   2   24.27    0.65
  -3   7  -2   25.57    0.70
  -4  -7  -2   50.79    1.19
  -4  -7  -2   47.69    1.18
   4  -7   2   50.15    1.16
  -4   7  -2   49.15    1.24
  -5  -7  -2   21.48    0.65
  -5  -7  -2   22.38    0.65
   5  -7   2   20.17    0.62
  -5   7  -2   21.61    0.70
  -6  -7  -2    7.22    0.35
   6  -7   2    7.74    0.35
  -6  -7  -2    7.16    0.35
  -6   7  -2    7.03    0.39
  -7  -7  -2    1.32    0.19
  -7  -7  -2    1.03    0.17
   7  -7   2    1.23    0.18
  -7   7  -2    1.00    0.22
  -8  -7  -2    0.38    0.14
   8  -7   2    0.39    0.13
  -8   7  -2    0.17    0.17
   9  -7   2    1.75    0.23
  -9  -7  -2    2.71    0.29
  -9   7  -2    1.85    0.29
  -9  -8   2    1.41    0.24
   9  -8  -2    1.03    0.18
   8  -8  -2    1.92    0.22
  -8  -8   2    1.96    0.25
   7  -8  -2    1.87    0.20
  -7  -8   2    1.56    0.22
  -6  -8   2    3.87    0.27
   6  -8  -2    4.23    0.26
   5  -8  -2   21.12    0.63
  -5  -8   2   20.33    0.67
  -5   8   2   21.23    0.62
  -4  -8   2   79.40    1.86
   4  -8  -2   79.86    1.68
   4  -8  -2   79.15    1.75
  -4   8   2   79.72    1.78
   3  -8  -2   48.03    1.13
   3  -8  -2   48.53    1.07
  -3  -8   2   44.84    1.19
  -3  -8   2   49.74    1.06
  -3   8   2   50.04    1.12
  -2  -8   2    2.51    0.15
   2  -8  -2    2.50    0.15
   2  -8  -2    2.24    0.17
   2   8  -2    2.17    0.18
  -2   8   2    2.45    0.17
   1  -8  -2   38.39    0.86
   1  -8  -2   36.13    0.90
  -1  -8   2   35.71    0.85
  -1   8   2   38.17    0.84
   1   8  -2   36.94    0.92
   0  -8   2   28.04    0.68
   0  -8  -2   27.45    0.68
   0  -8  -2   27.29    0.70
   0   8  -2   27.87    0.72
   0   8   2   26.18    0.63
   1  -8   2   66.46    1.43
  -1  -8  -2   66.62    1.44
  -1  -8  -2   66.75    1.45
  -1   8  -2   64.92    1.50
   1   8   2   64.00    1.42
  -2  -8  -2    8.13    0.29
  -2  -8  -2    8.08    0.32
  -2  -8  -2    8.41    0.32
   2  -8   2    8.87    0.32
  -2   8  -2    9.17    0.35
  -3  -8  -2   21.87    0.62
  -3  -8  -2   22.11    0.60
   3  -8   2   21.79    0.61
  -3   8  -2   21.39    0.64
  -4  -8  -2    8.02    0.33
   4  -8   2    8.93    0.35
  -4  -8  -2    8.03    0.35
  -4   8  -2    8.26    0.38
  -5  -8  -2   15.85    0.53
  -5  -8  -2   15.52    0.53
   5  -8   2   16.00    0.53
  -5   8  -2   15.45    0.58
  -6  -8  -2    0.94    0.16
   6  -8   2    0.86    0.15
  -6  -8  -2    0.85    0.15
  -6   8  -2    1.05    0.22
  -7  -8  -2    0.68    0.16
  -7  -8  -2    0.73    0.16
   7  -8   2    0.87    0.16
  -7   8  -2    0.94    0.22
  -8  -8  -2    3.25    0.27
   8  -8   2    3.69    0.27
  -8   8  -2    2.89    0.33
  -9  -8  -2    3.65    0.31
   9  -8   2    3.05    0.26
  -9   8  -2    3.21    0.35
   9  -9  -2    2.71    0.28
  -9  -9   2    2.10    0.28
   8  -9  -2    7.01    0.37
  -8  -9   2    7.56    0.44
  -7  -9   2    6.03    0.37
   7  -9  -2    5.97    0.33
   6  -9  -2   30.80    0.87
  -6  -9   2   31.81    0.95
  -5  -9   2   16.24    0.59
   5  -9  -2   16.82    0.55
  -4  -9   2   13.58    0.50
   4  -9  -2   13.35    0.47
   3  -9  -2    4.69    0.20
  -3  -9   2    4.63    0.21
  -3  -9   2    4.89    0.28
   3  -9  -2    4.58    0.25
   3   9  -2    5.13    0.27
   2  -9  -2    9.95    0.37
  -2  -9   2    9.83    0.33
   2  -9  -2   10.04    0.32
   2   9  -2   10.48    0.38
  -1  -9   2   56.31    1.26
   1  -9  -2   56.76    1.26
   1  -9  -2   58.75    1.33
   1   9  -2   57.59    1.36
   0  -9  -2    9.01    0.31
   0  -9   2    9.28    0.33
   0  -9  -2    8.68    0.34
   0   9  -2    8.46    0.34
   0   9   2    8.75    0.27
   1  -9   2   43.97    1.02
  -1  -9  -2   44.57    1.02
  -1  -9  -2   42.28    1.04
  -1   9  -2   41.67    1.06
   1   9   2   43.49    0.99
  -2  -9  -2   11.33    0.36
  -2  -9  -2   11.79    0.41
  -2  -9  -2   11.33    0.39
   2  -9   2   11.50    0.40
  -2   9  -2   11.56    0.42
  -3  -9  -2    4.35    0.22
  -3  -9  -2    3.77    0.23
   3  -9   2    4.74    0.25
  -3  -9  -2    4.43    0.24
  -3   9  -2    4.16    0.27
  -4  -9  -2    6.50    0.31
   4  -9   2    7.08    0.32
  -4  -9  -2    6.69    0.30
  -4   9  -2    6.53    0.35
  -5  -9  -2    3.59    0.24
   5  -9   2    4.02    0.25
  -5  -9  -2    3.50    0.25
  -5   9  -2    3.96    0.31
  -6  -9  -2    5.93    0.32
  -6  -9  -2    5.74    0.33
   6  -9   2    5.34    0.31
  -6   9  -2    6.47    0.40
  -7  -9  -2   24.92    0.80
   7  -9   2   24.77    0.77
  -7  -9  -2   24.57    0.80
  -7   9  -2   24.93    0.87
   8  -9   2   10.46    0.48
  -8  -9  -2   10.44    0.49
  -8   9  -2   10.81    0.55
  -8 -10   2    8.88    0.48
   8 -10  -2    7.96    0.41
   7 -10  -2   14.95    0.56
  -7 -10   2   15.52    0.62
   6 -10  -2   13.38    0.51
  -6 -10   2   14.15    0.56
  -5 -10   2    3.94    0.28
   5 -10  -2    3.69    0.25
  -4 -10   2    2.41    0.21
   4 -10  -2    2.14    0.22
   4  10  -2    2.29    0.21
  -3 -10   2    8.28    0.30
   3 -10  -2    7.61    0.35
   3  10  -2    7.85    0.35
  -2 -10   2    2.53    0.17
   2 -10  -2    2.73    0.20
   2  10  -2    2.45    0.19
   1 -10  -2   11.74    0.37
  -1 -10   2   10.94    0.38
   1 -10  -2   11.35    0.42
   1  10  -2   10.86    0.41
   0 -10  -2    4.07    0.24
   0 -10   2    4.79    0.24
   0 -10  -2    4.75    0.23
   0  10  -2    4.76    0.24
   1 -10   2   11.02    0.39
  -1 -10  -2   10.02    0.39
  -1 -10  -2   10.83    0.38
  -1  10  -2   11.03    0.40
  -2 -10  -2   28.38    0.77
   2 -10   2   29.65    0.78
  -2 -10  -2   28.55    0.78
  -2  10  -2   29.11    0.80
   3 -10   2    6.57    0.31
  -3 -10  -2    6.51    0.28
  -3 -10  -2    6.29    0.30
  -3 -10  -2    6.00    0.30
  -3  10  -2    6.60    0.33
  -4 -10  -2    3.53    0.23
  -4 -10  -2    3.40    0.24
   4 -10   2    3.53    0.24
  -4  10  -2    3.35    0.28
  -5 -10  -2   21.02    0.69
  -5 -10  -2   22.69    0.69
   5 -10   2   20.81    0.68
  -5  10  -2   22.77    0.75
  -6 -10  -2   13.18    0.51
   6 -10   2   13.35    0.52
  -6 -10  -2   12.90    0.53
  -6  10  -2   13.35    0.59
  -7 -10  -2    4.06    0.30
  -7 -10  -2    4.00    0.30
   7 -10   2    3.69    0.29
  -7  10  -2    4.05    0.37
   8 -10   2    1.10    0.19
  -8 -10  -2    1.60    0.23
  -8  10  -2    1.31    0.26
  -7 -11   2    0.67    0.17
   7 -11  -2    0.73    0.16
   6 -11  -2    1.32    0.21
  -6 -11   2    1.82    0.24
  -5 -11   2    2.31    0.25
   5 -11  -2    2.70    0.26
   4 -11  -2    8.15    0.39
   4  11  -2    9.10    0.40
  -3 -11   2   10.69    0.38
   3 -11  -2   10.19    0.43
   3  11  -2   10.24    0.42
  -2 -11   2   17.92    0.53
   2 -11  -2   16.88    0.57
   2  11  -2   17.41    0.57
   1 -11  -2   15.30    0.52
  -1 -11   2   14.85    0.49
   1  11  -2   16.30    0.53
   0 -11  -2    3.81    0.25
   0 -11  -2    4.10    0.22
   0 -11   2    3.56    0.23
   0  11  -2    3.54    0.23
  -1 -11  -2    2.09    0.19
   1 -11   2    2.91    0.21
  -1 -11  -2    2.46    0.21
  -1  11  -2    2.48    0.21
   2 -11   2    6.89    0.33
  -2 -11  -2    7.32    0.32
  -2 -11  -2    7.73    0.35
  -2  11  -2    7.56    0.35
  -3 -11  -2   17.02    0.57
  -3 -11  -2   17.49    0.57
   3 -11   2   17.20    0.58
  -3  11  -2   17.98    0.60
   4 -11   2   17.86    0.61
  -4 -11  -2   19.55    0.63
  -4  11  -2   18.99    0.66
   5 -11   2   12.48    0.50
  -5 -11  -2   12.86    0.51
  -5  11  -2   12.96    0.56
  -6 -11  -2   10.30    0.47
   6 -11   2   10.69    0.47
  -6  11  -2   10.51    0.54
   7 -11   2    3.57    0.29
  -7  11  -2    4.15    0.40
  -7 -12   2    0.64    0.18
   7 -12  -2    0.50    0.16
   6 -12  -2    1.44    0.21
  -6 -12   2    1.25    0.21
   6  12  -2    1.37    0.21
   5 -12  -2    4.84    0.32
   5  12  -2    5.82    0.34
   4 -12  -2   11.76    0.49
   4  12  -2   11.99    0.49
   3 -12  -2   12.69    0.50
   3  12  -2   11.43    0.46
  -2 -12   2   20.07    0.61
   2 -12  -2   20.68    0.67
   2  12  -2   20.51    0.65
   1 -12  -2    4.86    0.30
  -1 -12   2    5.36    0.28
   1  12  -2    5.46    0.30
   0 -12  -2   12.26    0.48
   0 -12   2   12.50    0.45
   0  12  -2   12.27    0.46
  -1 -12  -2   32.15    0.90
   1 -12   2   33.30    0.89
  -1  12  -2   33.36    0.92
   2 -12   2   21.37    0.67
  -2 -12  -2   21.72    0.68
  -2 -12  -2   22.21    0.66
  -2  12  -2   21.66    0.68
  -3 -12  -2    8.47    0.38
   3 -12   2    8.94    0.40
  -3 -12  -2    9.12    0.40
  -3  12  -2    8.76    0.41
   4 -12   2    1.89    0.22
  -4 -12  -2    2.28    0.24
  -4  12  -2    2.19    0.26
   5 -12   2    0.73    0.16
  -5 -12  -2    0.92    0.17
  -5  12  -2    0.98    0.24
   6 -12   2    5.89    0.36
  -6 -12  -2    6.93    0.39
   6 -13  -2    1.55    0.23
   6  13  -2    1.75    0.24
   5 -13  -2    6.26    0.37
   5  13  -2    6.05    0.36
   4 -13  -2    4.70    0.31
   4  13  -2    4.82    0.31
   3 -13  -2    4.14    0.30
   3  13  -2    4.60    0.29
   2 -13  -2    6.17    0.35
  -2 -13   2    6.54    0.32
   2  13  -2    5.73    0.32
  -1 -13   2    0.74    0.14
   1 -13  -2    0.91    0.17
   1  13  -2    0.66    0.14
   0 -13  -2    5.31    0.32
   0 -13   2    5.35    0.30
   0  13  -2    4.88    0.29
  -1 -13  -2    3.78    0.28
   1 -13   2    4.00    0.27
  -1  13  -2    3.97    0.27
  -2 -13  -2    1.73    0.21
   2 -13   2    1.95    0.22
  -2  13  -2    1.79    0.22
  -3 -13  -2    0.26    0.11
  -3 -13  -2    0.17    0.11
   3 -13   2    0.03    0.10
  -3  13  -2    0.16    0.15
   4 -13   2    0.88    0.18
  -4 -13  -2    1.04    0.18
  -5 -13  -2    0.72    0.16
   5 -13   2    0.52    0.15
   4 -14  -2    5.75    0.36
   4  14  -2    5.26    0.34
   3 -14  -2    2.78    0.29
   3  14  -2    3.28    0.26
   2 -14  -2   18.33    0.66
   2  14  -2   18.39    0.64
   1 -14  -2    6.61    0.38
  -1 -14   2    7.17    0.36
   1  14  -2    7.25    0.36
   0 -14  -2    1.21    0.20
   0 -14   2    1.46    0.20
   0  14  -2    1.42    0.19
  -1 -14  -2    8.66    0.43
   1 -14   2    8.62    0.41
  -2 -14  -2    4.49    0.30
   2 -14   2    3.44    0.27
  -3 -14  -2    2.25    0.25
   3 -14   2    2.53    0.27
   4 -14   2    8.41    0.43
   2 -15  -2    4.27    0.33
   1 -15  -2    9.93    0.49
   0 -15  -2    0.89    0.19
   0 -15   2    1.04    0.19
   1 -15   2    0.10    0.13
  -1 -15  -2    0.45    0.16
   2 -15   2    0.84    0.18
  -2 -15  -2    0.51    0.16
 -11   0   3    0.02    0.13
  11   0  -3    0.17    0.13
  10   0  -3    6.22    0.35
 -10   0   3    5.94    0.38
   9   0  -3    7.18    0.35
  -9   0   3    6.62    0.37
  -8   0   3    3.65    0.27
   8   0  -3    3.84    0.24
  -7   0   3   29.78    0.85
   7   0  -3   30.60    0.80
   6   0  -3    1.11    0.13
  -6   0   3    0.80    0.12
   6   0  -3    0.91    0.08
   5   0  -3   33.39    0.73
   5   0  -3   35.11    0.83
  -5   0   3   34.85    0.87
   4   0  -3   97.86    2.01
  -4   0   3   97.38    2.09
   4   0  -3   94.16    1.89
   3   0  -3  141.41    2.80
  -3   0   3  145.38    3.04
   3   0  -3  148.39    2.92
   2   0  -3  750.50   14.65
  -2   0   3  753.82   15.91
   1   0  -3  237.11    4.85
   1   0  -3  238.26    4.67
   0   0  -3  198.74    4.02
   0   0  -3  194.01    3.87
  -1   0  -3  159.25    3.28
  -1   0  -3  157.66    3.14
  -2   0  -3   31.77    0.75
  -2   0  -3   30.54    0.69
  -3   0  -3   14.09    0.38
  -3   0  -3   14.45    0.44
  -4   0  -3   39.86    0.92
  -4   0  -3   41.23    1.02
  -5   0  -3   51.21    1.13
  -5   0  -3   48.09    1.24
  -6   0  -3    1.76    0.20
  -6   0  -3    1.79    0.16
  -7   0  -3   34.27    0.99
  -8   0  -3   18.59    0.68
  -9   0  -3    0.74    0.17
 -10   0  -3   13.17    0.61
 -11  -1   3    7.90    0.47
  11  -1  -3    8.12    0.42
 -11   1   3    8.70    0.48
  11   1  -3    8.10    0.42
 -10  -1   3    3.36    0.29
  10  -1  -3    3.61    0.27
  10   1  -3    3.07    0.26
 -10   1   3    3.33    0.29
  -9  -1   3    6.01    0.36
   9  -1  -3    6.20    0.33
   9   1  -3    6.78    0.34
  -9   1   3    6.49    0.36
  -8  -1   3   31.86    0.94
   8  -1  -3   31.58    0.86
  -8   1   3   32.05    0.93
   8   1  -3   32.74    0.88
   7  -1  -3   16.28    0.51
  -7  -1   3   16.41    0.57
   7  -1  -3   17.23    0.44
   7   1  -3   15.47    0.51
  -7   1   3   15.74    0.54
   6  -1  -3   30.76    0.77
   6  -1  -3   30.47    0.68
  -6  -1   3   30.19    0.83
  -6   1   3   29.74    0.81
   6   1  -3   29.13    0.77
  -5  -1   3   43.47    1.07
   5  -1  -3   44.44    1.01
   5  -1  -3   44.16    0.92
  -5   1   3   43.54    1.05
   5   1  -3   44.02    0.89
   5   1  -3   42.08    1.01
   4  -1  -3   39.29    0.89
  -4  -1   3   38.81    0.93
   4  -1  -3   38.17    0.81
  -4   1   3   39.04    0.91
   4   1  -3   39.13    0.89
   4   1  -3   37.37    0.77
   3  -1  -3   42.44    0.93
   3  -1  -3   42.02    0.86
  -3  -1   3   43.16    0.97
  -3   1   3   40.17    0.94
  -2  -1   3   52.82    1.18
   2  -1  -3   53.48    1.13
   2  -1  -3   52.77    1.08
  -2   1   3   54.69    1.15
   2   1  -3   53.94    1.13
   1  -1  -3   74.26    1.48
   1  -1  -3   73.31    1.52
   1  -1  -3   74.00    1.54
   1   1  -3   75.93    1.58
   1   1  -3   74.95    1.51
   0  -1  -3   62.73    1.34
   0  -1  -3   63.33    1.32
   0   1  -3   64.19    1.30
   0   1  -3   65.98    1.37
  -1  -1  -3   57.39    1.20
  -1  -1  -3   58.83    1.23
  -1   1  -3   55.68    1.17
  -1   1  -3   56.97    1.24
  -2  -1  -3  245.74    5.07
  -2  -1  -3  240.80    4.85
  -2   1  -3  249.89    4.82
  -2   1  -3  245.84    5.08
  -3  -1  -3  263.64    5.28
  -3  -1  -3  265.59    5.54
  -3   1  -3  267.80    5.25
  -3   1  -3  269.96    5.55
  -4  -1  -3   37.02    0.87
  -4  -1  -3   37.76    0.95
  -4   1  -3   35.93    0.95
  -4   1  -3   38.77    0.85
  -5  -1  -3   76.73    1.69
  -5  -1  -3   78.93    1.82
  -5   1  -3   77.85    1.66
  -5   1  -3   79.17    1.84
  -6  -1  -3   45.72    1.09
  -6  -1  -3   46.22    1.20
  -6   1  -3   45.80    1.21
  -7  -1  -3    8.73    0.36
  -7  -1  -3    9.27    0.42
  -7   1  -3    9.55    0.44
  -8  -1  -3    4.04    0.31
  -8   1  -3    3.75    0.31
  -9  -1  -3    1.50    0.23
  -9   1  -3    1.71    0.24
 -10  -1  -3    5.05    0.37
  10  -1   3    4.42    0.30
 -10   1  -3    4.65    0.37
 -10  -2   3   24.81    0.87
  10  -2  -3   25.22    0.77
 -10   2   3   24.97    0.84
  10   2  -3   24.27    0.79
  -9  -2   3    2.95    0.27
   9  -2  -3    3.05    0.23
  -9   2   3    3.76    0.27
   9   2  -3    3.28    0.25
  -8  -2   3    2.64    0.24
   8  -2  -3    2.94    0.21
   8   2  -3    2.43    0.20
  -8   2   3    2.45    0.24
   7  -2  -3   11.88    0.41
  -7  -2   3   12.03    0.47
   7  -2  -3   11.57    0.35
   7   2  -3   10.50    0.41
  -7   2   3   10.97    0.43
   6  -2  -3   65.68    1.51
  -6  -2   3   69.29    1.63
   6  -2  -3   69.82    1.44
  -6   2   3   68.67    1.59
   5  -2  -3   39.22    0.92
  -5  -2   3   39.64    0.99
   5  -2  -3   39.25    0.86
   5   2  -3   39.14    0.79
  -5   2   3   39.88    0.96
   5   2  -3   39.06    0.93
   4  -2  -3  101.33    2.15
   4  -2  -3  102.05    2.08
  -4  -2   3  105.73    2.28
  -4   2   3  106.68    2.23
   4   2  -3  106.05    2.17
  -3  -2   3  157.32    3.35
   3  -2  -3  158.42    3.11
   3   2  -3  162.75    3.20
  -3   2   3  157.16    3.29
   2  -2  -3   33.64    0.74
   2  -2  -3   33.91    0.71
  -2  -2   3   33.42    0.78
  -2   2   3   31.82    0.71
   2   2  -3   31.58    0.72
   1  -2  -3   30.16    0.66
   1  -2  -3   30.28    0.69
   1  -2  -3   31.28    0.64
   1   2  -3   30.86    0.66
   1   2  -3   30.30    0.71
   0  -2  -3  182.27    3.61
   0  -2  -3  179.29    3.70
   0  -2  -3  181.97    3.54
   0   2  -3  181.17    3.57
   0   2  -3  183.51    3.76
  -1  -2  -3  127.66    2.50
  -1  -2  -3  124.93    2.57
  -1   2  -3  121.79    2.60
  -1   2  -3  121.23    2.45
  -2  -2  -3    4.11    0.17
  -2  -2  -3    3.34    0.17
  -2   2  -3    3.10    0.18
  -2   2  -3    3.23    0.12
  -3  -2  -3   59.01    1.28
  -3  -2  -3   59.38    1.34
  -3   2  -3   58.74    1.22
  -3   2  -3   57.91    1.35
  -4  -2  -3   20.23    0.58
  -4  -2  -3   20.05    0.54
  -4   2  -3   19.82    0.49
  -4   2  -3   19.49    0.61
  -5  -2  -3    5.48    0.25
  -5  -2  -3    5.41    0.28
  -5   2  -3    6.03    0.22
  -5   2  -3    6.00    0.34
  -6  -2  -3    8.45    0.34
  -6  -2  -3    8.01    0.37
  -6   2  -3    8.20    0.39
  -7  -2  -3   27.40    0.84
  -7  -2  -3   28.46    0.78
  -7   2  -3   28.32    0.88
  -8  -2  -3   62.70    1.62
  -8   2  -3   63.00    1.65
   9  -2   3   24.58    0.74
  -9  -2  -3   23.73    0.82
  -9   2  -3   21.94    0.81
  10  -2   3   14.91    0.57
 -10  -2  -3   15.99    0.67
 -10   2  -3   15.26    0.67
  10  -3  -3    0.41    0.13
 -10  -3   3    0.39    0.16
  10   3  -3    0.53    0.16
 -10   3   3    0.55    0.16
   9  -3  -3    3.52    0.25
  -9  -3   3    4.08    0.31
  -9   3   3    4.44    0.30
   9   3  -3    4.06    0.28
   8  -3  -3   41.54    1.06
  -8  -3   3   42.17    1.18
   8  -3  -3   43.47    1.00
  -8   3   3   41.83    1.13
  -7  -3   3    5.81    0.33
   7  -3  -3    5.59    0.27
   7  -3  -3    5.94    0.25
  -7   3   3    6.08    0.30
   6  -3  -3   15.25    0.46
   6  -3  -3   15.34    0.43
  -6  -3   3   15.35    0.52
  -6   3   3   13.87    0.47
  -5  -3   3   54.28    1.31
   5  -3  -3   52.50    1.21
   5  -3  -3   54.82    1.17
  -5   3   3   55.99    1.26
   4  -3  -3   48.66    1.06
   4  -3  -3   50.27    1.11
  -4  -3   3   49.59    1.18
  -4   3   3   50.43    1.13
   3  -3  -3   73.03    1.54
   3  -3  -3   72.26    1.50
  -3  -3   3   73.04    1.63
  -3   3   3   71.25    1.55
   3   3  -3   76.03    1.54
  -2  -3   3    5.45    0.13
   2  -3  -3    5.69    0.19
  -2  -3   3    5.45    0.22
   2  -3  -3    5.73    0.20
   2   3  -3    5.86    0.19
  -2   3   3    5.64    0.16
   1  -3  -3   70.52    1.44
   1  -3  -3   72.12    1.47
  -1  -3   3   70.69    1.39
   1   3  -3   70.31    1.43
   1   3  -3   69.37    1.53
   0  -3  -3  181.49    3.51
   0  -3  -3  177.91    3.57
   0  -3  -3  182.20    3.63
   0  -3   3  176.81    3.47
   0   3  -3  173.96    3.71
   0   3  -3  180.67    3.51
  -1  -3  -3   65.63    1.34
  -1  -3  -3   53.43    1.33
  -1   3  -3   66.68    1.27
  -1   3  -3   67.62    1.40
  -2  -3  -3  184.97    3.58
  -2  -3  -3  168.20    3.46
  -2   3  -3  167.69    3.38
  -2   3  -3  168.24    3.61
  -3  -3  -3   53.16    1.21
  -3  -3  -3   53.46    1.18
  -3   3  -3   52.51    1.09
  -4  -3  -3   67.50    1.46
  -4  -3  -3   66.09    1.52
  -4   3  -3   66.19    1.37
  -4   3  -3   64.76    1.55
  -5  -3  -3   91.94    2.07
  -5  -3  -3   91.95    1.98
  -5   3  -3   90.30    2.11
  -6  -3  -3   46.06    1.14
  -6  -3  -3   48.41    1.22
  -6   3  -3   47.34    1.26
  -7  -3  -3    1.38    0.17
  -7  -3  -3    1.78    0.21
  -7   3  -3    1.20    0.20
  -8  -3  -3    1.33    0.20
   8  -3   3    1.20    0.17
  -8   3  -3    1.15    0.21
   9  -3   3    0.35    0.13
  -9  -3  -3    0.18    0.14
  -9   3  -3    0.26    0.16
 -10  -3  -3    2.53    0.31
  10  -3   3    3.16    0.26
 -10   3  -3    3.26    0.35
  10  -4  -3    4.27    0.28
 -10  -4   3    3.91    0.34
 -10   4   3    3.65    0.31
  10   4  -3    4.38    0.31
  -9  -4   3   10.28    0.50
   9  -4  -3   10.10    0.41
  -9   4   3    9.69    0.45
  -8  -4   3    7.72    0.41
   8  -4  -3    7.80    0.32
   8  -4  -3    7.44    0.33
  -8   4   3    8.02    0.37
   7  -4  -3    3.13    0.20
  -7  -4   3    2.78    0.23
   7  -4  -3    3.02    0.19
  -7   4   3    2.98    0.22
   6  -4  -3   19.16    0.52
  -6  -4   3   19.29    0.62
   6  -4  -3   18.13    0.54
  -6   4   3   19.50    0.57
   5  -4  -3    1.62    0.14
  -5  -4   3    1.33    0.16
   5  -4  -3    1.53    0.13
  -5   4   3    1.61    0.14
   4  -4  -3   54.39    1.21
  -4  -4   3   54.89    1.31
   4  -4  -3   55.63    1.19
  -4   4   3   55.52    1.23
   3  -4  -3   42.43    0.95
  -3  -4   3   43.45    1.03
   3  -4  -3   42.71    0.94
  -3   4   3   41.44    0.93
  -2  -4   3   80.39    1.75
   2  -4  -3   78.33    1.63
   2  -4  -3   78.12    1.65
  -2  -4   3   78.59    1.55
   2   4  -3   81.53    1.63
  -2   4   3   78.48    1.63
  -1  -4   3  122.85    2.38
   1  -4  -3  121.80    2.44
   1  -4  -3  124.80    2.48
   1   4  -3  119.24    2.59
   1   4  -3  121.13    2.43
   0  -4  -3  253.35    5.02
   0  -4  -3  256.66    4.95
   0  -4   3  256.78    4.90
   0   4  -3  250.61    5.23
   0   4  -3  248.86    4.94
  -1  -4  -3    4.23    0.19
  -1  -4  -3    4.38    0.15
   1  -4   3    4.48    0.17
  -1  -4  -3    4.21    0.19
  -1   4  -3    5.05    0.12
  -1   4  -3    5.49    0.21
  -2  -4  -3   59.47    1.29
  -2  -4  -3   60.24    1.30
   2  -4   3   57.87    1.26
  -2   4  -3   59.00    1.17
  -3  -4  -3   35.37    0.83
  -3  -4  -3   33.65    0.83
   3  -4   3   33.92    0.81
  -3   4  -3   33.79    0.87
   4  -4   3   92.32    1.95
  -4  -4  -3   93.21    2.05
  -4  -4  -3   92.04    1.98
  -4   4  -3   92.08    2.10
  -5  -4  -3   68.52    1.60
  -5  -4  -3   64.86    1.53
   5  -4   3   70.40    1.52
  -5   4  -3   68.44    1.66
   6  -4   3    5.28    0.27
  -6  -4  -3    5.50    0.28
  -6  -4  -3    5.55    0.30
  -6   4  -3    5.78    0.36
  -7  -4  -3    4.19    0.29
   7  -4   3    3.91    0.25
  -7  -4  -3    4.03    0.26
  -7   4  -3    4.68    0.34
   8  -4   3    5.98    0.32
  -8  -4  -3    5.92    0.36
  -8   4  -3    5.80    0.38
   9  -4   3    2.86    0.23
  -9  -4  -3    2.84    0.30
  -9   4  -3    2.39    0.30
 -10  -4  -3    1.11    0.22
  10  -4   3    1.00    0.19
 -10   4  -3    1.00    0.23
 -10  -5   3    1.34    0.24
  10   5  -3    1.53    0.22
   9  -5  -3   23.10    0.69
  -9  -5   3   22.13    0.81
  -9   5   3   21.31    0.73
   8  -5  -3    2.08    0.20
   8  -5  -3    1.69    0.18
  -8  -5   3    1.74    0.23
  -8   5   3    1.60    0.20
  -7  -5   3   37.54    1.08
   7  -5  -3   36.74    0.95
   7  -5  -3   40.02    0.95
  -7   5   3   39.15    1.01
   6  -5  -3   37.65    0.91
   6  -5  -3   37.75    0.91
  -6  -5   3   36.61    1.02
  -6   5   3   38.07    0.95
   5  -5  -3   14.66    0.43
   5  -5  -3   14.67    0.43
  -5  -5   3   14.06    0.50
  -5   5   3   14.18    0.43
  -4  -5   3    4.55    0.24
   4  -5  -3    4.29    0.20
   4  -5  -3    4.86    0.21
  -4   5   3    4.27    0.19
  -3  -5   3   35.51    0.93
  -3  -5   3   36.96    0.76
   3  -5  -3   38.13    0.86
   3  -5  -3   38.87    0.86
  -3   5   3   37.12    0.83
  -2  -5   3   12.72    0.31
  -2  -5   3   13.43    0.41
   2  -5  -3   13.32    0.37
   2  -5  -3   12.66    0.37
   2   5  -3   12.67    0.39
  -2   5   3   12.08    0.29
   1  -5  -3   20.59    0.52
  -1  -5   3   21.83    0.48
   1  -5  -3   21.09    0.52
   1   5  -3   19.94    0.55
   1   5  -3   20.33    0.47
   0  -5  -3   66.39    1.41
   0  -5   3   66.34    1.37
   0  -5  -3   67.61    1.42
   0   5  -3   65.54    1.48
   0   5  -3   67.46    1.33
  -1  -5  -3  105.97    2.13
  -1  -5  -3  103.49    2.16
  -1  -5  -3  105.03    2.16
   1  -5   3  102.63    2.10
  -1   5  -3  102.90    2.25
   2  -5   3   43.02    0.97
  -2  -5  -3   42.70    1.00
  -2  -5  -3   44.79    0.98
  -2   5  -3   42.80    1.04
  -3  -5  -3   52.67    1.23
  -3  -5  -3   54.31    1.23
   3  -5   3   54.24    1.20
  -3   5  -3   55.00    1.29
  -4  -5  -3   74.21    1.64
   4  -5   3   76.52    1.62
  -4  -5  -3   73.03    1.68
  -4   5  -3   72.40    1.73
  -5  -5  -3    6.72    0.31
   5  -5   3    6.57    0.29
  -5  -5  -3    6.71    0.31
  -5   5  -3    6.87    0.37
  -6  -5  -3   19.07    0.63
  -6  -5  -3   20.19    0.62
   6  -5   3   19.41    0.60
  -6   5  -3   20.17    0.70
  -7  -5  -3   34.01    0.95
   7  -5   3   34.58    0.92
  -7  -5  -3   35.29    0.99
  -7   5  -3   33.13    1.03
   8  -5   3    3.42    0.25
  -8  -5  -3    3.91    0.28
  -8  -5  -3    3.52    0.29
  -8   5  -3    4.45    0.36
   9  -5   3    3.36    0.26
  -9  -5  -3    3.28    0.30
  -9   5  -3    3.59    0.36
 -10  -6   3    2.96    0.33
  -9  -6   3   26.12    0.90
  -8  -6   3   13.59    0.58
   8  -6  -3   13.92    0.48
   8  -6  -3   14.49    0.49
  -7  -6   3    6.92    0.38
   7  -6  -3    6.97    0.30
   7  -6  -3    7.07    0.31
  -7   6   3    6.64    0.33
  -6  -6   3   12.85    0.50
   6  -6  -3   12.52    0.41
   6  -6  -3   12.54    0.43
  -6   6   3   12.36    0.43
  -5  -6   3   43.54    1.14
   5  -6  -3   42.73    1.01
   5  -6  -3   43.06    1.02
  -5   6   3   44.62    1.04
  -4  -6   3   94.14    2.13
   4  -6  -3   91.95    1.97
   4  -6  -3   92.58    1.96
  -4   6   3   95.17    2.01
  -3  -6   3    8.96    0.24
   3  -6  -3    9.04    0.31
   3  -6  -3    8.41    0.29
  -3  -6   3    8.33    0.34
  -3   6   3    9.00    0.26
  -2  -6   3   40.64    1.00
   2  -6  -3   39.80    0.92
  -2  -6   3   39.74    0.85
   2  -6  -3   40.48    0.91
  -2   6   3   39.12    0.85
   2   6  -3   40.08    0.98
  -1  -6   3   12.16    0.33
   1  -6  -3   11.90    0.36
   1  -6  -3   12.30    0.37
   1   6  -3   12.36    0.39
   1   6  -3   11.91    0.31
   0  -6  -3   23.67    0.60
   0  -6  -3   24.37    0.62
   0  -6   3   24.02    0.57
   0   6  -3   23.67    0.51
   0   6  -3   24.86    0.64
   0   6   3   23.47    0.52
   1  -6   3   19.27    0.50
  -1  -6  -3   19.08    0.53
  -1  -6  -3   20.24    0.53
  -1  -6  -3   19.65    0.46
  -1   6  -3   19.01    0.54
   2  -6   3  111.54    2.32
  -2  -6  -3  114.64    2.40
  -2  -6  -3  114.91    2.34
  -2  -6  -3  111.83    2.37
  -2   6  -3  113.99    2.48
  -3  -6  -3   23.70    0.62
  -3  -6  -3   22.75    0.64
   3  -6   3   23.12    0.62
  -3   6  -3   24.84    0.68
  -4  -6  -3   54.40    1.27
  -4  -6  -3   52.50    1.26
   4  -6   3   54.47    1.24
  -4   6  -3   53.45    1.33
  -5  -6  -3    1.88    0.19
  -5  -6  -3    1.62    0.17
   5  -6   3    1.46    0.17
  -5   6  -3    1.48    0.21
  -6  -6  -3   22.69    0.69
   6  -6   3   22.73    0.67
  -6  -6  -3   22.43    0.70
  -6   6  -3   21.94    0.76
  -7  -6  -3   45.82    1.19
  -7  -6  -3   45.51    1.22
   7  -6   3   44.45    1.16
  -7   6  -3   45.84    1.29
  -8  -6  -3   20.37    0.71
   8  -6   3   17.85    0.64
  -8   6  -3   19.98    0.76
  -9  -6  -3   18.25    0.71
   9  -6   3   18.46    0.66
  -9   6  -3   18.04    0.75
   9  -7  -3   11.13    0.45
  -9  -7   3   10.91    0.55
  -8  -7   3    2.35    0.27
   8  -7  -3    2.51    0.22
  -7  -7   3   33.98    1.03
   7  -7  -3   35.07    0.92
   7  -7  -3   36.10    0.89
   6  -7  -3   13.54    0.43
   6  -7  -3   12.99    0.45
  -6  -7   3   11.98    0.51
   5  -7  -3    0.26    0.08
  -5  -7   3    0.49    0.12
   5  -7  -3    0.36    0.11
   4  -7  -3   24.21    0.62
  -4  -7   3   24.09    0.72
   4  -7  -3   24.34    0.66
  -3  -7   3   26.47    0.60
  -3  -7   3   26.34    0.75
   3  -7  -3   26.78    0.69
   3  -7  -3   25.81    0.65
  -2  -7   3   34.04    0.76
   2  -7  -3   32.90    0.83
   2  -7  -3   33.61    0.80
   2   7  -3   35.08    0.88
  -1  -7   3    1.13    0.11
   1  -7  -3    0.92    0.11
   1  -7  -3    0.98    0.12
   1   7  -3    1.85    0.15
   0  -7  -3    1.53    0.14
   0  -7   3    1.78    0.13
   0  -7  -3    1.38    0.14
   0   7   3    1.71    0.08
   0   7  -3    1.73    0.08
   0   7  -3    1.66    0.16
  -1  -7  -3   93.30    2.11
  -1  -7  -3  102.55    2.12
   1  -7   3  104.06    2.08
  -1  -7  -3  101.89    2.11
  -1   7  -3  101.84    2.22
   2  -7   3   37.37    0.89
  -2  -7  -3   37.58    0.92
  -2  -7  -3   39.04    0.92
  -2  -7  -3   37.33    0.87
  -2   7  -3   37.76    0.96
  -3  -7  -3   22.41    0.63
   3  -7   3   21.68    0.60
  -3  -7  -3   21.90    0.58
  -3   7  -3   20.99    0.65
  -4  -7  -3   10.35    0.37
  -4  -7  -3   10.03    0.39
   4  -7   3   10.80    0.39
  -4   7  -3   10.32    0.44
  -5  -7  -3   10.16    0.40
   5  -7   3   10.29    0.40
  -5  -7  -3   10.84    0.42
  -5   7  -3   10.14    0.47
  -6  -7  -3   23.75    0.74
   6  -7   3   24.29    0.72
  -6  -7  -3   24.05    0.73
  -6   7  -3   23.53    0.80
   7  -7   3   18.75    0.64
  -7  -7  -3   19.63    0.67
  -7  -7  -3   19.31    0.66
  -7   7  -3   19.05    0.73
   8  -7   3    0.72    0.16
  -8  -7  -3    0.54    0.15
  -8  -7  -3    0.93    0.18
  -8   7  -3    0.68    0.20
  -9  -7  -3    0.44    0.16
   9  -7   3    0.39    0.14
  -9   7  -3    0.31    0.20
  -9  -8   3    0.02    0.12
   9  -8  -3    0.12    0.12
  -8  -8   3    2.65    0.29
   8  -8  -3    2.84    0.24
  -7  -8   3    0.83    0.17
   7  -8  -3    0.72    0.14
   6  -8  -3    6.79    0.32
  -6  -8   3    6.65    0.37
   5  -8  -3    9.99    0.39
  -5  -8   3    9.70    0.43
   5  -8  -3   10.22    0.35
   4  -8  -3   11.53    0.37
   4  -8  -3   11.09    0.41
  -4  -8   3   11.86    0.46
   3  -8  -3    6.36    0.29
   3  -8  -3    5.98    0.25
  -3  -8   3    5.45    0.29
  -3  -8   3    5.86    0.21
   3   8  -3    5.54    0.28
  -2  -8   3   42.70    0.94
   2  -8  -3   42.22    1.01
   2  -8  -3   42.70    0.98
   2   8  -3   40.51    1.05
  -1  -8   3  124.00    2.48
   1  -8  -3  123.00    2.54
   1  -8  -3  123.05    2.53
   1   8  -3  118.76    2.67
   0  -8   3    9.87    0.33
   0  -8  -3   10.23    0.35
   0  -8  -3   10.61    0.38
   0   8  -3   10.74    0.38
  -1  -8  -3   18.47    0.53
  -1  -8  -3   18.10    0.54
   1  -8   3   18.33    0.51
   1   8   3   18.65    0.45
  -1   8  -3   18.52    0.56
   2  -8   3   19.90    0.58
  -2  -8  -3   21.58    0.61
  -2  -8  -3   22.03    0.61
  -2  -8  -3   21.89    0.55
  -2   8  -3   21.55    0.64
   3  -8   3   24.99    0.69
  -3  -8  -3   26.21    0.68
  -3  -8  -3   26.32    0.72
  -3   8  -3   25.71    0.74
  -4  -8  -3   10.73    0.42
  -4  -8  -3   10.53    0.38
   4  -8   3   10.57    0.40
  -4   8  -3   11.10    0.46
  -5  -8  -3    7.55    0.36
   5  -8   3    7.83    0.35
  -5  -8  -3    8.16    0.35
  -5   8  -3    7.71    0.42
  -6  -8  -3   21.53    0.71
   6  -8   3   21.15    0.68
  -6  -8  -3   22.09    0.69
  -6   8  -3   23.81    0.81
   7  -8   3    8.20    0.40
  -7  -8  -3    9.68    0.44
  -7  -8  -3    8.67    0.42
  -7   8  -3    9.05    0.50
  -8  -8  -3    0.56    0.16
  -8  -8  -3    1.01    0.19
   8  -8   3    0.68    0.16
  -8   8  -3    0.61    0.22
  -8  -9   3   11.12    0.55
   8  -9  -3   11.52    0.48
   7  -9  -3    4.96    0.31
  -7  -9   3    4.94    0.34
   6  -9  -3    9.43    0.41
  -6  -9   3    9.28    0.45
  -5  -9   3    5.12    0.31
   5  -9  -3    4.89    0.28
  -4  -9   3    3.54    0.25
   4  -9  -3    4.03    0.24
   4  -9  -3    3.99    0.21
  -3  -9   3   16.35    0.45
   3  -9  -3   16.36    0.47
   3  -9  -3   16.41    0.53
   3   9  -3   15.98    0.54
   2  -9  -3    2.54    0.20
  -2  -9   3    2.61    0.16
   2  -9  -3    2.54    0.18
   2   9  -3    2.61    0.20
   1  -9  -3    5.52    0.27
   1  -9  -3    5.39    0.25
  -1  -9   3    5.93    0.24
   1   9  -3    5.27    0.27
   0  -9   3    7.56    0.29
   0  -9  -3    7.63    0.30
   0  -9  -3    7.61    0.32
   0   9  -3    6.83    0.31
  -1  -9  -3   71.89    1.59
   1  -9   3   70.26    1.55
  -1  -9  -3   70.78    1.58
  -1   9  -3   69.88    1.65
  -2  -9  -3   19.92    0.59
  -2  -9  -3   20.30    0.60
   2  -9   3   20.50    0.59
  -2   9  -3   20.42    0.62
  -3  -9  -3   10.40    0.41
   3  -9   3   11.54    0.41
  -3   9  -3   10.94    0.44
   4  -9   3   30.43    0.83
  -4  -9  -3   31.30    0.81
  -4  -9  -3   28.66    0.83
  -4   9  -3   30.22    0.89
   5  -9   3    9.70    0.41
  -5  -9  -3    9.49    0.42
  -5  -9  -3   10.08    0.40
  -5   9  -3    9.85    0.48
  -6  -9  -3    4.34    0.28
  -6  -9  -3    4.46    0.30
   6  -9   3    4.64    0.30
  -6   9  -3    4.47    0.36
   7  -9   3    4.16    0.29
  -7  -9  -3    5.16    0.34
  -7  -9  -3    5.14    0.32
  -7   9  -3    4.69    0.39
   8  -9   3    0.32    0.13
  -8  -9  -3    0.34    0.14
  -8  -9  -3    0.32    0.13
  -8   9  -3    0.62    0.23
  -8 -10   3    0.20    0.14
   8 -10  -3    0.30    0.13
  -7 -10   3    5.95    0.39
   7 -10  -3    5.39    0.34
   6 -10  -3    3.44    0.27
  -6 -10   3    3.41    0.29
   5 -10  -3   14.45    0.53
  -5 -10   3   14.76    0.58
   4 -10  -3   16.65    0.57
   4  10  -3   16.82    0.59
   3 -10  -3    2.76    0.22
   3  10  -3    2.69    0.22
   2 -10  -3    1.10    0.15
   2 -10  -3    0.96    0.13
  -2 -10   3    1.27    0.13
   2  10  -3    0.82    0.14
   1 -10  -3    0.95    0.14
  -1 -10   3    1.03    0.13
   1 -10  -3    1.10    0.13
   1  10  -3    0.73    0.13
   0 -10   3    1.79    0.16
   0 -10  -3    1.49    0.17
   0 -10  -3    1.95    0.18
   0  10  -3    1.51    0.17
   1 -10   3    4.12    0.23
  -1 -10  -3    4.36    0.25
  -1 -10  -3    3.85    0.23
  -1  10  -3    3.91    0.25
  -2 -10  -3    9.77    0.39
   2 -10   3    9.67    0.38
  -2 -10  -3   10.27    0.40
  -2  10  -3    9.83    0.41
  -3 -10  -3    7.19    0.33
   3 -10   3    7.03    0.32
  -3  10  -3    7.18    0.36
  -4 -10  -3    0.34    0.12
   4 -10   3    0.24    0.11
  -4  10  -3    0.15    0.15
   5 -10   3    1.19    0.17
  -5 -10  -3    1.15    0.18
  -5  10  -3    1.35    0.23
   6 -10   3    4.45    0.29
  -6 -10  -3    4.10    0.29
  -6  10  -3    4.27    0.38
   7 -10   3    4.30    0.30
  -7 -10  -3    4.85    0.33
  -7  10  -3    3.96    0.40
  -7 -11   3    3.81    0.33
   7 -11  -3    3.62    0.29
   6 -11  -3    2.14    0.24
  -6 -11   3    2.21    0.26
  -5 -11   3    6.01    0.37
   5 -11  -3    5.65    0.33
   5  11  -3    5.46    0.33
   4 -11  -3   15.55    0.56
   4  11  -3   15.07    0.57
   3 -11  -3    8.23    0.39
   3  11  -3    7.68    0.37
  -2 -11   3    7.34    0.30
   2 -11  -3    6.59    0.33
   2  11  -3    6.67    0.34
   1 -11  -3    5.02    0.25
  -1 -11   3    4.88    0.25
   1 -11  -3    5.27    0.30
   1  11  -3    5.11    0.28
   0 -11  -3    2.25    0.22
   0 -11   3    2.13    0.18
   0 -11  -3    2.26    0.18
   0  11  -3    2.23    0.20
  -1 -11  -3    7.18    0.32
   1 -11   3    6.69    0.31
  -1 -11  -3    6.81    0.34
  -1  11  -3    6.90    0.34
   2 -11   3    4.46    0.26
  -2 -11  -3    4.09    0.25
  -2 -11  -3    4.24    0.27
  -2  11  -3    4.54    0.29
  -3 -11  -3    4.95    0.29
   3 -11   3    4.81    0.29
  -3  11  -3    4.80    0.31
  -4 -11  -3   12.09    0.49
   4 -11   3   13.56    0.50
  -4  11  -3   13.01    0.54
   5 -11   3   15.29    0.56
  -5 -11  -3   14.33    0.56
  -5  11  -3   13.92    0.61
   6 -11   3    3.83    0.28
  -6 -11  -3    4.55    0.32
  -6  11  -3    3.90    0.38
  -7 -11  -3    1.94    0.25
   7 -11   3    1.98    0.25
  -7  11  -3    2.22    0.32
  -6 -12   3    2.07    0.27
   6 -12  -3    2.51    0.26
   6  12  -3    2.74    0.29
   5 -12  -3    3.58    0.28
   5  12  -3    3.59    0.29
   4 -12  -3    4.22    0.29
   4  12  -3    3.84    0.28
   3 -12  -3    3.80    0.28
   3  12  -3    3.64    0.27
   2 -12  -3   10.33    0.45
   2  12  -3   10.50    0.44
   1 -12  -3   10.43    0.45
  -1 -12   3    9.76    0.39
   1  12  -3   10.15    0.43
   0 -12   3    4.90    0.27
   0 -12  -3    4.47    0.29
   0  12  -3    3.95    0.27
   1 -12   3    3.77    0.25
  -1 -12  -3    3.72    0.26
  -1 -12  -3    3.55    0.24
  -1  12  -3    3.73    0.27
  -2 -12  -3    0.89    0.15
  -2 -12  -3    0.72    0.15
   2 -12   3    0.95    0.16
  -2  12  -3    0.72    0.16
   3 -12   3    3.01    0.24
  -3 -12  -3    3.41    0.25
  -3  12  -3    2.56    0.27
  -4 -12  -3    6.98    0.37
   4 -12   3    6.88    0.36
  -4  12  -3    6.44    0.40
  -5 -12  -3    2.14    0.25
   5 -12   3    1.80    0.23
  -5  12  -3    2.13    0.29
   6 -12   3    4.16    0.31
  -6 -12  -3    4.61    0.33
  -6  12  -3    3.47    0.38
   5 -13  -3    4.13    0.31
   5  13  -3    3.38    0.29
   4 -13  -3    0.35    0.15
   4  13  -3    0.47    0.14
   3 -13  -3    2.54    0.27
   3  13  -3    2.72    0.25
   2 -13  -3    5.50    0.33
   2  13  -3    4.80    0.31
  -1 -13   3   -0.01    0.09
   1 -13  -3   -0.08    0.10
   1  13  -3    0.12    0.11
   0 -13  -3    8.26    0.40
   0 -13   3    8.40    0.37
   0  13  -3    8.82    0.40
  -1 -13  -3    8.07    0.40
   1 -13   3    7.54    0.36
  -1  13  -3    8.11    0.39
  -2 -13  -3    7.08    0.38
   2 -13   3    7.73    0.37
  -2 -13  -3    7.96    0.37
  -2  13  -3    6.96    0.38
  -3 -13  -3    5.13    0.31
   3 -13   3    4.82    0.31
  -3  13  -3    4.77    0.34
   4 -13   3    0.55    0.15
  -4 -13  -3    0.62    0.15
  -4  13  -3    0.31    0.19
   5 -13   3    1.91    0.24
  -5 -13  -3    2.14    0.25
  -5  13  -3    1.84    0.29
   4 -14  -3    0.38    0.15
   4  14  -3    0.21    0.13
   3 -14  -3    1.42    0.22
   3  14  -3    1.96    0.24
   2 -14  -3    0.20    0.13
   2  14  -3    0.38    0.13
   1 -14  -3    1.88    0.24
   1  14  -3    2.21    0.24
   0 -14  -3    1.14    0.19
   0 -14   3    0.71    0.16
   0  14  -3    1.02    0.18
  -1 -14  -3    0.76    0.17
   1 -14   3    1.13    0.18
  -1  14  -3    1.10    0.19
  -2 -14  -3    3.46    0.28
   2 -14   3    3.33    0.27
  -2  14  -3    3.96    0.30
   3 -14   3    9.13    0.43
  -3  14  -3    8.19    0.45
   1 -15  -3    2.90    0.31
   1  15  -3    3.40    0.28
   0 -15  -3    1.73    0.24
   1 -15   3    1.04    0.19
  -1 -15  -3    0.87    0.19
  10   0  -4    4.60    0.31
 -10   0   4    5.12    0.35
   9   0  -4    1.87    0.22
  -9   0   4    1.79    0.22
   8   0  -4    3.76    0.25
  -8   0   4    4.01    0.27
   7   0  -4    4.02    0.24
  -7   0   4    3.98    0.25
   6   0  -4   20.90    0.59
  -6   0   4   19.77    0.61
   5   0  -4   10.99    0.27
   5   0  -4   11.77    0.38
  -5   0   4   11.83    0.39
   4   0  -4    2.66    0.10
   4   0  -4    2.75    0.17
  -4   0   4    2.59    0.16
   3   0  -4   12.31    0.36
  -3   0   4   12.73    0.36
   3   0  -4   12.73    0.29
  -2   0   4    2.96    0.13
   1   0  -4   84.97    1.77
   1   0  -4   82.80    1.72
   0   0  -4   -0.11    0.05
   0   0  -4   -0.13    0.05
  -1   0  -4   71.31    1.47
  -1   0  -4   69.89    1.53
  -2   0  -4    1.76    0.11
  -3   0  -4    1.52    0.16
  -3   0  -4    1.57    0.11
  -4   0  -4   10.86    0.42
  -4   0  -4   10.94    0.34
  -5   0  -4    9.63    0.41
  -5   0  -4   10.28    0.35
  -6   0  -4    7.02    0.36
  -6   0  -4    5.99    0.27
  -7   0  -4   15.19    0.59
  -7   0  -4   15.14    0.49
  -8   0  -4    6.93    0.40
  -9   0  -4    5.15    0.36
 -10   0  -4    0.26    0.16
 -10  -1   4    7.91    0.44
  10  -1  -4    8.06    0.40
  10   1  -4    8.29    0.41
 -10   1   4    8.59    0.44
   9  -1  -4    5.75    0.32
  -9  -1   4    5.20    0.33
  -9   1   4    6.05    0.35
   9   1  -4    5.99    0.33
   8  -1  -4   11.53    0.45
  -8  -1   4   12.53    0.50
  -8   1   4   12.35    0.48
   8   1  -4   11.67    0.46
   7  -1  -4   10.94    0.41
  -7  -1   4   11.90    0.46
   7   1  -4   11.40    0.42
  -7   1   4   11.16    0.43
   6  -1  -4   23.40    0.53
  -6  -1   4   22.08    0.66
   6  -1  -4   22.83    0.63
  -6   1   4   22.87    0.65
   6   1  -4   20.91    0.62
   5  -1  -4   12.21    0.32
   5  -1  -4   12.26    0.40
  -5  -1   4   12.78    0.43
   5   1  -4   13.22    0.41
  -5   1   4   13.65    0.41
   4  -1  -4   45.55    0.95
   4  -1  -4   46.81    1.05
  -4  -1   4   45.52    1.09
   4   1  -4   47.49    1.05
  -4   1   4   45.43    1.06
  -3  -1   4    6.60    0.24
   3  -1  -4    6.82    0.24
   3  -1  -4    6.65    0.19
  -3   1   4    6.76    0.22
   3   1  -4    6.38    0.23
   2  -1  -4    3.84    0.14
   2  -1  -4    4.10    0.17
  -2  -1   4    3.80    0.17
  -2   1   4    3.63    0.14
   2   1  -4    4.41    0.17
   1  -1  -4   13.10    0.33
   1  -1  -4   13.06    0.36
   1   1  -4   13.96    0.36
   1   1  -4   14.16    0.36
   0  -1  -4   15.16    0.40
   0  -1  -4   15.50    0.38
   0   1  -4   15.13    0.38
   0   1  -4   15.82    0.40
  -1  -1  -4    8.03    0.25
  -1  -1  -4    7.58    0.25
  -1   1  -4    8.01    0.24
  -1   1  -4    7.93    0.27
  -2  -1  -4    1.84    0.12
  -2  -1  -4    1.92    0.16
  -2   1  -4    2.04    0.16
  -2   1  -4    1.83    0.11
  -3  -1  -4   24.26    0.62
  -3  -1  -4   24.96    0.67
  -3   1  -4   26.06    0.69
  -3   1  -4   25.50    0.60
  -4  -1  -4    1.45    0.13
  -4  -1  -4    1.48    0.16
  -4   1  -4    1.68    0.19
  -4   1  -4    1.43    0.12
  -5  -1  -4   40.72    1.09
  -5  -1  -4   42.04    1.01
  -5   1  -4   43.07    1.13
  -5   1  -4   43.70    0.98
  -6  -1  -4   22.11    0.64
  -6  -1  -4   22.81    0.73
  -6   1  -4   23.50    0.63
  -6   1  -4   23.60    0.75
  -7  -1  -4    2.14    0.19
  -7  -1  -4    2.41    0.25
  -7   1  -4    2.13    0.25
  -8  -1  -4    5.59    0.36
  -8   1  -4    5.62    0.36
  -9  -1  -4   14.27    0.62
  -9   1  -4   14.50    0.62
 -10  -1  -4    5.36    0.39
 -10   1  -4    5.82    0.41
 -10  -2   4    5.76    0.38
  10  -2  -4    5.61    0.34
 -10   2   4    6.15    0.37
  10   2  -4    5.58    0.35
  -9  -2   4    3.19    0.28
   9  -2  -4    3.44    0.25
   9   2  -4    4.14    0.28
  -9   2   4    3.29    0.26
  -8  -2   4    4.45    0.30
   8  -2  -4    3.94    0.26
   8   2  -4    4.52    0.28
  -8   2   4    4.40    0.28
   7  -2  -4   10.96    0.41
  -7  -2   4   10.96    0.44
   7   2  -4   10.98    0.42
  -7   2   4   10.75    0.42
  -6  -2   4   25.22    0.74
   6  -2  -4   26.31    0.61
   6  -2  -4   25.14    0.68
  -6   2   4   26.07    0.71
   6   2  -4   24.81    0.69
  -5  -2   4   36.10    0.93
   5  -2  -4   36.63    0.88
   5  -2  -4   35.54    0.79
  -5   2   4   35.37    0.88
   5   2  -4   37.16    0.89
  -4  -2   4    3.92    0.21
   4  -2  -4    3.80    0.15
   4  -2  -4    4.20    0.20
  -4   2   4    4.12    0.18
   4   2  -4    4.49    0.20
   3  -2  -4   40.35    0.90
  -3  -2   4   38.26    0.94
   3  -2  -4   40.10    0.84
  -3   2   4   38.89    0.88
   3   2  -4   39.24    0.89
  -2  -2   4   99.65    2.17
  -2  -2   4  102.95    1.95
   2  -2  -4  102.91    2.02
   2  -2  -4   98.77    2.08
  -2   2   4  101.43    2.10
   2   2  -4  100.86    2.06
   1  -2  -4   53.92    1.13
   1  -2  -4   53.98    1.17
   1  -2  -4   54.81    1.13
   1   2  -4   53.55    1.14
   1   2  -4   54.02    1.20
   0  -2  -4   12.98    0.32
   0  -2  -4   13.10    0.36
   0   2  -4   12.93    0.33
   0   2  -4   13.27    0.37
  -1  -2  -4   17.77    0.45
  -1  -2  -4   16.85    0.45
  -1   2  -4   17.55    0.47
  -1   2  -4   18.05    0.42
  -2  -2  -4   39.28    0.92
  -2  -2  -4   39.23    0.90
  -2   2  -4   39.59    0.85
  -2   2  -4   40.23    0.95
  -3  -2  -4   14.38    0.41
  -3  -2  -4   13.48    0.43
  -3   2  -4   12.96    0.45
  -3   2  -4   13.57    0.36
  -4  -2  -4   15.53    0.48
  -4  -2  -4   17.28    0.53
  -4   2  -4   16.78    0.56
  -4   2  -4   16.78    0.43
  -5  -2  -4   31.49    0.85
  -5  -2  -4   29.08    0.78
  -5   2  -4   31.47    0.90
  -5   2  -4   30.44    0.73
  -6  -2  -4   15.83    0.51
  -6  -2  -4   15.68    0.56
  -6   2  -4   16.34    0.60
  -6   2  -4   16.48    0.47
  -7  -2  -4   12.86    0.46
  -7  -2  -4   11.91    0.51
  -7   2  -4   13.52    0.56
  -8  -2  -4    8.70    0.39
  -8  -2  -4    8.32    0.43
  -8   2  -4    8.24    0.45
  -9  -2  -4    7.25    0.43
  -9   2  -4    6.79    0.44
 -10  -2  -4    3.78    0.34
  10  -2   4    3.83    0.29
 -10   2  -4    4.41    0.37
 -10  -3   4    6.71    0.42
  10  -3  -4    6.63    0.36
  10   3  -4    5.73    0.35
 -10   3   4    6.82    0.39
  -9  -3   4   11.90    0.53
   9  -3  -4   11.40    0.46
  -9   3   4   11.74    0.49
   9   3  -4   11.38    0.48
  -8  -3   4    2.72    0.25
   8  -3  -4    2.16    0.21
  -8   3   4    2.43    0.23
   8   3  -4    2.38    0.23
  -7  -3   4   29.52    0.87
   7  -3  -4   28.74    0.79
   7  -3  -4   30.40    0.72
   7   3  -4   28.23    0.80
  -7   3   4   29.81    0.81
   6  -3  -4    5.71    0.22
   6  -3  -4    5.83    0.27
  -6  -3   4    5.66    0.30
  -6   3   4    5.04    0.25
   6   3  -4    5.10    0.26
   5  -3  -4   30.76    0.77
   5  -3  -4   29.90    0.71
  -5  -3   4   30.25    0.83
   5   3  -4   31.26    0.78
  -5   3   4   30.89    0.76
   4  -3  -4   12.51    0.35
   4  -3  -4   12.23    0.39
  -4  -3   4   13.00    0.42
  -4   3   4   12.84    0.36
   4   3  -4   12.83    0.39
   3  -3  -4    7.97    0.27
  -3  -3   4    7.78    0.29
   3  -3  -4    7.39    0.25
   3   3  -4    8.21    0.27
  -3   3   4    7.87    0.23
   2  -3  -4   16.56    0.42
   2  -3  -4   16.16    0.44
  -2  -3   4   15.57    0.46
  -2  -3   4   16.09    0.34
   2   3  -4   16.35    0.45
  -2   3   4   16.22    0.37
   2   3  -4   16.94    0.42
   1  -3  -4    9.00    0.27
   1  -3  -4    8.47    0.28
  -1  -3   4    9.17    0.23
   1   3  -4    8.57    0.28
   1   3  -4    8.54    0.25
   0  -3  -4   59.10    1.27
   0  -3  -4   57.71    1.23
   0  -3  -4   58.33    1.24
   0   3  -4   59.59    1.21
   0   3  -4   58.95    1.31
  -1  -3  -4    8.29    0.24
  -1  -3  -4    8.12    0.28
  -1   3  -4    8.20    0.22
  -1   3  -4    8.24    0.29
  -2  -3  -4    7.02    0.25
  -2  -3  -4    7.24    0.27
  -2   3  -4    7.26    0.28
  -2   3  -4    7.14    0.20
  -3  -3  -4   34.11    0.84
  -3  -3  -4   33.34    0.82
  -3   3  -4   34.45    0.88
  -3   3  -4   33.87    0.74
  -4  -3  -4   39.37    0.96
  -4  -3  -4   37.52    0.92
  -4   3  -4   36.73    0.83
  -4   3  -4   37.41    1.00
  -5  -3  -4    2.80    0.19
  -5  -3  -4    2.79    0.22
  -5   3  -4    3.37    0.16
  -5   3  -4    2.99    0.27
  -6  -3  -4   12.71    0.46
  -6  -3  -4   12.92    0.49
  -6   3  -4   12.91    0.54
  -7  -3  -4   12.66    0.48
  -7  -3  -4   12.31    0.51
  -7   3  -4   13.83    0.58
  -8  -3  -4    1.77    0.21
  -8  -3  -4    1.61    0.22
  -8   3  -4    1.86    0.26
   9  -3   4   22.03    0.71
  -9  -3  -4   20.36    0.77
  -9   3  -4   20.77    0.81
 -10  -3  -4    3.26    0.35
  10  -3   4    3.51    0.28
 -10   3  -4    3.69    0.34
 -10  -4   4    0.71    0.20
  10  -4  -4    0.75    0.16
  10   4  -4    1.03    0.19
   9  -4  -4    4.74    0.29
  -9  -4   4    5.84    0.37
   9   4  -4    4.81    0.32
  -9   4   4    5.11    0.31
   8  -4  -4    7.71    0.35
  -8  -4   4    7.35    0.40
   8   4  -4    6.76    0.35
  -8   4   4    7.60    0.36
   7  -4  -4    6.87    0.31
   7  -4  -4    7.27    0.29
  -7  -4   4    6.54    0.36
   7   4  -4    6.70    0.32
  -7   4   4    6.97    0.31
   6  -4  -4   16.40    0.51
   6  -4  -4   17.40    0.48
  -6  -4   4   17.14    0.58
  -6   4   4   17.45    0.51
   6   4  -4   16.93    0.53
  -5  -4   4   13.07    0.47
   5  -4  -4   14.00    0.43
   5  -4  -4   14.00    0.40
  -5   4   4   13.37    0.40
   5   4  -4   13.14    0.43
   4  -4  -4   19.98    0.52
  -4  -4   4   19.85    0.60
   4  -4  -4   20.95    0.55
  -4   4   4   20.38    0.51
   4   4  -4   20.28    0.55
   3  -4  -4   52.70    1.13
  -3  -4   4   51.62    1.24
   3  -4  -4   52.61    1.16
   3   4  -4   53.30    1.15
  -3   4   4   51.10    1.12
  -2  -4   4   48.83    1.13
   2  -4  -4   47.37    1.03
  -2  -4   4   46.83    0.94
   2  -4  -4   45.17    1.05
   2   4  -4   48.11    1.11
   2   4  -4   47.15    1.02
   1  -4  -4    2.26    0.14
  -1  -4   4    2.05    0.10
   1  -4  -4    2.18    0.13
   1   4  -4    2.59    0.15
   1   4  -4    2.44    0.12
   0  -4   4    9.10    0.26
   0  -4  -4    9.84    0.31
   0  -4  -4    9.40    0.30
   0   4  -4    8.72    0.31
   0   4  -4    9.34    0.24
  -1  -4  -4    2.37    0.11
  -1  -4  -4    2.46    0.16
   1  -4   4    2.44    0.13
  -1   4  -4    3.01    0.11
  -1   4  -4    2.97    0.17
  -2  -4  -4   54.59    1.18
  -2  -4  -4   51.28    1.19
  -2   4  -4   51.99    1.07
  -2   4  -4   53.55    1.24
  -3  -4  -4   48.01    1.11
  -3  -4  -4   48.25    1.11
  -3   4  -4   46.40    1.16
  -3   4  -4   48.88    0.99
  -4  -4  -4   12.99    0.44
  -4  -4  -4   13.31    0.44
  -4   4  -4   14.06    0.51
  -4   4  -4   13.93    0.35
  -5  -4  -4   10.33    0.39
  -5  -4  -4   10.64    0.40
  -5   4  -4    9.91    0.45
  -6  -4  -4    3.44    0.23
  -6  -4  -4    3.12    0.24
  -6   4  -4    3.17    0.29
  -7  -4  -4    3.88    0.27
  -7  -4  -4    3.39    0.27
   7  -4   4    3.64    0.26
  -7   4  -4    3.51    0.34
  -8  -4  -4   12.36    0.51
  -8  -4  -4   12.27    0.53
   8  -4   4   12.71    0.50
  -8   4  -4   13.14    0.60
   9  -4   4    4.70    0.31
  -9  -4  -4    5.05    0.35
  -9   4  -4    4.56    0.37
  10  -5  -4    4.61    0.30
 -10  -5   4    4.34    0.36
  10   5  -4    5.38    0.35
   9  -5  -4    3.15    0.24
  -9  -5   4    2.41    0.28
   9   5  -4    2.85    0.25
   8  -5  -4   12.06    0.45
  -8  -5   4   11.47    0.53
   8   5  -4   11.88    0.48
   7  -5  -4    4.17    0.23
   7  -5  -4    4.19    0.24
  -7  -5   4    3.80    0.28
  -7   5   4    4.31    0.25
   7   5  -4    4.03    0.26
  -6  -5   4    0.99    0.16
   6  -5  -4    1.08    0.13
   6  -5  -4    0.95    0.13
   6   5  -4    0.72    0.13
  -6   5   4    1.00    0.13
  -5  -5   4    6.08    0.31
   5  -5  -4    5.73    0.25
   5  -5  -4    5.91    0.26
   5   5  -4    6.18    0.27
  -5   5   4    6.08    0.24
  -4  -5   4   39.78    1.00
   4  -5  -4   38.73    0.91
   4  -5  -4   37.03    0.89
   4   5  -4   38.57    0.91
  -4   5   4   37.74    0.87
   3  -5  -4   94.38    1.96
   3  -5  -4   92.11    1.99
  -3  -5   4   94.90    1.83
  -3  -5   4   97.20    2.12
  -3   5   4   92.62    1.96
   3   5  -4   96.18    1.97
  -2  -5   4    3.03    0.11
   2  -5  -4    3.06    0.17
   2  -5  -4    2.71    0.16
   2   5  -4    3.00    0.14
   2   5  -4    3.01    0.18
   1  -5  -4    0.23    0.07
   1  -5  -4    0.36    0.08
  -1  -5   4    0.33    0.05
   1   5  -4    0.58    0.09
   1   5  -4    0.27    0.05
   0  -5  -4   10.14    0.33
   0  -5   4   10.18    0.30
   0  -5  -4   10.72    0.34
   0   5  -4   10.89    0.26
   0   5  -4   10.77    0.36
  -1  -5  -4   14.73    0.44
  -1  -5  -4   15.40    0.45
   1  -5   4   15.70    0.41
  -1  -5  -4   15.71    0.37
  -1   5  -4   15.43    0.47
  -1   5  -4   15.29    0.34
   2  -5   4    7.00    0.26
  -2  -5  -4    7.05    0.24
  -2  -5  -4    7.03    0.29
  -2   5  -4    7.91    0.32
   3  -5   4   63.62    1.39
  -3  -5  -4   62.14    1.42
  -3  -5  -4   62.85    1.42
  -3   5  -4   64.00    1.50
  -4  -5  -4   33.43    0.85
   4  -5   4   32.30    0.82
  -4  -5  -4   33.17    0.84
  -4   5  -4   31.18    0.90
  -5  -5  -4   10.60    0.40
  -5  -5  -4    9.84    0.40
   5  -5   4    9.93    0.39
  -5   5  -4   11.89    0.48
  -6  -5  -4   11.70    0.45
  -6  -5  -4   10.71    0.44
   6  -5   4   10.46    0.42
  -7  -5  -4    6.71    0.36
   7  -5   4    6.36    0.34
  -7  -5  -4    6.31    0.35
  -7   5  -4    6.51    0.41
   8  -5   4   18.93    0.65
  -8  -5  -4   19.76    0.69
  -8  -5  -4   19.37    0.70
  -8   5  -4   20.25    0.78
  -9  -5  -4    1.09    0.21
   9  -5   4    0.87    0.18
  -9   5  -4    0.51    0.21
  -9  -6   4    2.12    0.27
   9  -6  -4    2.37    0.24
   9   6  -4    2.45    0.26
   8  -6  -4   13.80    0.48
  -8  -6   4   13.17    0.57
   8  -6  -4   13.20    0.48
   8   6  -4   12.93    0.51
  -7  -6   4   13.74    0.56
   7  -6  -4   13.23    0.45
   7  -6  -4   13.06    0.46
   7   6  -4   13.12    0.49
   6  -6  -4   10.86    0.39
   6  -6  -4   11.00    0.39
  -6  -6   4   10.99    0.47
   5  -6  -4    7.58    0.31
  -5  -6   4    8.03    0.37
   5  -6  -4    7.63    0.31
  -4  -6   4    5.35    0.28
   4  -6  -4    5.22    0.24
   4  -6  -4    5.09    0.24
   4   6  -4    5.43    0.24
   3  -6  -4   26.03    0.67
  -3  -6   4   25.73    0.74
   3  -6  -4   24.88    0.66
   3   6  -4   26.79    0.73
   3   6  -4   28.17    0.66
   2  -6  -4   15.50    0.46
  -2  -6   4   16.01    0.38
   2  -6  -4   15.75    0.46
   2   6  -4   15.14    0.48
   2   6  -4   15.91    0.41
   1  -6  -4    4.87    0.22
   1  -6  -4    4.69    0.22
  -1  -6   4    4.75    0.18
   1   6  -4    4.64    0.23
   1   6  -4    4.77    0.17
   0  -6   4    9.06    0.28
   0  -6  -4    8.99    0.32
   0  -6  -4    9.02    0.32
   0   6  -4    8.73    0.33
   0   6  -4    8.57    0.22
  -1  -6  -4    3.79    0.21
  -1  -6  -4    3.98    0.21
   1  -6   4    4.07    0.19
  -1  -6  -4    4.20    0.14
  -1   6  -4    3.36    0.21
   2  -6   4   18.91    0.53
  -2  -6  -4   19.76    0.56
  -2  -6  -4   19.74    0.50
  -2   6  -4   20.30    0.59
  -3  -6  -4    7.36    0.31
  -3  -6  -4    6.79    0.26
   3  -6   4    7.34    0.29
  -3   6  -4    7.22    0.35
  -4  -6  -4    9.04    0.37
  -4  -6  -4    8.98    0.34
   4  -6   4    9.30    0.35
  -4   6  -4    9.15    0.42
  -5  -6  -4   18.39    0.57
   5  -6   4   18.59    0.57
  -5  -6  -4   18.15    0.59
  -5   6  -4   18.09    0.65
  -6  -6  -4    1.43    0.19
   6  -6   4    1.27    0.17
  -6  -6  -4    1.51    0.19
  -6   6  -4    0.83    0.22
   7  -6   4    0.39    0.13
  -7  -6  -4    0.46    0.14
  -7  -6  -4    0.34    0.13
  -7   6  -4    0.58    0.20
  -8  -6  -4   14.66    0.58
   8  -6   4   14.06    0.56
  -8  -6  -4   14.88    0.59
  -8   6  -4   14.36    0.64
  -9  -6  -4    0.09    0.12
   9  -6   4    0.02    0.11
  -9   6  -4    0.02    0.17
  -9  -7   4    3.49    0.31
   9   7  -4    3.22    0.30
   8  -7  -4    4.66    0.28
   8  -7  -4    5.21    0.29
  -8  -7   4    4.72    0.34
   8   7  -4    4.96    0.31
   7  -7  -4    3.40    0.24
   7  -7  -4    2.96    0.22
  -7  -7   4    2.74    0.28
   6  -7  -4    3.05    0.20
  -6  -7   4    2.61    0.23
   6  -7  -4    2.61    0.20
   5  -7  -4   12.97    0.43
  -5  -7   4   12.90    0.50
   5  -7  -4   12.66    0.44
   4  -7  -4    4.78    0.25
   4  -7  -4    4.50    0.23
  -4  -7   4    4.94    0.29
   3  -7  -4   22.78    0.63
   3  -7  -4   23.89    0.62
  -3  -7   4   22.25    0.69
   3   7  -4   22.93    0.67
   3   7  -4   22.45    0.58
  -2  -7   4    6.85    0.22
   2  -7  -4    7.19    0.28
   2  -7  -4    7.08    0.29
   2   7  -4    6.57    0.30
   2   7  -4    6.38    0.23
  -1  -7   4   72.83    1.48
   1  -7  -4   71.45    1.56
   1  -7  -4   70.56    1.56
   1   7  -4   72.29    1.47
   1   7  -4   69.54    1.64
   0  -7  -4   61.35    1.38
   0  -7   4   62.31    1.33
   0  -7  -4   63.76    1.39
   0   7  -4   60.87    1.45
  -1  -7  -4   33.35    0.83
   1  -7   4   31.66    0.78
  -1  -7  -4   33.30    0.83
  -1   7  -4   32.18    0.85
  -2  -7  -4   40.84    0.92
  -2  -7  -4   40.23    0.99
   2  -7   4   40.03    0.95
  -2   7  -4   39.75    1.03
  -3  -7  -4   18.79    0.51
   3  -7   4   18.30    0.55
  -3  -7  -4   19.01    0.58
  -3   7  -4   18.89    0.60
  -4  -7  -4    0.54    0.11
  -4  -7  -4    0.59    0.12
   4  -7   4    0.70    0.13
  -4   7  -4    0.59    0.16
  -5  -7  -4   12.88    0.48
  -5  -7  -4   12.34    0.44
   5  -7   4   13.15    0.47
  -5   7  -4   11.80    0.53
   6  -7   4    0.78    0.15
  -6  -7  -4    0.57    0.15
  -6  -7  -4    0.63    0.14
  -6   7  -4    0.98    0.23
   7  -7   4   10.39    0.46
  -7  -7  -4    9.82    0.45
  -7  -7  -4   10.79    0.48
  -7   7  -4   10.42    0.55
   8  -7   4    9.55    0.45
  -8  -7  -4    9.31    0.46
  -8  -7  -4    9.36    0.46
  -8   7  -4    9.59    0.54
  -9  -7  -4    0.53    0.16
  -9  -8   4    3.37    0.35
   9   8  -4    3.52    0.29
   8  -8  -4    2.77    0.26
  -8  -8   4    2.77    0.30
   8   8  -4    2.50    0.25
  -7  -8   4    5.85    0.37
   7  -8  -4    6.49    0.33
   6  -8  -4   15.11    0.52
   6  -8  -4   14.89    0.48
  -6  -8   4   14.95    0.59
   5  -8  -4   12.38    0.42
  -5  -8   4   11.79    0.49
   5  -8  -4   12.52    0.45
   4  -8  -4    5.98    0.27
   4  -8  -4    5.42    0.28
  -4  -8   4    5.98    0.32
   4   8  -4    6.14    0.32
   3  -8  -4   62.85    1.44
   3  -8  -4   63.94    1.42
   3   8  -4   63.46    1.53
   3   8  -4   63.80    1.38
   2  -8  -4   26.84    0.71
  -2  -8   4   27.21    0.64
   2  -8  -4   27.74    0.74
   2   8  -4   27.34    0.77
   2   8  -4   27.24    0.65
   1  -8  -4    8.56    0.34
   1  -8  -4    7.87    0.32
  -1  -8   4    7.90    0.27
   1   8  -4    7.89    0.34
   0  -8  -4    2.44    0.19
   0  -8   4    2.60    0.16
   0  -8  -4    2.58    0.19
   0   8  -4    2.35    0.19
  -1  -8  -4    5.69    0.28
   1  -8   4    6.18    0.26
  -1  -8  -4    5.84    0.28
  -1   8  -4    5.30    0.28
   2  -8   4   16.99    0.50
  -2  -8  -4   16.72    0.53
  -2   8  -4   16.51    0.55
  -3  -8  -4    7.55    0.33
   3  -8   4    7.85    0.33
  -3   8  -4    7.36    0.36
   4  -8   4   23.36    0.69
  -4  -8  -4   23.27    0.71
  -4  -8  -4   24.35    0.66
  -4   8  -4   24.39    0.76
  -5  -8  -4    3.40    0.26
  -5  -8  -4    3.92    0.24
   5  -8   4    3.66    0.24
  -5   8  -4    3.64    0.33
  -6  -8  -4   14.21    0.55
   6  -8   4   14.12    0.53
  -6  -8  -4   13.63    0.51
  -6   8  -4   13.93    0.62
  -7  -8  -4   17.01    0.63
  -7  -8  -4   15.98    0.59
   7  -8   4   16.58    0.60
  -7   8  -4   15.98    0.70
  -8  -8  -4    1.95    0.26
   8  -8   4    1.82    0.24
  -8  -8  -4    1.72    0.23
  -8   8  -4    1.40    0.28
   8  -9  -4    8.29    0.40
  -8  -9   4    8.30    0.47
   8   9  -4    7.44    0.39
   7  -9  -4    2.15    0.23
  -7  -9   4    2.12    0.27
  -6  -9   4    5.26    0.35
   6  -9  -4    4.87    0.29
  -5  -9   4   23.38    0.77
   5  -9  -4   23.29    0.69
   5  -9  -4   22.82    0.65
   4  -9  -4   17.35    0.57
   4  -9  -4   18.10    0.53
   4   9  -4   17.43    0.60
   3  -9  -4   11.00    0.42
   3  -9  -4   10.99    0.38
   3   9  -4   10.79    0.35
   3   9  -4   11.03    0.44
  -2  -9   4    2.45    0.15
   2  -9  -4    2.38    0.18
   2  -9  -4    1.93    0.19
   2   9  -4    2.28    0.20
   1  -9  -4   15.42    0.52
  -1  -9   4   15.91    0.45
   1  -9  -4   15.82    0.49
   1   9  -4   15.88    0.53
   0  -9   4    8.98    0.32
   0  -9  -4    8.07    0.35
   0  -9  -4    8.16    0.33
   0   9  -4    8.45    0.36
  -1  -9  -4    3.21    0.22
  -1  -9  -4    2.68    0.20
   1  -9   4    3.03    0.19
  -1   9  -4    2.54    0.21
  -2  -9  -4    8.47    0.35
  -2  -9  -4    8.19    0.35
   2  -9   4    8.21    0.33
  -2   9  -4    7.93    0.37
   3  -9   4    3.57    0.22
  -3  -9  -4    3.29    0.24
  -3   9  -4    3.32    0.27
   4  -9   4    3.12    0.23
  -4  -9  -4    2.50    0.22
  -4   9  -4    2.66    0.27
   5  -9   4   22.01    0.70
  -5  -9  -4   23.75    0.74
  -5   9  -4   21.81    0.77
   6  -9   4    0.98    0.17
  -6  -9  -4    0.92    0.17
  -6   9  -4    1.12    0.25
   7  -9   4    2.14    0.24
  -7  -9  -4    1.86    0.24
  -7   9  -4    2.21    0.32
   8  -9   4    1.95    0.25
  -8  -9  -4    1.89    0.26
  -8   9  -4    1.11    0.27
   8 -10  -4    2.01    0.24
  -8 -10   4    2.35    0.30
   8  10  -4    1.97    0.23
  -7 -10   4   13.31    0.60
   7 -10  -4   13.81    0.54
   6 -10  -4   10.99    0.46
  -6 -10   4   10.34    0.50
  -5 -10   4   20.37    0.73
   5 -10  -4   20.96    0.67
   5  10  -4   20.79    0.71
   4 -10  -4   15.50    0.54
   4  10  -4   14.28    0.55
   3 -10  -4    6.76    0.33
   3 -10  -4    6.92    0.30
   3  10  -4    6.47    0.34
   2 -10  -4    5.21    0.26
   2 -10  -4    5.14    0.29
   2  10  -4    5.37    0.30
   1 -10  -4   14.44    0.47
   1 -10  -4   13.48    0.49
  -1 -10   4   14.50    0.44
   1  10  -4   13.30    0.50
   0 -10   4    2.20    0.17
   0 -10  -4    1.80    0.19
   0 -10  -4    2.15    0.18
   0  10  -4    1.89    0.20
  -1 -10  -4    4.15    0.25
  -1 -10  -4    4.55    0.26
   1 -10   4    4.30    0.24
  -1  10  -4    4.00    0.26
  -2 -10  -4    1.06    0.16
  -2 -10  -4    1.32    0.17
   2 -10   4    0.93    0.14
  -2  10  -4    1.15    0.18
  -3 -10  -4    2.96    0.23
   3 -10   4    3.02    0.22
  -3  10  -4    3.02    0.27
  -4 -10  -4   21.29    0.68
   4 -10   4   20.38    0.65
  -4  10  -4   20.62    0.72
  -5 -10  -4   11.90    0.50
   5 -10   4   12.39    0.49
  -5  10  -4   12.12    0.56
  -6 -10  -4   13.63    0.56
   6 -10   4   13.17    0.53
  -6  10  -4   13.61    0.62
  -7 -10  -4   11.76    0.53
   7 -10   4   12.60    0.54
  -7  10  -4   11.92    0.62
   7 -11  -4    1.01    0.19
  -7 -11   4    0.78    0.20
  -6 -11   4    3.98    0.32
   6 -11  -4    4.45    0.31
   6  11  -4    4.31    0.32
   5 -11  -4    2.60    0.26
   5  11  -4    2.37    0.26
   4 -11  -4    0.38    0.13
   4  11  -4    0.46    0.15
   3 -11  -4   -0.04    0.09
   3  11  -4    0.21    0.12
   2 -11  -4   14.60    0.54
   2 -11  -4   15.24    0.49
   2  11  -4   14.42    0.54
   1 -11  -4   29.43    0.79
   1 -11  -4   28.99    0.84
  -1 -11   4   29.28    0.76
   1  11  -4   28.84    0.85
   0 -11  -4   17.51    0.56
   0 -11   4   17.56    0.54
   0 -11  -4   17.24    0.59
   0  11  -4   17.96    0.61
  -1 -11  -4   39.29    1.01
   1 -11   4   38.37    0.98
  -1 -11  -4   39.56    1.04
  -1  11  -4   38.99    1.07
  -2 -11  -4   16.14    0.56
   2 -11   4   17.21    0.55
  -2 -11  -4   16.61    0.57
  -2  11  -4   16.12    0.59
  -3 -11  -4    0.23    0.12
   3 -11   4    0.14    0.11
  -3  11  -4    0.52    0.16
   4 -11   4    4.29    0.29
  -4 -11  -4    4.77    0.30
  -4  11  -4    4.56    0.35
   5 -11   4    1.24    0.19
  -5 -11  -4    1.30    0.20
  -5  11  -4    1.41    0.26
   6 -11   4    3.79    0.29
  -6 -11  -4    3.70    0.30
  -6  11  -4    3.69    0.39
   6 -12  -4    3.26    0.31
   6  12  -4    2.75    0.29
   5 -12  -4    1.97    0.24
   5  12  -4    2.24    0.26
   4 -12  -4   12.61    0.52
   4  12  -4   12.91    0.54
   3 -12  -4   16.84    0.61
   3  12  -4   17.26    0.63
   2 -12  -4    7.21    0.39
   2  12  -4    8.68    0.41
   1 -12  -4   13.17    0.52
   1  12  -4   13.09    0.52
   0 -12  -4    0.22    0.12
   0 -12  -4    0.34    0.12
   0 -12   4    0.36    0.11
   0  12  -4    0.32    0.13
  -1 -12  -4    5.94    0.32
   1 -12   4    6.18    0.31
  -1 -12  -4    6.29    0.34
  -1  12  -4    6.06    0.35
  -2 -12  -4    5.84    0.33
   2 -12   4    6.49    0.33
  -2 -12  -4    6.03    0.33
  -2  12  -4    6.36    0.36
  -3 -12  -4   14.23    0.54
   3 -12   4   14.01    0.53
  -3  12  -4   14.77    0.59
   4 -12   4    9.28    0.43
  -4 -12  -4    9.35    0.44
  -4  12  -4    9.19    0.47
   5 -12   4    2.16    0.25
  -5 -12  -4    2.45    0.27
  -5  12  -4    2.69    0.33
   5 -13  -4    6.00    0.38
   5  13  -4    6.49    0.39
   4 -13  -4    2.92    0.29
   4  13  -4    2.47    0.28
   3 -13  -4    4.92    0.34
   3  13  -4    5.15    0.34
   2 -13  -4   12.07    0.52
   2  13  -4   12.12    0.51
   1 -13  -4    6.33    0.36
   1  13  -4    5.69    0.34
   0 -13   4    9.91    0.41
   0 -13  -4   10.75    0.47
   0  13  -4   10.80    0.47
   1 -13   4    8.35    0.38
  -1 -13  -4    7.54    0.39
  -1 -13  -4    8.05    0.38
  -1  13  -4    8.25    0.41
   2 -13   4   13.86    0.52
  -2 -13  -4   14.25    0.53
  -2 -13  -4   13.68    0.55
  -2  13  -4   13.84    0.57
   3 -13   4    6.65    0.36
  -3 -13  -4    6.10    0.35
  -3  13  -4    5.92    0.39
   4 -13   4    3.63    0.28
  -4 -13  -4    2.97    0.29
  -4  13  -4    3.12    0.34
   3 -14  -4    1.76    0.24
   3  14  -4    2.24    0.26
   2 -14  -4    0.24    0.14
   2  14  -4    0.59    0.16
   1 -14  -4    0.98    0.20
   1  14  -4    1.17    0.19
   0 -14  -4    0.32    0.15
   0  14  -4    0.44    0.14
  -1 -14  -4    0.55    0.16
   1 -14   4    0.83    0.16
  -1  14  -4    0.67    0.18
   2 -14   4    1.66    0.22
  -2 -14  -4    1.39    0.21
  -2  14  -4    1.51    0.23
   3 -14   4    2.32    0.26
  -3  14  -4    1.99    0.27
 -10   0   5    1.91    0.24
  10   0  -5    1.96    0.24
  -9   0   5    1.43    0.20
   9   0  -5    1.66    0.21
  -8   0   5   14.35    0.53
   8   0  -5   13.60    0.51
  -7   0   5    8.03    0.36
   7   0  -5    7.76    0.35
  -6   0   5   35.10    0.92
   6   0  -5   34.90    0.90
   5   0  -5   75.09    1.67
  -5   0   5   76.84    1.72
  -4   0   5    4.40    0.20
   4   0  -5    4.23    0.21
   4   0  -5    4.11    0.13
   3   0  -5    2.84    0.17
  -3   0   5    2.91    0.16
   2   0  -5   27.92    0.67
   2   0  -5   27.18    0.65
   1   0  -5   97.00    2.04
   1   0  -5  100.69    2.09
   0   0  -5  143.10    3.01
   0   0  -5  145.06    2.91
  -1   0  -5   74.00    1.61
  -1   0  -5   72.72    1.55
  -2   0  -5  437.74    8.71
  -2   0  -5  449.25    9.10
  -3   0  -5    0.62    0.10
  -3   0  -5    0.78    0.14
  -4   0  -5    3.57    0.25
  -4   0  -5    2.92    0.18
  -5   0  -5   16.38    0.49
  -5   0  -5   16.66    0.59
  -6   0  -5    0.17    0.12
  -6   0  -5   -0.05    0.07
  -7   0  -5   10.08    0.40
  -7   0  -5   10.87    0.49
  -8   0  -5   11.57    0.54
  -9   0  -5    0.28    0.16
  10  -1  -5    7.16    0.39
 -10  -1   5    7.02    0.41
 -10   1   5    7.50    0.41
  10   1  -5    7.48    0.39
  -9  -1   5    1.62    0.22
   9  -1  -5    1.73    0.21
  -9   1   5    1.94    0.23
   9   1  -5    1.50    0.20
   8  -1  -5    4.29    0.28
  -8  -1   5    4.90    0.30
  -8   1   5    5.22    0.30
   8   1  -5    4.80    0.29
  -7  -1   5    4.96    0.28
   7  -1  -5    4.90    0.27
  -7   1   5    4.57    0.26
   7   1  -5    4.52    0.26
  -6  -1   5   40.65    1.03
   6  -1  -5   39.83    0.99
   6   1  -5   39.16    0.99
  -6   1   5   38.86    1.00
   5  -1  -5   13.51    0.43
  -5  -1   5   13.73    0.45
  -5   1   5   12.81    0.41
   5   1  -5   13.05    0.43
   4  -1  -5   14.93    0.45
   4  -1  -5   14.35    0.36
  -4  -1   5   15.06    0.45
  -4   1   5   14.38    0.42
   4   1  -5   14.50    0.44
   3  -1  -5  175.11    3.40
  -3  -1   5  174.74    3.67
   3  -1  -5  174.19    3.53
  -3   1   5  173.07    3.63
   3   1  -5  174.13    3.53
   2  -1  -5  112.03    2.29
   2  -1  -5  105.75    2.25
   2   1  -5  108.64    2.32
   2   1  -5  109.01    2.24
   1  -1  -5   51.57    1.13
   1   1  -5   51.97    1.16
   1   1  -5   52.17    1.13
   0  -1  -5   61.27    1.37
   0  -1  -5   64.28    1.38
   0   1  -5   64.76    1.36
   0   1  -5   66.17    1.42
  -1  -1  -5    8.72    0.29
  -1  -1  -5    8.61    0.29
  -1   1  -5    9.70    0.31
  -1   1  -5    8.71    0.27
  -2  -1  -5   13.19    0.41
  -2  -1  -5   12.89    0.38
  -2   1  -5   12.99    0.42
  -2   1  -5   13.12    0.37
  -3  -1  -5   50.94    1.17
  -3  -1  -5   52.31    1.25
  -3   1  -5   52.05    1.15
  -3   1  -5   54.42    1.27
  -4  -1  -5   25.65    0.67
  -4  -1  -5   25.68    0.74
  -4   1  -5   24.72    0.75
  -4   1  -5   25.74    0.64
  -5  -1  -5    1.92    0.16
  -5  -1  -5    1.72    0.20
  -5   1  -5    1.97    0.15
  -5   1  -5    2.37    0.25
  -6  -1  -5    5.60    0.32
  -6  -1  -5    5.06    0.27
  -6   1  -5    5.52    0.35
  -6   1  -5    5.60    0.26
  -7  -1  -5   19.05    0.68
  -7  -1  -5   20.01    0.61
  -7   1  -5   19.32    0.58
  -7   1  -5   18.38    0.70
  -8  -1  -5    7.26    0.36
  -8  -1  -5    6.95    0.41
  -8   1  -5    7.79    0.45
  -9  -1  -5    0.97    0.21
  -9   1  -5    1.02    0.22
 -10  -2   5    4.61    0.34
  10  -2  -5    4.07    0.30
 -10   2   5    4.70    0.33
  10   2  -5    4.66    0.32
  -9  -2   5   23.99    0.81
   9  -2  -5   23.55    0.74
  -9   2   5   23.40    0.76
   9   2  -5   24.18    0.77
   8  -2  -5   68.93    1.60
  -8  -2   5   65.76    1.68
  -8   2   5   67.42    1.64
   8   2  -5   66.91    1.61
  -7  -2   5   11.69    0.46
   7  -2  -5   11.31    0.43
   7   2  -5   10.73    0.43
  -7   2   5   11.15    0.42
   6  -2  -5   19.92    0.59
  -6  -2   5   19.92    0.62
   6   2  -5   19.54    0.59
  -6   2   5   18.86    0.57
   5  -2  -5    6.13    0.28
   5  -2  -5    6.04    0.21
  -5  -2   5    5.82    0.29
   5   2  -5    6.51    0.28
  -5   2   5    6.28    0.25
   4  -2  -5   57.74    1.29
   4  -2  -5   56.24    1.19
  -4  -2   5   55.55    1.33
   4   2  -5   57.86    1.28
  -4   2   5   57.26    1.27
   3  -2  -5    7.82    0.29
  -3  -2   5    7.75    0.30
   3  -2  -5    8.34    0.25
  -3   2   5    8.50    0.26
   3   2  -5    8.34    0.29
   2  -2  -5   64.66    1.37
   2  -2  -5   64.97    1.34
   2  -2  -5   62.92    1.40
   2   2  -5   66.62    1.45
   2   2  -5   63.82    1.38
   1  -2  -5   27.87    0.60
   1  -2  -5   25.94    0.66
   1   2  -5   26.49    0.67
   1   2  -5   26.53    0.63
   0  -2  -5    7.77    0.24
   0  -2  -5    8.13    0.28
   0   2  -5    7.95    0.27
   0   2  -5    8.18    0.25
  -1  -2  -5   17.94    0.47
  -1  -2  -5   17.48    0.49
  -1   2  -5   18.71    0.45
  -1   2  -5   18.58    0.51
  -2  -2  -5  104.05    2.18
  -2  -2  -5  103.53    2.25
  -2   2  -5  104.68    2.12
  -2   2  -5  104.53    2.28
  -3  -2  -5   49.72    1.19
  -3  -2  -5   49.96    1.15
  -3   2  -5   50.43    1.09
  -3   2  -5   50.15    1.22
  -4  -2  -5   23.85    0.65
  -4  -2  -5   25.76    0.70
  -4   2  -5   23.52    0.59
  -4   2  -5   23.13    0.73
  -5  -2  -5   63.51    1.48
  -5  -2  -5   64.55    1.58
  -5   2  -5   66.77    1.43
  -5   2  -5   67.05    1.63
  -6  -2  -5   20.03    0.66
  -6  -2  -5   19.47    0.60
  -6   2  -5   19.25    0.55
  -6   2  -5   19.79    0.70
  -7  -2  -5    2.40    0.21
  -7  -2  -5    2.67    0.27
  -7   2  -5    2.38    0.27
  -8  -2  -5    4.54    0.32
  -8  -2  -5    4.31    0.29
  -8   2  -5    4.33    0.36
  -9  -2  -5    1.44    0.24
  -9   2  -5    1.21    0.24
  10  -3  -5    8.64    0.43
 -10  -3   5    9.27    0.49
  10   3  -5    8.66    0.45
   9  -3  -5    1.49    0.20
  -9  -3   5    1.83    0.24
  -9   3   5    1.71    0.22
   9   3  -5    1.63    0.21
   8  -3  -5    2.26    0.23
  -8  -3   5    2.50    0.26
   8   3  -5    2.46    0.24
  -8   3   5    2.08    0.22
  -7  -3   5    0.99    0.16
   7  -3  -5    1.54    0.18
  -7   3   5    1.34    0.16
   7   3  -5    1.39    0.18
   6  -3  -5   27.78    0.66
  -6  -3   5   26.81    0.80
   6  -3  -5   28.73    0.76
   6   3  -5   26.45    0.75
  -6   3   5   28.05    0.73
   5  -3  -5   22.66    0.63
  -5  -3   5   22.47    0.67
   5  -3  -5   23.45    0.56
  -5   3   5   22.69    0.60
   5   3  -5   22.42    0.63
   4  -3  -5   26.81    0.69
  -4  -3   5   26.59    0.73
   4  -3  -5   26.03    0.62
  -4   3   5   25.90    0.64
   4   3  -5   26.05    0.68
   3  -3  -5   82.03    1.73
   3  -3  -5   80.96    1.66
  -3  -3   5   78.73    1.80
   3   3  -5   80.69    1.71
  -3   3   5   78.69    1.69
   2  -3  -5  103.02    2.11
   2  -3  -5  104.54    2.18
  -2  -3   5  101.69    2.02
   2  -3  -5  106.37    2.15
   2   3  -5  104.70    2.26
   2   3  -5  104.19    2.15
   1  -3  -5   19.36    0.44
   1  -3  -5   19.94    0.51
   1   3  -5   19.69    0.48
   1   3  -5   19.56    0.53
   0  -3  -5   90.88    1.89
   0  -3  -5   87.41    1.87
   0   3  -5   88.01    1.95
   0   3  -5   91.39    1.83
  -1  -3  -5    7.61    0.25
  -1  -3  -5    7.63    0.28
  -1   3  -5    7.32    0.23
  -1   3  -5    7.43    0.30
  -2  -3  -5   28.74    0.72
  -2  -3  -5   27.72    0.70
  -2   3  -5   28.93    0.76
  -2   3  -5   27.80    0.64
  -3  -3  -5  110.88    2.36
  -3  -3  -5  105.96    2.29
  -3   3  -5  106.22    2.40
  -3   3  -5  109.99    2.20
  -4  -3  -5   21.89    0.63
  -4  -3  -5   22.90    0.65
  -4   3  -5   23.06    0.55
  -4   3  -5   22.13    0.70
  -5  -3  -5   32.11    0.86
  -5  -3  -5   33.33    0.90
  -5   3  -5   33.77    0.98
  -5   3  -5   33.99    0.79
  -6  -3  -5    0.91    0.16
  -6  -3  -5    1.05    0.16
  -6   3  -5    1.10    0.22
  -7  -3  -5   21.11    0.71
  -7  -3  -5   21.51    0.68
  -7   3  -5   21.94    0.79
  -8  -3  -5   10.42    0.46
  -8  -3  -5   11.06    0.51
  -8   3  -5   11.66    0.57
   9  -3   5   -0.01    0.10
  -9  -3  -5    0.16    0.15
  -9   3  -5   -0.08    0.15
 -10  -4   5    3.94    0.34
  10  -4  -5    3.79    0.29
  10   4  -5    4.34    0.32
  -9  -4   5    3.38    0.29
   9  -4  -5    3.91    0.28
   9   4  -5    3.62    0.27
   8  -4  -5    8.81    0.39
  -8  -4   5    8.90    0.45
   8   4  -5    8.55    0.40
  -7  -4   5    5.97    0.34
   7  -4  -5    5.38    0.29
   7   4  -5    5.71    0.30
   6  -4  -5    4.94    0.22
   6  -4  -5    4.62    0.26
  -6  -4   5    4.48    0.28
   6   4  -5    4.92    0.27
  -6   4   5    5.17    0.24
   5  -4  -5   29.07    0.77
   5  -4  -5   29.58    0.71
  -5  -4   5   29.62    0.83
  -5   4   5   30.17    0.72
   5   4  -5   28.24    0.76
   4  -4  -5   68.23    1.49
  -4  -4   5   72.18    1.66
   4  -4  -5   72.01    1.57
   4   4  -5   70.36    1.55
  -4   4   5   70.80    1.52
   3  -4  -5   16.24    0.47
   3  -4  -5   15.96    0.44
  -3  -4   5   15.66    0.49
   3   4  -5   15.44    0.48
   3   4  -5   15.38    0.44
  -3   4   5   15.32    0.37
  -2  -4   5   71.44    1.44
   2  -4  -5   72.39    1.59
   2  -4  -5   72.81    1.55
   2   4  -5   74.31    1.55
   2   4  -5   75.92    1.66
   1  -4  -5    8.75    0.32
   1  -4  -5    9.39    0.31
  -1  -4   5    9.18    0.25
   1   4  -5    9.58    0.28
   1   4  -5    9.56    0.34
   0  -4  -5   95.16    2.00
   0  -4  -5   94.50    1.93
   0  -4   5   94.11    1.90
   0   4  -5   92.92    2.07
   0   4  -5   94.44    1.91
  -1  -4  -5  112.44    2.23
  -1  -4  -5  100.72    2.24
  -1   4  -5  108.86    2.34
  -1   4  -5  105.03    2.14
  -2  -4  -5   38.78    0.83
  -2  -4  -5   34.65    0.86
  -2   4  -5   34.74    0.91
  -2   4  -5   32.97    0.75
  -3  -4  -5   45.40    1.08
  -3  -4  -5   44.09    1.05
  -3   4  -5   45.11    1.14
  -3   4  -5   44.71    0.95
  -4  -4  -5    4.59    0.24
  -4  -4  -5    4.34    0.25
  -4   4  -5    4.75    0.32
  -5  -4  -5    4.65    0.27
  -5  -4  -5    4.68    0.27
  -5   4  -5    5.30    0.35
  -6  -4  -5    0.86    0.15
  -6  -4  -5    0.90    0.16
  -6   4  -5    0.63    0.19
  -7  -4  -5    2.54    0.25
  -7  -4  -5    2.60    0.24
  -7   4  -5    2.29    0.29
  -8  -4  -5   24.30    0.78
   8  -4   5   24.57    0.77
  -8  -4  -5   23.89    0.81
  -8   4  -5   24.33    0.89
  -9  -4  -5    6.52    0.41
   9  -4   5    6.69    0.38
  -9  -4  -5    7.49    0.41
  -9   4  -5    7.52    0.48
   9  -5  -5   14.57    0.55
  -9  -5   5   14.55    0.63
   9   5  -5   15.12    0.58
   8  -5  -5    7.92    0.37
  -8  -5   5    8.83    0.44
   8   5  -5    8.25    0.40
  -7  -5   5   31.09    0.94
   7  -5  -5   30.55    0.84
   7  -5  -5   30.88    0.78
   7   5  -5   29.90    0.85
   6  -5  -5    9.44    0.38
   6  -5  -5   10.29    0.35
  -6  -5   5   10.16    0.44
   6   5  -5    9.61    0.39
  -5  -5   5   17.92    0.60
   5  -5  -5   18.22    0.52
   5  -5  -5   18.62    0.55
   5   5  -5   18.32    0.55
   4  -5  -5   53.22    1.19
   4  -5  -5   52.80    1.23
  -4  -5   5   53.98    1.32
   4   5  -5   53.34    1.22
  -3  -5   5   57.69    1.40
   3  -5  -5   57.58    1.27
   3  -5  -5   60.02    1.32
   3   5  -5   57.16    1.38
   3   5  -5   57.45    1.27
   2  -5  -5   30.76    0.77
   2  -5  -5   30.40    0.75
  -2  -5   5   30.25    0.65
   2   5  -5   30.57    0.72
   2   5  -5   32.10    0.81
   1  -5  -5   90.97    1.91
  -1  -5   5   89.81    1.83
   1  -5  -5   91.26    1.95
   1   5  -5   92.09    1.87
   1   5  -5   91.67    2.03
   0  -5   5   41.47    0.91
   0  -5  -5   41.22    0.99
   0  -5  -5   42.10    0.98
   0   5  -5   42.70    0.89
   0   5  -5   41.62    1.02
   1  -5   5   25.42    0.63
  -1  -5  -5   25.73    0.59
  -1  -5  -5   26.28    0.68
  -1   5  -5   26.50    0.71
  -1   5  -5   26.52    0.57
   2  -5   5   15.89    0.46
  -2  -5  -5   15.95    0.49
  -2  -5  -5   15.93    0.42
  -2   5  -5   15.23    0.51
  -3  -5  -5   14.09    0.43
   3  -5   5   14.25    0.45
  -3  -5  -5   14.43    0.47
  -3   5  -5   14.21    0.50
  -4  -5  -5    6.01    0.30
   4  -5   5    6.04    0.28
  -4  -5  -5    5.93    0.27
  -4   5  -5    5.96    0.34
   5  -5   5    2.74    0.21
  -5  -5  -5    3.20    0.22
  -5  -5  -5    3.17    0.23
  -5   5  -5    3.04    0.28
   6  -5   5   28.20    0.81
  -6  -5  -5   29.17    0.83
  -6  -5  -5   28.60    0.83
  -6   5  -5   26.93    0.91
  -7  -5  -5    0.45    0.14
  -7  -5  -5    0.49    0.15
   7  -5   5    0.37    0.13
  -7   5  -5    0.38    0.18
  -8  -5  -5    2.31    0.25
  -8  -5  -5    2.31    0.26
   8  -5   5    2.47    0.26
  -8   5  -5    1.71    0.29
  -9  -5  -5   10.18    0.48
  -9  -5  -5    9.86    0.50
   9  -5   5    9.61    0.46
  -9   5  -5   10.08    0.57
  -9  -6   5   19.22    0.77
   9  -6  -5   20.43    0.67
   9   6  -5   19.93    0.70
   8  -6  -5    3.09    0.24
  -8  -6   5    3.09    0.32
   8   6  -5    2.62    0.26
   7  -6  -5   48.90    1.15
   7  -6  -5   47.26    1.19
  -7  -6   5   48.89    1.33
   7   6  -5   47.23    1.21
   6  -6  -5   33.07    0.83
  -6  -6   5   32.93    0.96
   6  -6  -5   32.04    0.86
   6   6  -5   31.94    0.87
   5  -6  -5    6.96    0.31
   5  -6  -5    7.04    0.30
  -5  -6   5    7.61    0.36
   5   6  -5    7.04    0.31
  -4  -6   5    1.63    0.19
   4  -6  -5    1.77    0.17
   4  -6  -5    1.76    0.16
   4   6  -5    1.75    0.15
   3  -6  -5   28.15    0.73
   3  -6  -5   28.45    0.75
   3   6  -5   29.73    0.71
   3   6  -5   29.09    0.80
   2  -6  -5   99.74    2.12
  -2  -6   5   97.85    1.97
   2  -6  -5  100.82    2.09
   2   6  -5   99.62    2.22
   2   6  -5   98.60    2.05
  -1  -6   5    3.38    0.15
   1  -6  -5    3.00    0.20
   1  -6  -5    3.16    0.20
   1   6  -5    3.26    0.21
   1   6  -5    3.44    0.15
   0  -6   5   19.35    0.50
   0  -6  -5   19.52    0.56
   0  -6  -5   19.50    0.56
   0   6  -5   20.15    0.59
   0   6  -5   20.12    0.46
  -1  -6  -5    6.27    0.28
   1  -6   5    6.93    0.26
  -1   6  -5    6.30    0.29
   2  -6   5    4.11    0.21
  -2  -6  -5    4.44    0.25
  -2   6  -5    3.66    0.26
  -3  -6  -5   27.06    0.75
   3  -6   5   26.60    0.71
  -3  -6  -5   28.05    0.69
  -3   6  -5   25.69    0.77
   4  -6   5   63.26    1.45
  -4  -6  -5   64.80    1.47
  -4  -6  -5   63.43    1.49
  -4   6  -5   62.47    1.57
   5  -6   5   18.68    0.59
  -5  -6  -5   18.40    0.61
  -5  -6  -5   18.58    0.58
  -5   6  -5   18.78    0.69
  -6  -6  -5   22.79    0.73
  -6  -6  -5   23.43    0.71
   6  -6   5   23.30    0.71
  -6   6  -5   22.68    0.82
   7  -6   5   19.31    0.67
  -7  -6  -5   20.88    0.70
  -7  -6  -5   21.72    0.72
  -7   6  -5   20.75    0.80
  -8  -6  -5   17.46    0.65
   8  -6   5   15.98    0.61
  -8  -6  -5   17.21    0.65
  -8   6  -5   15.40    0.71
  -9  -7   5   17.70    0.72
   9   7  -5   16.02    0.63
  -8  -7   5    0.19    0.14
   8  -7  -5    0.37    0.13
   8   7  -5    0.13    0.12
  -7  -7   5   14.36    0.59
   7  -7  -5   14.30    0.51
   7  -7  -5   15.12    0.50
   7   7  -5   14.39    0.53
   6  -7  -5    8.13    0.35
   6  -7  -5    8.16    0.35
  -6  -7   5    8.16    0.42
   6   7  -5    7.80    0.35
   5  -7  -5    9.68    0.38
   5  -7  -5   10.50    0.39
  -5  -7   5    9.66    0.44
   5   7  -5    9.95    0.38
   4  -7  -5   25.90    0.70
   4  -7  -5   25.33    0.70
  -4  -7   5   25.75    0.78
   4   7  -5   25.26    0.76
   4   7  -5   25.26    0.67
   3  -7  -5    8.11    0.32
   3  -7  -5    8.36    0.33
   3   7  -5    8.81    0.30
   3   7  -5    8.31    0.36
   2  -7  -5   64.33    1.45
   2  -7  -5   63.84    1.45
   2   7  -5   64.35    1.54
   2   7  -5   65.73    1.38
   1  -7  -5   25.33    0.68
   1  -7  -5   23.51    0.67
  -1  -7   5   25.47    0.59
   1   7  -5   24.53    0.57
   1   7  -5   24.57    0.71
   0  -7  -5    2.01    0.17
   0  -7  -5    2.28    0.18
   0  -7   5    1.90    0.14
   0   7  -5    2.11    0.19
   1  -7   5   29.79    0.74
  -1  -7  -5   29.97    0.80
  -1  -7  -5   29.72    0.79
  -1   7  -5   31.00    0.83
   2  -7   5   58.74    1.33
  -2  -7  -5   58.87    1.38
  -2   7  -5   60.06    1.45
   3  -7   5   27.03    0.73
  -3  -7  -5   27.93    0.78
  -3   7  -5   27.55    0.81
  -4  -7  -5   16.48    0.56
   4  -7   5   16.40    0.53
  -4   7  -5   16.53    0.60
   5  -7   5    5.20    0.29
  -5  -7  -5    5.13    0.27
  -5  -7  -5    4.87    0.30
  -5   7  -5    5.10    0.37
  -6  -7  -5    7.92    0.40
   6  -7   5    7.88    0.38
  -6  -7  -5    8.17    0.37
  -6   7  -5    8.03    0.48
  -7  -7  -5    1.59    0.22
   7  -7   5    2.19    0.24
  -7  -7  -5    1.68    0.22
  -7   7  -5    1.29    0.26
  -8  -7  -5    3.09    0.31
   8  -7   5    3.25    0.27
  -8  -7  -5    2.98    0.29
  -8   7  -5    2.45    0.35
  -8  -8   5    2.01    0.27
   8   8  -5    1.91    0.23
   7  -8  -5    8.58    0.38
   7  -8  -5    8.07    0.37
  -7  -8   5    8.13    0.44
   7   8  -5    7.82    0.38
   6  -8  -5   21.49    0.65
   6  -8  -5   21.21    0.63
  -6  -8   5   20.41    0.74
   6   8  -5   20.97    0.64
   5  -8  -5    8.02    0.35
  -5  -8   5    7.59    0.40
   5  -8  -5    7.85    0.34
   5   8  -5    7.69    0.33
   4  -8  -5   26.61    0.73
   4  -8  -5   26.86    0.72
   4   8  -5   26.42    0.69
   4   8  -5   25.56    0.79
   3  -8  -5    7.19    0.31
   3  -8  -5    7.77    0.33
   3   8  -5    7.60    0.28
   3   8  -5    7.51    0.35
   2  -8  -5   25.60    0.69
   2  -8  -5   24.58    0.70
   2   8  -5   23.93    0.73
  -1  -8   5    6.87    0.25
   1  -8  -5    6.63    0.30
   1  -8  -5    6.04    0.30
   1   8  -5    6.58    0.32
   0  -8  -5   39.60    0.99
   0  -8  -5   40.43    0.99
   0  -8   5   39.09    0.91
   0   8  -5   38.81    1.03
  -1  -8  -5   62.64    1.47
   1  -8   5   64.70    1.42
  -1  -8  -5   67.31    1.50
  -1   8  -5   62.84    1.54
  -2  -8  -5    6.62    0.32
   2  -8   5    6.95    0.29
  -2   8  -5    6.71    0.34
   3  -8   5    1.92    0.17
  -3  -8  -5    1.48    0.18
  -3   8  -5    1.49    0.20
  -4  -8  -5    5.73    0.32
   4  -8   5    5.88    0.30
  -4   8  -5    6.11    0.37
   5  -8   5   11.18    0.44
  -5  -8  -5    9.91    0.44
  -5   8  -5    9.73    0.49
  -6  -8  -5    3.23    0.27
   6  -8   5    3.17    0.26
  -6   8  -5    3.00    0.34
  -7  -8  -5    3.17    0.27
   7  -8   5    2.69    0.27
  -7   8  -5    2.35    0.33
  -8  -8  -5    1.37    0.23
   8  -8   5    1.45    0.22
  -8   8  -5    1.34    0.28
  -8  -9   5    1.14    0.22
   8  -9  -5    0.83    0.16
   8   9  -5    1.14    0.19
  -7  -9   5    3.74    0.31
   7  -9  -5    3.89    0.28
   7   9  -5    3.48    0.26
   6  -9  -5    3.73    0.25
   6  -9  -5    4.06    0.27
  -6  -9   5    3.35    0.29
   6   9  -5    3.65    0.24
  -5  -9   5   14.53    0.59
   5  -9  -5   15.57    0.54
   5  -9  -5   14.22    0.50
   5   9  -5   16.34    0.51
   5   9  -5   15.35    0.59
   4  -9  -5    6.65    0.32
   4  -9  -5    6.39    0.30
   4   9  -5    6.77    0.29
   4   9  -5    6.96    0.36
   3  -9  -5    2.64    0.21
   3  -9  -5    2.85    0.20
   3   9  -5    2.98    0.23
   2  -9  -5   18.47    0.59
   2  -9  -5   18.35    0.56
   2   9  -5   18.34    0.61
  -1  -9   5   22.99    0.59
   1  -9  -5   22.26    0.65
   1  -9  -5   22.68    0.67
   1   9  -5   22.30    0.69
   0  -9   5    5.47    0.24
   0  -9  -5    5.16    0.28
   0  -9  -5    5.52    0.28
   0   9  -5    5.40    0.30
   1  -9   5    9.98    0.36
  -1  -9  -5    8.94    0.39
  -1  -9  -5   10.45    0.40
  -1   9  -5    9.88    0.41
   2  -9   5    2.22    0.17
  -2  -9  -5    2.45    0.20
  -2   9  -5    2.21    0.23
  -3  -9  -5    3.74    0.26
   3  -9   5    3.96    0.24
  -3   9  -5    3.94    0.29
  -4  -9  -5    1.74    0.21
   4  -9   5    1.67    0.19
  -4   9  -5    2.19    0.26
  -5  -9  -5    8.58    0.42
   5  -9   5    8.14    0.39
  -5   9  -5    8.57    0.48
   6  -9   5    4.60    0.31
  -6  -9  -5    5.04    0.34
  -6   9  -5    4.63    0.38
   7  -9   5   13.01    0.54
  -7  -9  -5   11.94    0.55
  -7   9  -5   12.13    0.64
  -7 -10   5    7.25    0.44
   7 -10  -5    8.40    0.41
   7  10  -5    6.67    0.36
   6 -10  -5    0.10    0.11
  -6 -10   5    0.10    0.13
   6  10  -5   -0.02    0.12
   6  10  -5   -0.05    0.10
   5 -10  -5    0.17    0.12
   5  10  -5    0.15    0.12
   4 -10  -5    3.45    0.25
   4 -10  -5    3.41    0.23
   4  10  -5    3.64    0.27
   3 -10  -5    4.40    0.28
   3 -10  -5    4.09    0.24
   3  10  -5    3.71    0.27
   2 -10  -5    1.63    0.18
   2 -10  -5    1.17    0.18
   2  10  -5    1.37    0.19
   1 -10  -5    2.99    0.22
   1 -10  -5    3.24    0.24
   1  10  -5    3.57    0.26
   0 -10   5    0.07    0.07
   0 -10  -5   -0.02    0.08
   0 -10  -5   -0.10    0.08
   0  10  -5   -0.09    0.09
   1 -10   5    0.26    0.10
  -1 -10  -5    0.51    0.13
  -1 -10  -5    0.40    0.12
  -1  10  -5    0.54    0.14
  -2 -10  -5    0.27    0.11
   2 -10   5    0.10    0.09
  -2  10  -5    0.53    0.15
  -3 -10  -5    4.18    0.27
   3 -10   5    4.08    0.26
  -3  10  -5    4.08    0.31
  -4 -10  -5   12.72    0.51
   4 -10   5   11.21    0.46
  -4  10  -5   12.45    0.55
  -5 -10  -5    5.96    0.36
   5 -10   5    5.97    0.34
  -5  10  -5    6.43    0.43
   6 -10   5    9.52    0.44
  -6 -10  -5    9.05    0.45
  -6  10  -5    8.59    0.52
   6 -11  -5    1.01    0.18
   6  11  -5    0.82    0.19
   5 -11  -5   14.49    0.56
   5  11  -5   14.81    0.60
   4 -11  -5    3.37    0.27
   4  11  -5    3.46    0.29
   3 -11  -5   13.15    0.47
   3 -11  -5   12.98    0.51
   3  11  -5   12.32    0.52
   2 -11  -5    2.31    0.22
   2 -11  -5    2.28    0.23
   2  11  -5    1.62    0.21
   1 -11  -5   12.21    0.45
   1 -11  -5   11.20    0.47
   1  11  -5   12.62    0.50
   0 -11  -5    3.02    0.24
   0 -11   5    3.13    0.21
   0 -11  -5    2.98    0.23
   0  11  -5    3.13    0.26
  -1 -11  -5   19.16    0.64
  -1 -11  -5   18.87    0.62
   1 -11   5   18.36    0.58
  -1  11  -5   18.83    0.66
  -2 -11  -5   12.39    0.49
   2 -11   5   12.21    0.46
  -2  11  -5   12.08    0.51
  -3 -11  -5   23.66    0.75
   3 -11   5   22.30    0.70
  -3  11  -5   23.19    0.78
   4 -11   5   12.44    0.50
  -4 -11  -5   12.29    0.52
  -4  11  -5   12.29    0.56
   5 -11   5    1.39    0.20
  -5 -11  -5    1.21    0.20
  -5  11  -5    1.06    0.25
   6 -11   5    2.04    0.25
  -6 -11  -5    2.21    0.27
  -6  11  -5    1.80    0.30
   5 -12  -5   10.25    0.47
   5  12  -5    9.48    0.49
   4 -12  -5    7.24    0.40
   4  12  -5    7.07    0.41
   3 -12  -5    4.69    0.32
   3  12  -5    5.30    0.34
   2 -12  -5    2.94    0.26
   2  12  -5    2.92    0.25
   1 -12  -5    8.80    0.43
   1 -12  -5    9.25    0.39
   1  12  -5    8.59    0.42
   0 -12  -5    2.19    0.24
   0 -12  -5    2.51    0.24
   0  12  -5    2.45    0.25
   1 -12   5    6.48    0.32
  -1 -12  -5    6.95    0.38
  -1 -12  -5    6.78    0.35
  -1  12  -5    6.56    0.38
  -2 -12  -5    3.45    0.27
   2 -12   5    3.77    0.26
  -2  12  -5    3.62    0.31
  -3 -12  -5    0.11    0.12
   3 -12   5    0.06    0.10
  -3  12  -5    0.13    0.15
   4 -12   5    3.37    0.26
  -4 -12  -5    3.26    0.28
  -4  12  -5    3.56    0.35
  -5 -12  -5    4.83    0.33
   5 -12   5    4.96    0.33
  -5  12  -5    4.56    0.40
   4 -13  -5    0.36    0.16
   4  13  -5    0.34    0.15
   3 -13  -5    4.83    0.34
   3  13  -5    5.15    0.34
   2 -13  -5    1.73    0.24
   2  13  -5    1.75    0.23
   1 -13  -5   10.67    0.49
   1  13  -5   10.40    0.48
   0 -13  -5    7.13    0.39
   0  13  -5    7.06    0.39
  -1 -13  -5    1.79    0.23
  -1 -13  -5    1.99    0.23
   1 -13   5    1.69    0.20
  -1  13  -5    1.82    0.24
   2 -13   5    0.48    0.14
  -2 -13  -5    0.62    0.15
  -2  13  -5    0.68    0.19
  -3 -13  -5    1.90    0.24
   3 -13   5    1.92    0.23
  -3  13  -5    1.81    0.27
   2 -14  -5    1.40    0.22
   2  14  -5    1.70    0.24
   1 -14  -5    2.03    0.26
   1  14  -5    1.71    0.24
   0 -14  -5    1.40    0.23
   0  14  -5    1.75    0.24
  -1 -14  -5    6.44    0.39
  -1  14  -5    6.51    0.40
 -10   0   6    0.79    0.18
  10   0  -6    0.73    0.17
   9   0  -6    2.23    0.24
  -9   0   6    2.08    0.24
  -8   0   6    5.25    0.31
   8   0  -6    4.86    0.29
   7   0  -6    0.76    0.15
  -7   0   6    0.96    0.15
  -6   0   6    3.44    0.21
   6   0  -6    3.17    0.22
  -5   0   6    9.73    0.35
   5   0  -6    9.11    0.36
  -4   0   6    4.51    0.21
   4   0  -6    4.91    0.24
   3   0  -6   22.76    0.60
   3   0  -6   24.98    0.64
   2   0  -6   62.05    1.38
   2   0  -6   63.83    1.39
   1   0  -6   18.06    0.50
   1   0  -6   18.45    0.48
   0   0  -6   46.59    1.05
   0   0  -6   46.29    1.06
  -1   0  -6   15.51    0.45
  -1   0  -6   16.42    0.47
  -2   0  -6   34.70    0.83
  -2   0  -6   35.29    0.88
  -3   0  -6   23.35    0.69
  -3   0  -6   23.25    0.61
  -4   0  -6   18.51    0.61
  -4   0  -6   17.40    0.51
  -5   0  -6   46.03    1.24
  -5   0  -6   48.09    1.12
  -6   0  -6    3.21    0.28
  -6   0  -6    3.39    0.22
  -7   0  -6    0.25    0.11
  -7   0  -6    0.12    0.14
  -8   0  -6    7.03    0.44
  -8   0  -6    6.98    0.34
  -9   0  -6    9.58    0.52
  10  -1  -6    0.24    0.14
 -10  -1   6    0.41    0.15
 -10   1   6    0.33    0.13
  10   1  -6    0.24    0.13
   9  -1  -6    1.80    0.22
  -9  -1   6    1.77    0.23
  -9   1   6    2.03    0.23
   9   1  -6    1.58    0.21
  -8  -1   6   21.59    0.73
   8  -1  -6   22.47    0.71
   8   1  -6   22.23    0.71
  -8   1   6   22.55    0.71
  -7  -1   6    9.59    0.41
   7  -1  -6    9.13    0.40
  -7   1   6    9.44    0.39
   7   1  -6    9.70    0.40
   6  -1  -6    5.51    0.29
  -6  -1   6    5.19    0.28
   6   1  -6    5.71    0.29
  -6   1   6    5.54    0.26
   5  -1  -6   21.37    0.61
  -5  -1   6   19.67    0.60
  -5   1   6   20.75    0.58
   5   1  -6   20.88    0.61
  -4  -1   6   11.66    0.38
   4  -1  -6   11.34    0.39
  -4   1   6   10.52    0.35
   4   1  -6   10.66    0.38
   3  -1  -6   22.46    0.60
   3  -1  -6   21.39    0.56
   3   1  -6   22.60    0.59
   3   1  -6   22.18    0.59
   2  -1  -6   17.45    0.50
   2  -1  -6   18.45    0.47
   2   1  -6   18.14    0.50
   2   1  -6   17.98    0.49
   1  -1  -6   13.60    0.42
   1  -1  -6   14.63    0.39
   1   1  -6   14.57    0.42
   1   1  -6   14.50    0.42
   0  -1  -6  113.48    2.38
   0  -1  -6  114.93    2.42
   0   1  -6  114.45    2.35
   0   1  -6  114.08    2.45
  -1  -1  -6   25.25    0.65
  -1  -1  -6   25.32    0.64
  -1   1  -6   24.55    0.62
  -1   1  -6   25.40    0.66
  -2  -1  -6   24.97    0.68
  -2  -1  -6   24.40    0.65
  -2   1  -6   25.70    0.63
  -2   1  -6   26.55    0.70
  -3  -1  -6   58.98    1.45
  -3  -1  -6   61.39    1.37
  -3   1  -6   62.06    1.35
  -3   1  -6   62.97    1.47
  -4  -1  -6   19.60    0.62
  -4  -1  -6   19.45    0.56
  -4   1  -6   19.46    0.54
  -4   1  -6   19.37    0.65
  -5  -1  -6    6.56    0.29
  -5  -1  -6    6.25    0.34
  -5   1  -6    6.27    0.27
  -5   1  -6    6.00    0.36
  -6  -1  -6    6.75    0.38
  -6  -1  -6    6.76    0.32
  -6   1  -6    7.86    0.42
  -6   1  -6    7.56    0.32
  -7  -1  -6    3.33    0.24
  -7  -1  -6    3.35    0.28
  -7   1  -6    3.20    0.22
  -7   1  -6    3.55    0.31
  -8  -1  -6   20.89    0.67
  -8  -1  -6   19.78    0.74
  -8   1  -6   19.12    0.76
  -9  -1  -6    2.74    0.32
  -9   1  -6    2.09    0.30
 -10  -2   6   17.22    0.69
  10  -2  -6   17.52    0.65
  10   2  -6   16.93    0.65
  -9  -2   6    0.03    0.10
   9  -2  -6    0.13    0.11
   9   2  -6    0.08    0.11
   8  -2  -6    6.37    0.34
  -8  -2   6    6.51    0.35
   8   2  -6    5.94    0.34
  -8   2   6    6.87    0.34
   7  -2  -6    1.01    0.16
  -7  -2   6    1.29    0.18
   7   2  -6    1.05    0.16
  -7   2   6    0.98    0.14
  -6  -2   6   40.90    1.09
   6  -2  -6   42.05    1.05
  -6   2   6   41.28    1.03
   6   2  -6   41.62    1.05
  -5  -2   6   67.81    1.65
   5  -2  -6   69.51    1.60
  -5   2   6   72.34    1.60
   5   2  -6   74.08    1.60
   4  -2  -6   22.21    0.53
  -4  -2   6   21.47    0.63
   4  -2  -6   20.79    0.61
  -4   2   6   22.55    0.57
   4   2  -6   22.26    0.61
   3  -2  -6   21.13    0.52
   3  -2  -6   20.91    0.52
   3  -2  -6   21.40    0.59
   3   2  -6   20.98    0.59
   3   2  -6   20.89    0.57
   2  -2  -6   14.14    0.37
   2  -2  -6   14.11    0.44
   2   2  -6   14.52    0.43
   2   2  -6   14.09    0.41
   1  -2  -6    4.33    0.17
   1  -2  -6    4.46    0.22
   1   2  -6    5.20    0.21
   1   2  -6    4.65    0.21
   0  -2  -6   10.23    0.34
   0  -2  -6    9.66    0.30
   0   2  -6   10.00    0.31
   0   2  -6    9.87    0.34
  -1  -2  -6    7.16    0.28
  -1  -2  -6    7.03    0.26
  -1   2  -6    6.68    0.28
  -1   2  -6    6.84    0.24
  -2  -2  -6    8.96    0.33
  -2  -2  -6    8.73    0.34
  -2   2  -6    9.95    0.37
  -2   2  -6    9.46    0.30
  -3  -2  -6    5.87    0.26
  -3  -2  -6    5.94    0.29
  -3   2  -6    5.67    0.23
  -3   2  -6    5.62    0.30
  -4  -2  -6    2.15    0.18
  -4  -2  -6    2.04    0.21
  -4   2  -6    2.35    0.16
  -4   2  -6    2.38    0.24
  -5  -2  -6   37.08    1.02
  -5  -2  -6   37.22    0.96
  -5   2  -6   39.35    1.09
  -5   2  -6   38.03    0.91
  -6  -2  -6   39.25    1.09
  -6  -2  -6   38.98    1.02
  -6   2  -6   38.54    1.14
  -6   2  -6   40.38    0.96
  -7  -2  -6   42.88    1.09
  -7  -2  -6   40.12    1.15
  -7   2  -6   39.98    1.21
  -8  -2  -6   33.06    0.95
  -8  -2  -6   33.51    1.04
  -8   2  -6   34.00    1.09
  -9  -2  -6   24.87    0.80
  -9  -2  -6   25.73    0.89
  -9   2  -6   24.13    0.92
 -10  -3   6    1.85    0.27
  10  -3  -6    1.62    0.23
  10   3  -6    1.51    0.23
   9  -3  -6    0.61    0.16
  -9  -3   6    0.56    0.17
   9   3  -6    0.49    0.15
  -8  -3   6   18.62    0.68
   8  -3  -6   18.94    0.63
   8   3  -6   19.35    0.65
   7  -3  -6   17.82    0.59
  -7  -3   6   18.01    0.63
   7   3  -6   18.16    0.60
  -6  -3   6    9.01    0.39
   6  -3  -6    8.35    0.36
   6   3  -6    8.86    0.36
   5  -3  -6    0.57    0.12
   5  -3  -6    0.73    0.10
  -5  -3   6    0.62    0.13
  -5   3   6    0.48    0.09
   5   3  -6    0.64    0.12
   4  -3  -6   24.82    0.68
  -4  -3   6   24.40    0.70
   4  -3  -6   24.98    0.60
   4   3  -6   24.42    0.66
  -4   3   6   24.69    0.61
   3  -3  -6   64.44    1.36
   3  -3  -6   63.06    1.35
   3  -3  -6   62.51    1.43
   3   3  -6   64.34    1.47
   3   3  -6   63.79    1.41
   2  -3  -6   18.26    0.49
  -2  -3   6   19.34    0.42
   2  -3  -6   19.35    0.44
   2  -3  -6   18.75    0.54
   2   3  -6   18.52    0.50
   2   3  -6   18.18    0.54
   1  -3  -6   44.58    0.96
   1  -3  -6   45.04    1.05
   1   3  -6   44.45    1.07
   1   3  -6   45.57    1.00
   0  -3  -6   33.99    0.78
   0  -3  -6   34.17    0.85
   0   3  -6   34.83    0.79
   0   3  -6   35.73    0.88
  -1  -3  -6   20.77    0.58
  -1  -3  -6   21.58    0.54
  -1   3  -6   19.97    0.59
  -1   3  -6   20.61    0.51
  -2  -3  -6   34.66    0.85
  -2  -3  -6   34.70    0.86
  -2   3  -6   34.07    0.90
  -2   3  -6   34.74    0.79
  -3  -3  -6   44.87    1.09
  -3  -3  -6   44.90    1.09
  -3   3  -6   45.52    1.00
  -3   3  -6   45.14    1.15
  -4  -3  -6   15.33    0.50
  -4  -3  -6   15.66    0.51
  -4   3  -6   14.88    0.42
  -4   3  -6   14.86    0.56
  -5  -3  -6    2.64    0.21
  -5  -3  -6    2.33    0.23
  -5   3  -6    2.91    0.30
  -6  -3  -6    4.89    0.30
  -6  -3  -6    5.55    0.30
  -6   3  -6    5.74    0.39
  -7  -3  -6    2.79    0.24
  -7  -3  -6    2.31    0.25
  -7   3  -6    2.04    0.29
  -8  -3  -6   20.31    0.73
  -8  -3  -6   19.98    0.68
  -8   3  -6   18.32    0.76
  -9  -3  -6    1.59    0.25
  -9  -3  -6    1.56    0.22
  -9   3  -6    1.28    0.27
   9  -4  -6    5.04    0.32
  -9  -4   6    4.90    0.36
   9   4  -6    5.01    0.33
  -8  -4   6    4.43    0.31
   8  -4  -6    4.22    0.28
   8   4  -6    3.78    0.28
  -7  -4   6    4.04    0.28
   7  -4  -6    3.48    0.25
   7   4  -6    3.72    0.25
   6  -4  -6    3.15    0.23
  -6  -4   6    2.68    0.23
   6   4  -6    3.16    0.22
  -5  -4   6   20.76    0.65
   5  -4  -6   18.86    0.59
   5  -4  -6   19.86    0.53
   5   4  -6   20.50    0.60
  -4  -4   6   15.65    0.52
   4  -4  -6   14.98    0.44
   4  -4  -6   15.29    0.49
   4   4  -6   15.00    0.46
   3  -4  -6   40.42    0.97
   3  -4  -6   39.77    0.92
   3   4  -6   39.58    0.94
   3   4  -6   38.82    1.00
   2  -4  -6   72.46    1.54
   2  -4  -6   73.01    1.60
   2   4  -6   71.51    1.54
   2   4  -6   70.33    1.64
  -1  -4   6   25.82    0.60
   1  -4  -6   27.67    0.72
   1   4  -6   27.10    0.73
   1   4  -6   27.87    0.65
   0  -4  -6   10.09    0.37
   0   4  -6   10.80    0.38
   0   4  -6   11.29    0.32
  -1  -4  -6    6.33    0.22
  -1  -4  -6    6.27    0.28
  -1   4  -6    6.54    0.22
  -1   4  -6    6.63    0.31
  -2  -4  -6   38.42    0.95
  -2  -4  -6   38.03    0.90
  -2   4  -6   38.53    0.84
  -2   4  -6   37.97    0.99
  -3  -4  -6   51.41    1.24
  -3  -4  -6   51.13    1.22
  -3   4  -6   53.92    1.31
  -4  -4  -6   31.18    0.83
  -4  -4  -6   28.72    0.80
  -4   4  -6   31.32    0.90
  -5  -4  -6   10.90    0.43
  -5  -4  -6   10.71    0.43
  -5   4  -6   11.37    0.51
  -6  -4  -6    9.21    0.41
  -6  -4  -6    9.00    0.41
  -6   4  -6    8.84    0.49
  -7  -4  -6   17.13    0.62
  -7  -4  -6   17.02    0.61
  -7   4  -6   15.73    0.69
  -8  -4  -6    3.37    0.28
   8  -4   6    2.81    0.27
  -8  -4  -6    3.36    0.29
  -8   4  -6    2.57    0.33
  -9  -5   6   11.46    0.56
   9  -5  -6   11.68    0.50
   9   5  -6   12.46    0.52
  -8  -5   6    4.96    0.34
   8  -5  -6    4.84    0.30
   8   5  -6    4.51    0.30
   7  -5  -6    1.73    0.20
  -7  -5   6    1.35    0.20
   7   5  -6    1.58    0.19
   6  -5  -6   14.41    0.51
   6  -5  -6   16.10    0.47
  -6  -5   6   16.38    0.59
   6   5  -6   14.90    0.52
  -5  -5   6    0.79    0.15
   5  -5  -6    0.98    0.15
   5  -5  -6    1.10    0.13
   5   5  -6    0.77    0.13
  -4  -5   6    5.56    0.31
   4  -5  -6    5.70    0.28
   4  -5  -6    5.58    0.25
   4   5  -6    5.97    0.30
   4   5  -6    5.83    0.26
   3  -5  -6    8.32    0.31
   3  -5  -6    7.69    0.32
   3   5  -6    7.94    0.30
   3   5  -6    9.03    0.35
   2  -5  -6    9.87    0.35
   2  -5  -6   10.18    0.37
   2   5  -6    9.70    0.32
   2   5  -6    9.89    0.38
   1  -5  -6   49.86    1.15
   1  -5  -6   48.52    1.18
  -1  -5   6   52.04    1.07
   1   5  -6   51.15    1.10
   1   5  -6   49.87    1.22
   0  -5   6    7.11    0.25
   0  -5  -6    7.32    0.31
   0   5  -6    7.32    0.24
   0   5  -6    7.24    0.31
  -1  -5  -6   39.81    0.98
   1  -5   6   38.18    0.90
  -1   5  -6   38.64    1.01
  -1   5  -6   40.32    0.85
   2  -5   6   21.51    0.58
  -2  -5  -6   20.69    0.61
  -2   5  -6   20.39    0.63
  -3  -5  -6    9.06    0.33
  -3  -5  -6    9.72    0.39
  -3   5  -6    9.40    0.41
  -4  -5  -6    8.22    0.36
  -4  -5  -6    8.49    0.34
  -4   5  -6    9.50    0.44
  -5  -5  -6   22.10    0.67
  -5  -5  -6   21.84    0.68
   5  -5   6   20.54    0.66
  -5   5  -6   23.14    0.77
  -6  -5  -6    3.03    0.25
   6  -5   6    2.69    0.23
  -6  -5  -6    2.87    0.24
  -6   5  -6    2.74    0.32
  -7  -5  -6    1.23    0.20
  -7  -5  -6    1.52    0.21
   7  -5   6    0.94    0.17
  -7   5  -6    1.56    0.28
  -8  -5  -6    1.53    0.23
  -8  -5  -6    1.30    0.21
   8  -5   6    1.43    0.21
  -8   5  -6    1.53    0.28
  -9  -6   6    9.15    0.50
   9  -6  -6    8.54    0.42
   9   6  -6    9.09    0.45
  -8  -6   6    1.92    0.26
   8  -6  -6    2.09    0.23
   8   6  -6    2.01    0.23
   7  -6  -6   13.45    0.50
  -7  -6   6   13.35    0.56
   7   6  -6   12.44    0.49
  -6  -6   6   15.30    0.59
   6  -6  -6   15.34    0.48
   6  -6  -6   14.92    0.52
   6   6  -6   13.90    0.50
  -5  -6   6    7.30    0.38
   5  -6  -6    8.89    0.34
   5  -6  -6    8.70    0.36
   5   6  -6    7.77    0.33
   4  -6  -6   29.87    0.80
   4  -6  -6   30.18    0.77
   4   6  -6   29.70    0.77
   4   6  -6   29.55    0.85
   3  -6  -6    2.26    0.18
   3  -6  -6    2.64    0.18
   3   6  -6    2.54    0.16
   3   6  -6    2.54    0.21
   2  -6  -6   12.37    0.42
   2  -6  -6   13.32    0.44
   2   6  -6   12.63    0.46
   2   6  -6   13.13    0.38
   1  -6  -6    5.95    0.28
   1  -6  -6    5.52    0.26
  -1  -6   6    5.71    0.21
   1   6  -6    5.50    0.28
   1   6  -6    5.83    0.21
   0  -6   6    5.76    0.23
   0  -6  -6    5.74    0.28
   0   6  -6    5.72    0.28
   1  -6   6    8.40    0.30
  -1  -6  -6    9.14    0.36
  -1   6  -6    7.47    0.35
  -2  -6  -6   13.05    0.47
   2  -6   6   13.67    0.43
  -2   6  -6   13.89    0.49
   3  -6   6   11.25    0.40
  -3  -6  -6   11.76    0.44
  -3   6  -6   11.09    0.46
  -4  -6  -6   19.56    0.64
   4  -6   6   20.43    0.61
  -4   6  -6   20.46    0.70
   5  -6   6   11.10    0.44
  -5  -6  -6   10.63    0.46
  -5   6  -6   12.18    0.55
  -6  -6  -6   24.57    0.78
   6  -6   6   24.58    0.75
  -6   6  -6   23.23    0.86
  -7  -6  -6    8.82    0.43
   7  -6   6    7.83    0.40
  -7   6  -6    8.58    0.51
   8  -6   6   11.34    0.50
  -8  -6  -6   11.49    0.53
  -8   6  -6   10.86    0.61
  -8  -7   6    0.32    0.15
   8  -7  -6    0.49    0.14
   8   7  -6    0.27    0.14
  -7  -7   6    0.58    0.16
   7  -7  -6    0.43    0.14
   7   7  -6    0.57    0.14
   6  -7  -6    4.69    0.28
  -6  -7   6    4.71    0.33
   6  -7  -6    4.62    0.26
   6   7  -6    4.29    0.26
   5  -7  -6    9.13    0.37
  -5  -7   6    9.51    0.44
   5  -7  -6    9.45    0.39
   5   7  -6    9.50    0.37
   5   7  -6    9.29    0.42
   4  -7  -6    6.68    0.30
   4  -7  -6    6.21    0.30
   4   7  -6    7.20    0.35
   4   7  -6    6.45    0.28
   3  -7  -6   23.84    0.67
   3  -7  -6   23.72    0.68
   3   7  -6   24.68    0.74
   3   7  -6   23.59    0.62
   2  -7  -6    6.20    0.29
   2  -7  -6    6.40    0.30
   2   7  -6    6.84    0.25
   2   7  -6    5.67    0.31
   1  -7  -6   11.44    0.41
  -1  -7   6   11.63    0.34
   1  -7  -6   12.00    0.42
   1   7  -6   10.49    0.42
   0  -7  -6   27.02    0.74
   0  -7   6   25.89    0.65
   0  -7  -6   26.99    0.73
   0   7  -6   25.65    0.76
   1  -7   6   40.73    0.94
  -1  -7  -6   39.50    1.01
  -1   7  -6   38.90    1.05
   2  -7   6   11.80    0.40
  -2  -7  -6   11.14    0.43
  -2   7  -6   11.32    0.45
   3  -7   6    1.09    0.15
  -3  -7  -6    0.94    0.15
  -3   7  -6    1.14    0.20
  -4  -7  -6    8.03    0.38
   4  -7   6    8.55    0.36
  -4   7  -6    7.67    0.41
   5  -7   6   10.84    0.44
  -5  -7  -6   10.97    0.46
  -5   7  -6   10.24    0.51
   6  -7   6    2.57    0.25
  -6  -7  -6    2.36    0.25
  -6   7  -6    2.36    0.31
  -7  -7  -6    0.44    0.15
   7  -7   6    0.51    0.15
  -7   7  -6    0.55    0.23
  -8  -8   6    0.00    0.13
   8   8  -6    0.09    0.11
   7  -8  -6    1.15    0.17
   7  -8  -6    0.76    0.16
  -7  -8   6    1.23    0.22
   7   8  -6    1.00    0.17
   6  -8  -6    1.85    0.20
   6  -8  -6    1.86    0.21
  -6  -8   6    1.65    0.24
   6   8  -6    1.68    0.19
   6   8  -6    1.53    0.21
   5  -8  -6    2.95    0.22
   5  -8  -6    3.03    0.23
   5   8  -6    2.82    0.20
   5   8  -6    3.12    0.25
   4  -8  -6    8.44    0.36
   4  -8  -6    8.48    0.36
   4   8  -6    8.42    0.33
   4   8  -6    8.45    0.40
   3  -8  -6    9.50    0.39
   3  -8  -6    9.41    0.39
   3   8  -6   10.38    0.34
   3   8  -6    9.59    0.42
   2  -8  -6    7.84    0.34
   2  -8  -6    7.25    0.33
   2   8  -6    7.03    0.35
   1  -8  -6   33.75    0.89
   1  -8  -6   32.40    0.88
   1   8  -6   34.71    0.94
   0  -8  -6    6.52    0.31
   0  -8   6    6.78    0.27
   0  -8  -6    6.25    0.31
   0   8  -6    6.70    0.33
  -1  -8  -6    0.30    0.12
   1  -8   6    0.36    0.09
  -1   8  -6    0.56    0.14
   2  -8   6    5.90    0.27
  -2  -8  -6    5.74    0.30
  -2   8  -6    4.74    0.32
  -3  -8  -6    4.28    0.27
   3  -8   6    4.10    0.25
  -3   8  -6    4.38    0.31
   4  -8   6   31.57    0.86
  -4  -8  -6   31.35    0.90
  -4   8  -6   29.92    0.95
  -5  -8  -6    5.75    0.34
   5  -8   6    5.58    0.32
  -5   8  -6    5.61    0.40
  -6  -8  -6    4.48    0.32
   6  -8   6    5.11    0.32
  -6   8  -6    5.24    0.42
   7  -8   6    0.62    0.16
  -7  -8  -6    0.46    0.16
  -7   8  -6    0.74    0.26
   7  -9  -6   12.75    0.50
  -7  -9   6   13.38    0.60
   7   9  -6   11.64    0.55
   7   9  -6   11.58    0.48
   6  -9  -6    3.56    0.26
   6  -9  -6    3.74    0.27
  -6  -9   6    3.11    0.29
   6   9  -6    3.41    0.29
   6   9  -6    3.53    0.24
   5  -9  -6    0.52    0.14
   5  -9  -6    0.57    0.14
   5   9  -6    0.52    0.12
   5   9  -6    0.47    0.15
   4  -9  -6    0.56    0.13
   4  -9  -6    0.40    0.12
   4   9  -6    0.30    0.13
   3  -9  -6    1.95    0.21
   3  -9  -6    2.14    0.21
   3   9  -6    2.45    0.22
   2  -9  -6    3.82    0.25
   2  -9  -6    3.93    0.26
   2   9  -6    3.17    0.26
   1  -9  -6    9.93    0.40
   1  -9  -6    9.94    0.41
   1   9  -6    9.90    0.43
   0  -9   6   18.97    0.52
   0  -9  -6   18.17    0.59
   0  -9  -6   17.00    0.58
   0   9  -6   17.68    0.61
   1  -9   6   21.78    0.62
  -1  -9  -6   23.90    0.71
  -1   9  -6   21.83    0.72
  -2  -9  -6   17.37    0.59
   2  -9   6   17.74    0.55
  -2   9  -6   17.22    0.62
   3  -9   6    3.17    0.22
  -3  -9  -6    3.39    0.25
  -3   9  -6    2.96    0.27
   4  -9   6    6.14    0.33
  -4  -9  -6    6.18    0.36
  -4   9  -6    6.61    0.40
   5  -9   6    2.20    0.24
  -5  -9  -6    1.96    0.24
  -5   9  -6    2.40    0.31
   6  -9   6    4.40    0.30
  -6  -9  -6    4.41    0.32
  -6   9  -6    4.18    0.38
  -7 -10   6    2.73    0.32
   7 -10  -6    2.88    0.28
   7  10  -6    2.39    0.25
   7  10  -6    2.61    0.30
   6 -10  -6    5.16    0.32
   6  10  -6    5.76    0.38
   5 -10  -6   20.90    0.65
   5 -10  -6   21.39    0.69
   5  10  -6   19.71    0.73
   4 -10  -6    7.82    0.37
   4 -10  -6    8.69    0.40
   4  10  -6    8.81    0.44
   3 -10  -6    1.12    0.18
   3 -10  -6    1.48    0.18
   3  10  -6    1.15    0.19
   2 -10  -6    3.62    0.25
   2 -10  -6    3.78    0.26
   2  10  -6    4.02    0.29
   1 -10  -6    3.30    0.25
   1 -10  -6    3.05    0.23
   1  10  -6    3.24    0.26
   0 -10  -6    0.84    0.15
   0 -10  -6    0.59    0.14
   0  10  -6    0.83    0.16
   1 -10   6    1.69    0.17
  -1 -10  -6    1.45    0.19
  -1  10  -6    1.54    0.21
  -2 -10  -6    4.97    0.31
   2 -10   6    4.95    0.27
  -2  10  -6    5.44    0.34
  -3 -10  -6    2.15    0.24
   3 -10   6    1.95    0.21
  -3  10  -6    2.05    0.26
  -4 -10  -6    4.45    0.31
   4 -10   6    4.14    0.28
  -4  10  -6    3.83    0.33
  -5 -10  -6    5.80    0.37
   5 -10   6    5.54    0.33
  -5  10  -6    5.20    0.42
  -6 -10  -6    5.12    0.36
   6 -10   6    5.13    0.33
  -6  10  -6    4.86    0.43
   6 -11  -6    5.83    0.34
   6  11  -6    5.56    0.38
   5 -11  -6    6.61    0.37
   5  11  -6    5.39    0.36
   4 -11  -6    8.47    0.42
   4  11  -6    8.42    0.45
   3 -11  -6   11.67    0.49
   3 -11  -6   12.46    0.47
   3  11  -6   11.76    0.52
   2 -11  -6    3.29    0.27
   2 -11  -6    2.95    0.23
   2  11  -6    3.17    0.28
   1 -11  -6    1.50    0.19
   1 -11  -6    1.45    0.20
   1  11  -6    1.50    0.21
   0 -11  -6    0.84    0.16
   0 -11  -6    0.72    0.16
   0  11  -6    0.61    0.16
  -1 -11  -6    5.27    0.31
   1 -11   6    6.20    0.30
  -1  11  -6    5.67    0.35
   2 -11   6    0.56    0.13
  -2 -11  -6    0.42    0.14
  -2  11  -6    0.64    0.18
   3 -11   6    0.48    0.13
  -3 -11  -6    0.40    0.14
  -3  11  -6    0.46    0.19
  -4 -11  -6    9.67    0.47
   4 -11   6    9.65    0.44
  -4  11  -6    9.67    0.52
   5 -11   6    2.37    0.25
  -5 -11  -6    2.07    0.26
  -5  11  -6    2.26    0.32
   5 -12  -6    0.51    0.16
   5  12  -6    0.75    0.19
   4 -12  -6    2.01    0.25
   4  12  -6    2.59    0.29
   3 -12  -6    1.52    0.22
   3  12  -6    1.34    0.22
   2 -12  -6    6.01    0.34
   2 -12  -6    6.73    0.38
   2  12  -6    7.10    0.40
   1 -12  -6   21.58    0.70
   1 -12  -6   22.48    0.75
   1  12  -6   22.35    0.77
   0 -12  -6    7.29    0.37
   0 -12  -6    6.46    0.37
   0  12  -6    7.34    0.40
  -1 -12  -6    5.36    0.33
  -1  12  -6    5.56    0.36
   2 -12   6    0.83    0.16
  -2 -12  -6    1.03    0.19
  -2  12  -6    0.96    0.21
  -3 -12  -6   12.61    0.54
   3 -12   6   13.12    0.51
  -3  12  -6   13.03    0.59
  -4 -12  -6    1.54    0.23
   4 -12   6    1.65    0.22
  -4  12  -6    1.78    0.29
   3 -13  -6    4.70    0.34
   3  13  -6    4.79    0.35
   2 -13  -6    1.40    0.22
   2  13  -6    0.92    0.19
   1 -13  -6    2.03    0.25
   1  13  -6    2.44    0.27
   0 -13  -6    0.46    0.15
   0 -13  -6    0.68    0.15
   0  13  -6    0.55    0.17
  -1 -13  -6    2.95    0.28
  -1  13  -6    2.78    0.30
   2 -13   6    2.19    0.24
  -2 -13  -6    1.94    0.25
  -2  13  -6    2.30    0.28
  -9   0   7    2.14    0.25
   9   0  -7    1.85    0.23
  -8   0   7   18.09    0.62
   8   0  -7   17.35    0.62
   7   0  -7    1.18    0.18
  -7   0   7    0.99    0.16
  -6   0   7    3.23    0.22
   6   0  -7    2.65    0.22
   5   0  -7    1.97    0.20
  -5   0   7    1.69    0.15
   4   0  -7   11.60    0.42
  -4   0   7   12.43    0.41
   4   0  -7   12.74    0.40
   3   0  -7   43.66    1.03
   3   0  -7   43.12    1.04
   2   0  -7    6.70    0.26
   2   0  -7    6.57    0.28
   1   0  -7    4.39    0.22
   1   0  -7    4.50    0.21
   0   0  -7    0.45    0.10
   0   0  -7    0.45    0.10
  -1   0  -7   37.39    0.90
  -1   0  -7   37.15    0.92
  -2   0  -7    6.83    0.28
  -2   0  -7    6.62    0.32
  -3   0  -7    1.69    0.16
  -3   0  -7    1.83    0.20
  -4   0  -7    6.31    0.28
  -4   0  -7    6.11    0.35
  -5   0  -7    1.10    0.20
  -5   0  -7    1.09    0.15
  -6   0  -7   26.65    0.88
  -6   0  -7   27.80    0.77
  -7   0  -7    1.41    0.18
  -7   0  -7    1.06    0.22
  -8   0  -7   20.10    0.78
  -9  -1   7    6.45    0.38
   9  -1  -7    6.07    0.36
   9   1  -7    6.24    0.37
  -8  -1   7    3.50    0.27
   8  -1  -7    3.25    0.26
   8   1  -7    3.59    0.27
   7  -1  -7    0.14    0.10
  -7  -1   7    0.24    0.11
  -7   1   7    0.26    0.10
   7   1  -7    0.15    0.11
   6  -1  -7   12.72    0.47
  -6  -1   7   13.06    0.47
  -6   1   7   13.21    0.45
   6   1  -7   12.35    0.47
  -5  -1   7    2.88    0.20
   5  -1  -7    2.83    0.21
  -5   1   7    2.96    0.19
   5   1  -7    3.10    0.21
   4  -1  -7    6.77    0.30
   4  -1  -7    6.69    0.26
  -4  -1   7    6.14    0.28
   4   1  -7    6.32    0.27
   4   1  -7    5.78    0.28
  -4   1   7    6.09    0.26
   3  -1  -7   15.88    0.50
   3  -1  -7   16.82    0.46
   3   1  -7   16.43    0.49
   3   1  -7   16.94    0.50
   2  -1  -7    2.64    0.18
   2  -1  -7    2.31    0.15
   2   1  -7    2.35    0.17
   2   1  -7    2.17    0.17
   1  -1  -7   34.18    0.84
   1  -1  -7   33.11    0.79
   1   1  -7   32.32    0.82
   1   1  -7   33.27    0.81
   0  -1  -7   10.31    0.36
   0  -1  -7   10.10    0.33
   0   1  -7    9.74    0.35
   0   1  -7    9.88    0.34
  -1  -1  -7   15.08    0.46
  -1  -1  -7   15.22    0.46
  -1   1  -7   15.21    0.44
  -1   1  -7   14.24    0.47
  -2  -1  -7   21.57    0.64
  -2  -1  -7   22.85    0.62
  -2   1  -7   23.10    0.60
  -2   1  -7   22.64    0.66
  -3  -1  -7   61.34    1.40
  -3  -1  -7   64.04    1.49
  -3   1  -7   60.43    1.49
  -3   1  -7   60.57    1.37
  -4  -1  -7   12.52    0.49
  -4  -1  -7   13.82    0.46
  -4   1  -7   13.32    0.53
  -4   1  -7   13.13    0.43
  -5  -1  -7   19.07    0.59
  -5  -1  -7   19.32    0.66
  -5   1  -7   18.59    0.56
  -5   1  -7   20.16    0.70
  -6  -1  -7    1.68    0.23
  -6  -1  -7    1.97    0.20
  -6   1  -7    1.60    0.24
  -6   1  -7    1.61    0.18
  -7  -1  -7    0.29    0.12
  -7  -1  -7    0.12    0.16
  -7   1  -7    0.21    0.17
  -8  -1  -7   13.28    0.61
  -8  -1  -7   13.77    0.53
  -8   1  -7   13.72    0.64
  -9  -2   7    2.90    0.30
   9  -2  -7    2.90    0.29
   9   2  -7    3.14    0.28
  -8  -2   7    9.79    0.45
   8  -2  -7    9.92    0.44
   8   2  -7    9.68    0.44
  -7  -2   7   15.16    0.55
   7  -2  -7   15.38    0.55
   7   2  -7   14.11    0.53
   6  -2  -7   14.59    0.52
  -6  -2   7   14.77    0.52
   6   2  -7   14.16    0.51
   5  -2  -7   12.78    0.46
  -5  -2   7   12.42    0.46
   5   2  -7   13.27    0.46
   4  -2  -7    0.39    0.08
   4  -2  -7    0.47    0.12
   4   2  -7    0.24    0.09
   4   2  -7    0.39    0.10
   3  -2  -7    3.21    0.22
   3  -2  -7    3.67    0.17
   3   2  -7    3.56    0.21
   3   2  -7    3.16    0.20
   2  -2  -7   77.51    1.62
   2  -2  -7   73.60    1.66
   2   2  -7   73.15    1.63
   2   2  -7   75.33    1.69
   1  -2  -7    9.12    0.28
   1  -2  -7    8.67    0.34
   1   2  -7    9.39    0.32
   1   2  -7    9.14    0.33
   0  -2  -7   35.73    0.84
   0  -2  -7   35.87    0.90
   0   2  -7   37.09    0.86
   0   2  -7   35.55    0.90
  -1  -2  -7   12.64    0.41
  -1  -2  -7   13.34    0.44
  -1   2  -7   13.74    0.40
  -1   2  -7   13.17    0.45
  -2  -2  -7   55.32    1.27
  -2  -2  -7   55.62    1.29
  -2   2  -7   53.34    1.20
  -2   2  -7   52.52    1.31
  -3  -2  -7   35.10    0.88
  -3  -2  -7   32.30    0.89
  -3   2  -7   34.12    0.82
  -3   2  -7   34.57    0.94
  -4  -2  -7    1.16    0.17
  -4  -2  -7    0.85    0.14
  -4   2  -7    1.02    0.13
  -4   2  -7    1.05    0.20
  -5  -2  -7    1.40    0.20
  -5  -2  -7    1.47    0.18
  -5   2  -7    1.00    0.21
  -5   2  -7    1.23    0.15
  -6  -2  -7    4.15    0.27
  -6  -2  -7    3.93    0.30
  -6   2  -7    3.77    0.34
  -7  -2  -7    4.73    0.34
  -7  -2  -7    5.45    0.32
  -7   2  -7    4.97    0.39
  -8  -2  -7   16.94    0.61
  -8  -2  -7   15.41    0.65
  -8   2  -7   15.89    0.70
  -9  -3   7   13.73    0.59
   9  -3  -7   14.38    0.57
   9   3  -7   12.56    0.55
   8  -3  -7    1.31    0.20
  -8  -3   7    1.29    0.20
   8   3  -7    1.58    0.21
   7  -3  -7    1.56    0.21
  -7  -3   7    1.73    0.21
   7   3  -7    1.92    0.21
   6  -3  -7    3.83    0.26
  -6  -3   7    3.90    0.27
   6   3  -7    4.12    0.26
   5  -3  -7    7.51    0.34
  -5  -3   7    7.29    0.34
   5   3  -7    6.47    0.32
   4  -3  -7   16.87    0.54
   4  -3  -7   17.29    0.46
   4   3  -7   16.01    0.53
   4   3  -7   15.65    0.50
   3  -3  -7   32.54    0.85
   3   3  -7   31.38    0.84
   3   3  -7   32.75    0.81
   2  -3  -7    9.91    0.38
   2   3  -7   10.58    0.36
   2   3  -7   11.07    0.39
   1  -3  -7   -0.03    0.08
   1   3  -7   -0.06    0.07
   1   3  -7    0.11    0.07
   0  -3  -7   86.10    1.89
   0   3  -7   87.45    1.82
   0   3  -7   85.08    1.94
  -1  -3  -7    7.84    0.29
  -1  -3  -7    7.86    0.33
  -1   3  -7    7.91    0.34
  -1   3  -7    8.27    0.28
  -2  -3  -7   15.36    0.47
  -2  -3  -7   15.28    0.50
  -2   3  -7   15.27    0.43
  -2   3  -7   14.75    0.51
  -3  -3  -7    9.13    0.37
  -3  -3  -7   10.76    0.40
  -3   3  -7    9.65    0.32
  -3   3  -7   10.16    0.44
  -4  -3  -7    7.27    0.33
  -4  -3  -7    6.53    0.33
  -4   3  -7    6.89    0.39
  -5  -3  -7   36.16    0.97
  -5  -3  -7   36.65    1.00
  -5   3  -7   35.93    1.09
  -6  -3  -7    1.46    0.19
  -6  -3  -7    1.09    0.18
  -6   3  -7    1.10    0.24
  -7  -3  -7    2.56    0.27
  -7  -3  -7    2.39    0.25
  -7   3  -7    2.23    0.31
  -8  -3  -7    1.15    0.20
  -8  -3  -7    1.02    0.20
  -8   3  -7    0.60    0.22
  -9  -4   7    5.06    0.35
   9  -4  -7    5.06    0.34
   9   4  -7    5.07    0.34
   8  -4  -7   12.28    0.51
  -8  -4   7   12.17    0.54
   8   4  -7   12.60    0.52
   7  -4  -7    3.05    0.25
  -7  -4   7    3.09    0.26
   7   4  -7    2.96    0.23
   6  -4  -7    1.53    0.19
  -6  -4   7    1.30    0.19
   6   4  -7    0.86    0.15
   5  -4  -7   14.68    0.51
  -5  -4   7   15.39    0.54
   5   4  -7   14.95    0.50
   5   4  -7   14.41    0.52
   4  -4  -7   24.83    0.64
   4  -4  -7   24.44    0.71
   4   4  -7   24.90    0.68
   4   4  -7   24.28    0.72
   3  -4  -7    8.41    0.35
   3  -4  -7    8.36    0.31
   3   4  -7    8.44    0.32
   3   4  -7    8.16    0.35
   2  -4  -7   67.36    1.54
   2   4  -7   66.57    1.48
   2   4  -7   69.13    1.59
   1  -4  -7   44.81    1.10
  -1  -4   7   46.17    0.98
   1   4  -7   44.75    1.12
   1   4  -7   45.74    1.03
   0  -4  -7   14.76    0.49
   0   4  -7   14.80    0.49
   0   4  -7   16.15    0.43
  -1  -4  -7    0.78    0.13
  -1   4  -7    1.16    0.16
  -1   4  -7    1.15    0.11
  -2  -4  -7   43.04    1.07
  -2   4  -7   42.51    1.11
  -3  -4  -7   20.30    0.62
  -3   4  -7   19.65    0.66
  -4  -4  -7    2.70    0.21
  -4  -4  -7    2.84    0.21
  -4   4  -7    2.50    0.27
  -5  -4  -7    5.30    0.31
  -5  -4  -7    5.86    0.32
  -5   4  -7    6.10    0.40
  -6  -4  -7    7.64    0.38
  -6  -4  -7    7.45    0.38
  -6   4  -7    7.86    0.46
  -7  -4  -7    6.51    0.37
  -7  -4  -7    6.22    0.37
  -7   4  -7    6.34    0.46
   8  -4   7    1.51    0.21
  -8  -4  -7    1.70    0.25
  -8  -4  -7    1.63    0.23
  -8   4  -7    1.39    0.28
   9  -5  -7    0.08    0.13
  -9  -5   7    0.21    0.14
   9   5  -7    0.19    0.13
   8  -5  -7    5.99    0.35
  -8  -5   7    5.26    0.36
   8   5  -7    5.74    0.35
   7  -5  -7    6.35    0.34
  -7  -5   7    5.77    0.36
   7   5  -7    6.46    0.34
   6  -5  -7   18.55    0.61
  -6  -5   7   18.31    0.65
   6   5  -7   18.08    0.59
  -5  -5   7   33.02    0.94
   5  -5  -7   32.12    0.80
   5  -5  -7   30.96    0.87
   5   5  -7   30.36    0.89
   5   5  -7   31.23    0.84
   4  -5  -7   11.43    0.43
   4  -5  -7   11.10    0.38
   4   5  -7   11.15    0.40
   4   5  -7   10.78    0.43
   3  -5  -7   30.03    0.83
   3  -5  -7   31.10    0.78
   3   5  -7   30.83    0.85
   3   5  -7   30.20    0.77
   2  -5  -7    2.57    0.20
   2  -5  -7    2.41    0.18
   2   5  -7    2.61    0.21
   2   5  -7    2.37    0.16
   1  -5  -7    6.45    0.31
   1   5  -7    6.44    0.30
   1   5  -7    6.64    0.25
   0  -5   7    3.57    0.18
   0  -5  -7    3.30    0.23
   0   5  -7    3.47    0.23
   0   5  -7    3.59    0.18
  -1  -5  -7    0.22    0.10
   1  -5   7    0.30    0.08
  -1   5  -7    0.17    0.10
  -2  -5  -7    2.89    0.21
  -2   5  -7    2.84    0.24
  -3  -5  -7   10.69    0.43
  -3   5  -7   11.09    0.46
  -4  -5  -7    0.59    0.14
  -4   5  -7    0.79    0.19
  -5  -5  -7    6.53    0.35
  -5   5  -7    6.28    0.40
   6  -5   7    2.41    0.24
  -6  -5  -7    2.41    0.26
  -6   5  -7    2.38    0.31
   7  -5   7    4.36    0.30
  -7  -5  -7    4.33    0.32
  -7   5  -7    4.66    0.39
   8  -5   7    9.21    0.45
  -8  -5  -7    8.42    0.45
  -8   5  -7    7.80    0.52
  -8  -6   7   11.19    0.55
   8  -6  -7   11.48    0.49
   8   6  -7   11.88    0.50
  -7  -6   7   13.21    0.57
   7  -6  -7   12.84    0.51
   7   6  -7   12.66    0.50
  -6  -6   7    0.73    0.17
   6  -6  -7    0.86    0.16
   6   6  -7    0.73    0.16
   6   6  -7    0.73    0.14
   5  -6  -7    7.15    0.35
   5  -6  -7    7.11    0.31
   5   6  -7    7.49    0.38
   5   6  -7    7.86    0.33
   4  -6  -7    4.93    0.28
   4  -6  -7    4.93    0.26
   4   6  -7    4.76    0.29
   4   6  -7    4.82    0.25
   3  -6  -7    6.39    0.29
   3  -6  -7    5.77    0.30
   3   6  -7    5.97    0.31
   3   6  -7    6.09    0.27
   2  -6  -7    1.35    0.16
   2  -6  -7    1.30    0.17
   2   6  -7    1.63    0.14
   2   6  -7    1.39    0.17
   1  -6  -7   30.16    0.82
   1   6  -7   28.24    0.83
   1   6  -7   30.94    0.72
   0  -6  -7   14.71    0.50
   0  -6   7   13.89    0.41
   0   6  -7   13.82    0.50
   1  -6   7   13.76    0.42
  -1  -6  -7   14.04    0.49
  -1   6  -7   13.52    0.50
  -2  -6  -7   16.53    0.56
   2  -6   7   16.24    0.50
  -2   6  -7   17.75    0.59
  -3  -6  -7    7.01    0.35
   3  -6   7    6.65    0.31
  -3   6  -7    7.85    0.39
  -4  -6  -7    5.09    0.31
   4  -6   7    5.17    0.29
  -4   6  -7    5.75    0.38
  -5  -6  -7   12.97    0.53
   5  -6   7   13.74    0.51
  -5   6  -7   13.83    0.60
   6  -6   7    5.59    0.32
  -6  -6  -7    5.22    0.34
  -6   6  -7    5.29    0.43
  -7  -6  -7    0.72    0.18
   7  -6   7    0.91    0.18
  -7   6  -7    0.83    0.26
  -8  -7   7    3.46    0.35
   8  -7  -7    3.43    0.28
   8   7  -7    3.55    0.28
  -7  -7   7    9.54    0.48
   7  -7  -7    8.97    0.43
   7   7  -7    9.24    0.42
   6  -7  -7    2.65    0.23
  -6  -7   7    2.89    0.26
   6   7  -7    3.06    0.23
   6   7  -7    2.93    0.25
   5  -7  -7    9.89    0.39
   5  -7  -7    9.14    0.41
   5   7  -7    9.39    0.38
   5   7  -7    9.64    0.44
   4  -7  -7    1.68    0.18
   4  -7  -7    1.97    0.21
   4   7  -7    2.08    0.18
   4   7  -7    2.13    0.23
   3  -7  -7   21.09    0.66
   3  -7  -7   21.28    0.63
   3   7  -7   21.50    0.69
   3   7  -7   21.97    0.59
   2  -7  -7    8.26    0.37
   2  -7  -7    8.43    0.35
   2   7  -7    8.19    0.38
   1  -7  -7   24.59    0.73
   1  -7  -7   25.52    0.72
   1   7  -7   25.52    0.76
   0  -7   7   35.72    0.83
   0  -7  -7   35.17    0.94
   0   7  -7   33.78    0.96
   1  -7   7   13.82    0.43
  -1  -7  -7   13.72    0.50
  -1   7  -7   13.27    0.51
   2  -7   7    3.91    0.23
  -2  -7  -7    4.35    0.27
  -2   7  -7    3.81    0.28
  -3  -7  -7    4.29    0.28
   3  -7   7    4.10    0.25
  -3   7  -7    4.48    0.32
   4  -7   7    3.60    0.25
  -4  -7  -7    3.41    0.27
  -4   7  -7    4.04    0.33
  -5  -7  -7    4.21    0.30
   5  -7   7    4.24    0.28
  -5   7  -7    4.29    0.37
   6  -7   7    2.86    0.24
  -6  -7  -7    3.30    0.28
  -6   7  -7    3.37    0.37
  -7  -7  -7    5.19    0.36
   7  -7   7    5.32    0.34
  -7   7  -7    4.93    0.42
  -7  -8   7    0.20    0.15
   7  -8  -7    0.10    0.13
   7   8  -7    0.13    0.12
   7   8  -7    0.27    0.14
   6  -8  -7    4.43    0.29
   6  -8  -7    4.68    0.28
   6   8  -7    4.55    0.28
   6   8  -7    4.09    0.31
   5  -8  -7    2.57    0.25
   5  -8  -7    2.18    0.22
   5   8  -7    2.57    0.27
   5   8  -7    2.66    0.20
   4  -8  -7    2.48    0.21
   4  -8  -7    2.84    0.23
   4   8  -7    2.44    0.25
   4   8  -7    2.42    0.19
   3  -8  -7    6.42    0.31
   3  -8  -7    5.91    0.32
   3   8  -7    6.34    0.35
   2  -8  -7   15.72    0.54
   2  -8  -7   15.39    0.53
   2   8  -7   15.63    0.57
   1  -8  -7    0.54    0.13
   1  -8  -7    0.48    0.13
   1   8  -7    0.53    0.14
   0  -8  -7    6.52    0.33
   0   8  -7    6.48    0.35
  -1  -8  -7   16.07    0.57
   1  -8   7   17.06    0.51
  -1   8  -7   16.73    0.61
  -2  -8  -7   32.09    0.91
   2  -8   7   31.13    0.82
  -2   8  -7   31.55    0.94
   3  -8   7   15.36    0.52
  -3  -8  -7   15.71    0.58
  -3   8  -7   15.12    0.60
  -4  -8  -7   12.21    0.52
   4  -8   7   12.55    0.48
  -4   8  -7   12.78    0.56
  -5  -8  -7    5.54    0.34
   5  -8   7    5.55    0.32
  -5   8  -7    5.42    0.40
   6  -8   7    1.27    0.20
  -6  -8  -7    1.18    0.21
  -6   8  -7    0.95    0.26
   7  -9  -7    9.84    0.45
   7   9  -7    9.80    0.51
   7   9  -7    9.47    0.43
   6  -9  -7   10.85    0.45
   6  -9  -7   10.64    0.46
   6   9  -7   10.47    0.51
   6   9  -7   10.68    0.44
   5  -9  -7    5.36    0.31
   5  -9  -7    4.91    0.31
   5   9  -7    5.47    0.35
   4  -9  -7   18.39    0.62
   4  -9  -7   19.31    0.64
   4   9  -7   20.22    0.70
   3  -9  -7    3.60    0.25
   3  -9  -7    3.49    0.24
   3   9  -7    2.97    0.26
   2  -9  -7    7.14    0.35
   2  -9  -7    7.48    0.36
   2   9  -7    7.75    0.39
   1  -9  -7    1.25    0.18
   1  -9  -7    1.07    0.17
   1   9  -7    1.16    0.18
   0  -9  -7    1.81    0.21
   0   9  -7    2.04    0.23
  -1  -9  -7    3.11    0.25
   1  -9   7    3.06    0.21
  -1   9  -7    3.19    0.26
   2  -9   7    3.49    0.22
  -2  -9  -7    3.25    0.26
  -2   9  -7    2.87    0.28
  -3  -9  -7    2.51    0.26
   3  -9   7    2.75    0.22
  -3   9  -7    2.66    0.29
   4  -9   7    0.63    0.14
  -4  -9  -7    0.69    0.17
  -4   9  -7    0.79    0.21
   5  -9   7    3.36    0.27
  -5  -9  -7    3.35    0.29
  -5   9  -7    3.24    0.36
   6  -9   7    3.28    0.27
  -6  -9  -7    3.43    0.33
  -6   9  -7    2.86    0.36
   6 -10  -7   15.03    0.58
   6  10  -7   15.30    0.64
   5 -10  -7    1.61    0.21
   5 -10  -7    1.16    0.19
   5  10  -7    1.70    0.24
   4 -10  -7    2.29    0.24
   4 -10  -7    2.44    0.25
   4  10  -7    2.40    0.27
   3 -10  -7    4.38    0.29
   3 -10  -7    3.96    0.28
   3  10  -7    4.51    0.32
   2 -10  -7    3.03    0.25
   2 -10  -7    3.00    0.25
   2  10  -7    3.71    0.29
   1 -10  -7    4.08    0.28
   1 -10  -7    3.99    0.28
   1  10  -7    4.28    0.30
   0 -10  -7    1.29    0.19
   0  10  -7    1.27    0.20
  -1 -10  -7    9.15    0.43
  -1  10  -7    9.45    0.46
  -2 -10  -7    1.96    0.23
   2 -10   7    2.34    0.22
  -2  10  -7    2.08    0.26
   3 -10   7    4.17    0.27
  -3 -10  -7    3.75    0.29
  -3  10  -7    3.33    0.33
  -4 -10  -7   24.49    0.82
   4 -10   7   24.20    0.76
  -4  10  -7   25.04    0.88
   5 -10   7    5.06    0.32
  -5 -10  -7    5.47    0.36
  -5  10  -7    4.55    0.41
   5 -11  -7    1.63    0.22
   5  11  -7    1.45    0.24
   4 -11  -7   10.87    0.48
   4 -11  -7   10.53    0.45
   4  11  -7   10.04    0.50
   3 -11  -7    0.16    0.13
   3 -11  -7    0.16    0.13
   3  11  -7    0.26    0.14
   2 -11  -7    5.61    0.33
   2 -11  -7    5.92    0.35
   2  11  -7    5.99    0.37
   1 -11  -7   35.59    0.99
   1 -11  -7   35.27    1.01
   1  11  -7   34.24    1.05
   0 -11  -7    7.71    0.40
   0 -11  -7    8.03    0.40
   0  11  -7    7.49    0.42
  -1 -11  -7    6.61    0.37
  -1  11  -7    6.94    0.41
   2 -11   7    5.03    0.29
  -2 -11  -7    5.47    0.35
  -2  11  -7    5.50    0.38
  -3 -11  -7    9.71    0.47
   3 -11   7    9.46    0.42
   4 -11   7    5.94    0.35
  -4 -11  -7    5.97    0.38
  -4  11  -7    6.44    0.45
   4 -12  -7    6.32    0.38
   4  12  -7    7.03    0.42
   3 -12  -7   15.71    0.62
   3  12  -7   16.77    0.67
   2 -12  -7    4.72    0.33
   2 -12  -7    4.65    0.31
   2  12  -7    4.16    0.33
   1 -12  -7    1.89    0.23
   1 -12  -7    2.03    0.25
   1  12  -7    1.67    0.24
   0 -12  -7    6.26    0.37
   0 -12  -7    5.65    0.36
   0  12  -7    6.90    0.41
  -1 -12  -7   15.85    0.60
  -1  12  -7   14.38    0.62
  -2 -12  -7    2.02    0.25
  -2  12  -7    2.30    0.29
   3 -12   7    3.11    0.26
  -3 -12  -7    3.00    0.31
  -3  12  -7    2.69    0.33
   1 -13  -7    2.78    0.28
   1  13  -7    3.36    0.31
   0 -13  -7    0.30    0.13
   9   0  -8    0.86    0.19
   8   0  -8   21.10    0.72
   7   0  -8    0.09    0.11
   6   0  -8    2.92    0.23
  -6   0   8    2.90    0.22
   5   0  -8   30.60    0.81
   5   0  -8   30.15    0.84
   4   0  -8    1.21    0.16
   4   0  -8    0.97    0.13
   3   0  -8    7.31    0.29
   3   0  -8    6.80    0.31
   2   0  -8   16.36    0.48
   2   0  -8   16.36    0.51
   1   0  -8  100.47    2.17
   1   0  -8   98.10    2.14
   0   0  -8  227.98    4.68
   0   0  -8  234.23    4.84
  -1   0  -8   45.12    1.10
  -1   0  -8   44.52    1.07
  -2   0  -8   41.72    1.03
  -2   0  -8   43.95    1.10
  -3   0  -8   28.96    0.78
  -3   0  -8   29.08    0.85
  -4   0  -8    9.22    0.37
  -4   0  -8    9.64    0.45
  -5   0  -8    1.00    0.20
  -5   0  -8    0.88    0.15
  -6   0  -8    0.06    0.14
  -6   0  -8    0.13    0.10
  -7   0  -8    0.14    0.17
  -8   0  -8    1.67    0.28
   9  -1  -8   11.84    0.52
   9   1  -8   12.00    0.53
  -8  -1   8    5.07    0.33
   8  -1  -8    5.22    0.34
   8   1  -8    5.46    0.35
   7  -1  -8   14.05    0.54
  -7  -1   8   14.41    0.53
   7   1  -8   14.21    0.54
  -6  -1   8   30.56    0.86
   6  -1  -8   29.01    0.86
   6   1  -8   31.16    0.87
   5  -1  -8   14.18    0.51
   5   1  -8   14.56    0.49
   5   1  -8   14.68    0.51
   4  -1  -8   13.77    0.49
   4   1  -8   14.59    0.49
   4   1  -8   14.25    0.46
   3  -1  -8   88.00    1.97
   3  -1  -8   90.64    1.95
   3   1  -8   89.28    1.99
   3   1  -8   87.49    1.95
   2  -1  -8   29.42    0.72
   2  -1  -8   27.61    0.77
   2   1  -8   28.14    0.76
   2   1  -8   28.84    0.75
   1  -1  -8    7.82    0.28
   1  -1  -8    7.09    0.31
   1   1  -8    7.00    0.30
   1   1  -8    6.81    0.31
   0  -1  -8   23.07    0.61
   0  -1  -8   21.99    0.64
   0   1  -8   22.72    0.64
   0   1  -8   22.30    0.62
  -1  -1  -8    6.77    0.31
  -1  -1  -8    6.59    0.30
  -1   1  -8    7.47    0.33
  -1   1  -8    7.17    0.30
  -2  -1  -8   13.47    0.47
  -2  -1  -8   12.94    0.45
  -2   1  -8   13.72    0.44
  -2   1  -8   13.25    0.48
  -3  -1  -8    1.47    0.20
  -3  -1  -8    1.76    0.18
  -3   1  -8    1.58    0.21
  -3   1  -8    1.59    0.16
  -4  -1  -8    7.83    0.35
  -4  -1  -8    8.98    0.42
  -4   1  -8    8.38    0.43
  -4   1  -8    8.68    0.35
  -5  -1  -8   38.80    1.10
  -5  -1  -8   39.72    1.01
  -5   1  -8   38.65    0.97
  -5   1  -8   36.33    1.12
  -6  -1  -8    9.91    0.42
  -6  -1  -8    9.95    0.48
  -6   1  -8    9.37    0.50
  -7  -1  -8    8.62    0.41
  -7  -1  -8    8.61    0.47
  -7   1  -8    8.15    0.49
  -8  -1  -8    7.45    0.46
  -8   1  -8    7.58    0.49
   9  -2  -8    7.98    0.42
  -9  -2   8    8.21    0.44
   9   2  -8    7.24    0.42
  -8  -2   8   39.17    1.11
   8  -2  -8   38.96    1.09
   8   2  -8   36.86    1.08
   7  -2  -8    1.82    0.22
  -7  -2   8    1.93    0.22
   7   2  -8    1.76    0.21
  -6  -2   8    6.93    0.34
   6  -2  -8    5.67    0.32
   6   2  -8    5.78    0.32
   5  -2  -8    5.77    0.32
   5   2  -8    6.06    0.31
   5   2  -8    6.25    0.31
   4  -2  -8   19.82    0.63
   4   2  -8   20.40    0.61
   4   2  -8   20.25    0.61
   3  -2  -8   19.24    0.61
   3   2  -8   20.44    0.60
   3   2  -8   20.14    0.59
   2  -2  -8   37.14    0.95
   2   2  -8   36.96    0.94
   2   2  -8   36.83    0.92
   1  -2  -8   21.44    0.61
   1   2  -8   19.99    0.57
   1   2  -8   18.85    0.58
   0  -2  -8   22.44    0.65
   0   2  -8   22.33    0.65
   0   2  -8   22.42    0.61
  -1  -2  -8   10.04    0.39
  -1  -2  -8   10.76    0.37
  -1   2  -8    9.81    0.39
  -1   2  -8    9.84    0.35
  -2  -2  -8   41.87    1.05
  -2  -2  -8   43.04    1.06
  -2   2  -8   41.26    0.99
  -2   2  -8   41.16    1.09
  -3  -2  -8   37.41    0.99
  -3  -2  -8   36.85    0.96
  -3   2  -8   37.70    1.04
  -3   2  -8   36.49    0.90
  -4  -2  -8    8.20    0.39
  -4  -2  -8    8.96    0.38
  -4   2  -8    8.79    0.44
  -4   2  -8    9.00    0.34
  -5  -2  -8   15.95    0.56
  -5  -2  -8   17.04    0.61
  -5   2  -8   16.41    0.66
  -6  -2  -8    3.66    0.30
  -6  -2  -8    3.47    0.26
  -6   2  -8    3.89    0.36
  -7  -2  -8    1.30    0.22
  -7  -2  -8    1.13    0.19
  -7   2  -8    1.14    0.25
   9  -3  -8    3.74    0.30
  -9  -3   8    3.70    0.31
   9   3  -8    3.82    0.31
   8  -3  -8    2.11    0.26
  -8  -3   8    2.59    0.28
   8   3  -8    2.83    0.28
   7  -3  -8   12.98    0.52
  -7  -3   8   13.74    0.55
   7   3  -8   13.46    0.53
   6  -3  -8   34.51    0.97
  -6  -3   8   36.51    1.01
   6   3  -8   35.65    0.97
   6   3  -8   35.05    0.98
   5  -3  -8   19.16    0.63
   5   3  -8   19.87    0.63
   5   3  -8   19.48    0.61
   4  -3  -8    8.72    0.38
   4   3  -8    7.93    0.35
   4   3  -8    8.39    0.35
   3  -3  -8    8.07    0.35
   3   3  -8    7.51    0.33
   3   3  -8    7.51    0.32
   2  -3  -8   11.21    0.42
   2   3  -8   10.95    0.39
   2   3  -8   10.96    0.41
   1  -3  -8   17.05    0.55
   1   3  -8   16.73    0.54
   1   3  -8   17.40    0.50
   0  -3  -8    5.14    0.27
   0   3  -8    5.41    0.28
   0   3  -8    4.96    0.23
  -1  -3  -8    1.83    0.19
  -1   3  -8    2.03    0.21
  -1   3  -8    2.20    0.17
  -2  -3  -8   20.93    0.64
  -2   3  -8   21.27    0.57
  -2   3  -8   19.95    0.66
  -3  -3  -8    9.25    0.39
  -3   3  -8    8.78    0.42
  -4  -3  -8    3.02    0.24
  -4  -3  -8    3.48    0.25
  -4   3  -8    3.22    0.29
  -5  -3  -8   16.76    0.59
  -5  -3  -8   18.09    0.62
  -5   3  -8   16.12    0.67
  -6  -3  -8   14.19    0.54
  -6  -3  -8   13.84    0.55
  -6   3  -8   12.92    0.62
  -7  -3  -8   11.07    0.49
  -7  -3  -8   10.71    0.50
  -7   3  -8   10.81    0.59
   8  -4  -8    4.19    0.30
  -8  -4   8    3.87    0.32
   8   4  -8    4.21    0.31
  -7  -4   8    0.76    0.17
   7  -4  -8    0.61    0.16
   7   4  -8    0.84    0.17
   6  -4  -8    7.50    0.37
  -6  -4   8    7.34    0.38
   6   4  -8    6.78    0.35
   6   4  -8    6.39    0.34
   5  -4  -8    3.68    0.26
   5   4  -8    4.48    0.28
   5   4  -8    3.79    0.25
   4  -4  -8    0.98    0.16
   4   4  -8    0.92    0.15
   4   4  -8    0.94    0.15
   3  -4  -8    1.80    0.20
   3   4  -8    1.62    0.17
   3   4  -8    1.75    0.19
   2  -4  -8   37.19    0.97
   2   4  -8   37.05    0.91
   2   4  -8   36.94    0.98
   1  -4  -8   22.50    0.68
   1   4  -8   24.98    0.63
   1   4  -8   22.62    0.69
   0  -4  -8   17.05    0.57
   0   4  -8   18.58    0.50
   0   4  -8   16.49    0.56
  -1  -4  -8   12.16    0.45
  -1   4  -8   11.88    0.37
  -1   4  -8   11.41    0.45
  -2  -4  -8    7.58    0.36
  -2   4  -8    8.45    0.40
  -3  -4  -8    5.26    0.30
  -3   4  -8    5.40    0.35
  -4  -4  -8    0.68    0.15
  -4   4  -8    0.74    0.19
  -5  -4  -8    0.83    0.17
  -5   4  -8    0.52    0.20
  -6  -4  -8    2.15    0.24
  -6   4  -8    2.17    0.31
  -7  -4  -8    0.91    0.18
  -7   4  -8    0.76    0.24
   8  -5  -8    3.90    0.30
  -8  -5   8    3.89    0.32
   8   5  -8    3.65    0.29
  -7  -5   8   10.96    0.50
   7  -5  -8   10.39    0.47
   7   5  -8   10.28    0.46
   7   5  -8   10.39    0.47
   6  -5  -8    6.33    0.35
   6   5  -8    6.18    0.35
   6   5  -8    5.68    0.31
   5  -5  -8    5.43    0.31
   5   5  -8    5.73    0.30
   5   5  -8    5.08    0.31
   4  -5  -8   15.57    0.48
   4  -5  -8   14.10    0.52
   4   5  -8   14.89    0.49
   4   5  -8   14.10    0.52
   3  -5  -8   28.71    0.82
   3   5  -8   28.33    0.76
   3   5  -8   29.29    0.84
   2  -5  -8    6.71    0.34
   2   5  -8    7.50    0.35
   2   5  -8    7.34    0.29
   1  -5  -8   28.21    0.82
   1   5  -8   31.48    0.75
   1   5  -8   29.27    0.84
   0  -5  -8    1.53    0.18
   0  -5   8    1.56    0.14
   0   5  -8    1.69    0.19
   1  -5   8    1.01    0.13
  -1  -5  -8    1.01    0.16
  -1   5  -8    0.95    0.16
  -2  -5  -8    8.75    0.39
  -2   5  -8    8.40    0.40
  -3  -5  -8    1.27    0.18
  -3   5  -8    1.45    0.22
  -4  -5  -8   17.54    0.61
  -4   5  -8   16.51    0.66
  -5  -5  -8    3.46    0.28
  -5   5  -8    4.53    0.38
  -6  -5  -8    9.29    0.45
   6  -5   8   10.02    0.45
  -6   5  -8    9.30    0.55
   7  -5   8    5.63    0.35
  -7  -5  -8    6.40    0.39
  -7   5  -8    5.19    0.43
  -8  -6   8    8.93    0.48
   8  -6  -8    9.70    0.47
   8   6  -8    9.70    0.48
   8   6  -8    9.58    0.46
  -7  -6   8    3.33    0.31
   7  -6  -8    3.48    0.29
   7   6  -8    3.80    0.30
   7   6  -8    3.14    0.26
   6  -6  -8    3.74    0.28
   6   6  -8    3.75    0.29
   6   6  -8    3.38    0.25
   5  -6  -8   13.16    0.51
   5   6  -8   12.34    0.46
   5   6  -8   11.94    0.51
   4  -6  -8    8.09    0.34
   4  -6  -8    8.95    0.40
   4   6  -8    8.23    0.34
   4   6  -8    7.84    0.39
   3  -6  -8    3.25    0.22
   3  -6  -8    3.15    0.24
   3   6  -8    3.48    0.26
   3   6  -8    3.40    0.21
   2  -6  -8    5.11    0.29
   2   6  -8    5.37    0.30
   2   6  -8    4.49    0.23
   1  -6  -8    3.00    0.23
   1   6  -8    3.07    0.23
   0  -6  -8    5.57    0.31
   0   6  -8    5.77    0.31
   1  -6   8   21.49    0.59
  -1  -6  -8   22.41    0.69
  -1   6  -8   21.33    0.70
  -2  -6  -8   28.52    0.83
   2  -6   8   28.66    0.75
  -2   6  -8   26.20    0.84
  -3  -6  -8    8.35    0.40
   3  -6   8    7.06    0.33
  -3   6  -8    7.52    0.41
  -4  -6  -8   27.89    0.85
   4  -6   8   27.34    0.80
  -4   6  -8   28.70    0.92
   5  -6   8   10.06    0.44
  -5  -6  -8    9.55    0.46
  -5   6  -8    9.20    0.51
  -6  -6  -8    2.03    0.25
   6  -6   8    2.21    0.25
  -6   6  -8    2.11    0.33
   7  -7  -8   12.41    0.52
   7   7  -8   12.14    0.56
   7   7  -8   12.79    0.51
   6  -7  -8    3.62    0.28
   6   7  -8    2.93    0.24
   6   7  -8    3.15    0.28
   5  -7  -8    2.34    0.24
   5   7  -8    2.33    0.20
   5   7  -8    2.42    0.26
   4  -7  -8   17.26    0.56
   4  -7  -8   15.99    0.59
   4   7  -8   18.02    0.55
   4   7  -8   18.29    0.64
   3  -7  -8    2.60    0.22
   3  -7  -8    2.82    0.22
   3   7  -8    2.46    0.25
   2  -7  -8    7.90    0.37
   2   7  -8    7.31    0.37
   1  -7  -8    4.58    0.28
   1   7  -8    4.13    0.27
   0  -7  -8    3.80    0.26
   0   7  -8    3.82    0.27
   1  -7   8    4.60    0.24
  -1  -7  -8    4.56    0.30
  -1   7  -8    4.94    0.31
   2  -7   8    5.33    0.27
  -2  -7  -8    5.36    0.33
  -2   7  -8    6.01    0.36
   3  -7   8   21.70    0.66
  -3  -7  -8   22.70    0.73
  -3   7  -8   21.28    0.75
   4  -7   8    7.42    0.36
  -4  -7  -8    6.56    0.38
  -4   7  -8    7.12    0.44
  -5  -7  -8    5.25    0.35
   5  -7   8    4.78    0.30
  -5   7  -8    5.24    0.40
  -6  -7  -8    6.79    0.40
   6  -7   8    6.57    0.37
  -6   7  -8    5.62    0.45
   7  -8  -8    3.92    0.30
   7   8  -8    3.33    0.27
   7   8  -8    3.35    0.30
   6  -8  -8   13.12    0.53
   6   8  -8   12.80    0.56
   6   8  -8   12.20    0.48
   5  -8  -8    0.81    0.17
   5  -8  -8    0.73    0.15
   5   8  -8    1.08    0.19
   4  -8  -8    6.06    0.32
   4  -8  -8    5.83    0.34
   4   8  -8    5.52    0.35
   3  -8  -8    0.25    0.11
   3  -8  -8    0.07    0.12
   3   8  -8    0.08    0.12
   2  -8  -8   20.65    0.64
   2  -8  -8   20.21    0.67
   2   8  -8   19.23    0.68
   1  -8  -8   19.26    0.65
   1   8  -8   18.76    0.66
   0  -8  -8   20.94    0.67
   0   8  -8   18.90    0.67
  -1  -8  -8   30.37    0.89
  -1   8  -8   29.73    0.91
  -2  -8  -8    5.43    0.33
   2  -8   8    4.77    0.26
  -2   8  -8    4.67    0.33
   3  -8   8    1.03    0.16
  -3  -8  -8    0.85    0.18
  -3   8  -8    0.76    0.20
  -4  -8  -8    5.55    0.36
   4  -8   8    5.94    0.33
  -4   8  -8    6.50    0.43
   5  -8   8    3.09    0.26
  -5  -8  -8    2.72    0.28
  -5   8  -8    2.26    0.32
   6  -9  -8    9.72    0.46
   6   9  -8    9.32    0.49
   5  -9  -8    4.04    0.30
   5  -9  -8    4.20    0.28
   5   9  -8    3.69    0.30
   4  -9  -8    4.25    0.28
   4  -9  -8    3.90    0.29
   4   9  -8    4.97    0.33
   3  -9  -8    3.96    0.27
   3  -9  -8    3.99    0.28
   3   9  -8    4.29    0.32
   2  -9  -8    7.12    0.36
   2  -9  -8    6.41    0.36
   2   9  -8    6.85    0.39
   1  -9  -8   16.60    0.60
   1   9  -8   16.38    0.62
   0  -9  -8    1.00    0.18
   0   9  -8    1.23    0.19
  -1  -9  -8    1.46    0.20
  -1   9  -8    1.41    0.22
  -2  -9  -8    0.28    0.14
   2  -9   8    0.27    0.10
  -2   9  -8    0.32    0.16
   3  -9   8    9.52    0.41
  -3  -9  -8    9.27    0.46
  -3   9  -8    9.50    0.50
   4  -9   8    1.91    0.22
  -4  -9  -8    1.81    0.24
  -4   9  -8    1.94    0.29
  -5  -9  -8    0.57    0.18
   5  -9   8    0.73    0.16
  -5   9  -8    0.43    0.21
   5 -10  -8    1.07    0.19
   5 -10  -8    1.24    0.20
   5  10  -8    1.10    0.20
   4 -10  -8    4.83    0.32
   4 -10  -8    5.04    0.32
   4  10  -8    5.58    0.37
   3 -10  -8    4.29    0.30
   3 -10  -8    4.47    0.30
   3  10  -8    4.23    0.32
   2 -10  -8   10.23    0.46
   2 -10  -8   11.19    0.47
   2  10  -8   10.78    0.50
   1 -10  -8    0.84    0.17
   1  10  -8    0.81    0.18
   0 -10  -8    1.45    0.21
   0  10  -8    1.52    0.23
  -1 -10  -8    1.10    0.19
  -1  10  -8    0.94    0.20
  -2 -10  -8    0.65    0.16
  -2  10  -8    0.20    0.16
  -3 -10  -8    8.94    0.46
   3 -10   8    7.68    0.38
  -3  10  -8    9.04    0.50
  -4 -10  -8   12.35    0.56
   4 -10   8   12.02    0.49
  -4  10  -8   11.60    0.59
   4 -11  -8    3.27    0.28
   4 -11  -8    2.82    0.28
   4  11  -8    3.31    0.33
   3 -11  -8   10.88    0.48
   3 -11  -8   11.13    0.49
   3  11  -8   11.02    0.53
   2 -11  -8    2.13    0.24
   2 -11  -8    2.55    0.27
   2  11  -8    2.20    0.27
   1 -11  -8    0.69    0.17
   1  11  -8    0.71    0.17
   0 -11  -8    0.71    0.17
   0  11  -8    0.68    0.19
  -1 -11  -8    7.49    0.41
  -1  11  -8    8.19    0.45
  -2 -11  -8    1.21    0.21
  -2  11  -8    1.16    0.24
  -3 -11  -8    1.05    0.20
  -3  11  -8    1.24    0.25
   1 -12  -8    3.76    0.30
   1  12  -8    3.44    0.32
   0 -12  -8    2.19    0.26
   0  12  -8    1.97    0.27
   8   0  -9    1.97    0.26
   7   0  -9    8.20    0.42
   6   0  -9   11.21    0.47
   5   0  -9    0.07    0.09
   4   0  -9    3.90    0.26
   3   0  -9    0.35    0.12
   2   0  -9   16.65    0.50
   2   0  -9   16.26    0.54
   1   0  -9    0.72    0.12
   1   0  -9    0.44    0.12
   0   0  -9   11.23    0.42
   0   0  -9   12.14    0.42
  -1   0  -9    2.76    0.21
  -1   0  -9    2.56    0.23
  -2   0  -9   12.62    0.48
  -2   0  -9   12.22    0.44
  -3   0  -9   26.66    0.76
  -3   0  -9   27.48    0.84
  -4   0  -9    0.28    0.16
  -4   0  -9    0.64    0.13
  -5   0  -9    0.46    0.13
  -5   0  -9    0.32    0.18
  -6   0  -9   10.67    0.53
  -7   0  -9    1.13    0.24
   8  -1  -9    5.88    0.37
   8   1  -9    5.33    0.35
   7  -1  -9    2.86    0.25
   7   1  -9    2.65    0.27
   6  -1  -9    0.37    0.14
   6   1  -9    0.54    0.15
   6   1  -9    0.50    0.12
   5  -1  -9   11.08    0.46
   5   1  -9   10.74    0.44
   5   1  -9   11.88    0.43
   4  -1  -9    8.84    0.39
   4   1  -9    8.56    0.38
   4   1  -9    8.44    0.35
   3  -1  -9   10.37    0.42
   3   1  -9   10.92    0.42
   3   1  -9   10.36    0.39
   2  -1  -9    8.17    0.36
   2   1  -9    9.21    0.35
   2   1  -9    8.39    0.35
   1  -1  -9    1.17    0.16
   1   1  -9    1.09    0.15
   1   1  -9    1.04    0.14
   0  -1  -9    3.44    0.24
   0   1  -9    3.75    0.24
   0   1  -9    3.65    0.23
  -1  -1  -9   16.19    0.54
  -1  -1  -9   16.70    0.55
  -1   1  -9   17.99    0.57
  -1   1  -9   17.31    0.53
  -2  -1  -9    0.41    0.15
  -2  -1  -9    0.51    0.13
  -2   1  -9    0.50    0.12
  -2   1  -9    0.38    0.15
  -3  -1  -9    0.55    0.13
  -3  -1  -9    0.71    0.17
  -3   1  -9    0.50    0.17
  -3   1  -9    0.78    0.14
  -4  -1  -9    0.89    0.19
  -4  -1  -9    1.06    0.17
  -4   1  -9    0.98    0.21
  -4   1  -9    0.91    0.15
  -5  -1  -9   10.36    0.50
  -5  -1  -9   11.05    0.45
  -5   1  -9   10.01    0.52
  -6  -1  -9    7.47    0.37
  -6  -1  -9    7.07    0.42
  -6   1  -9    6.22    0.44
  -7  -1  -9    2.44    0.31
  -7   1  -9    3.22    0.36
   8  -2  -9    2.90    0.29
  -8  -2   9    3.05    0.27
   8   2  -9    3.01    0.30
   7  -2  -9   10.25    0.47
  -7  -2   9   10.07    0.46
   7   2  -9   10.06    0.46
   7   2  -9   10.12    0.44
   6  -2  -9   12.69    0.52
   6   2  -9   13.66    0.52
   6   2  -9   13.49    0.50
   5  -2  -9   11.85    0.48
   5   2  -9   12.96    0.47
   5   2  -9   11.62    0.47
   4  -2  -9    0.98    0.16
   4   2  -9    1.12    0.16
   4   2  -9    0.83    0.14
   3  -2  -9   10.49    0.43
   3   2  -9   10.77    0.41
   3   2  -9   10.67    0.41
   2  -2  -9    0.27    0.12
   2   2  -9    0.40    0.12
   2   2  -9    0.18    0.09
   1  -2  -9    3.42    0.24
   1   2  -9    3.01    0.22
   1   2  -9    3.82    0.23
   0  -2  -9   29.59    0.82
   0   2  -9   30.60    0.78
   0   2  -9   27.78    0.81
  -1  -2  -9    2.00    0.20
  -1   2  -9    1.80    0.20
  -1   2  -9    2.03    0.19
  -2  -2  -9    6.27    0.32
  -2   2  -9    6.35    0.29
  -2   2  -9    5.98    0.34
  -3  -2  -9   10.00    0.42
  -3   2  -9    9.86    0.47
  -3   2  -9   10.50    0.39
  -4  -2  -9    6.48    0.34
  -4   2  -9    6.12    0.39
  -5  -2  -9   22.18    0.71
  -5   2  -9   22.25    0.82
  -6  -2  -9   18.57    0.65
  -6   2  -9   18.36    0.76
  -7  -2  -9    1.66    0.23
  -7   2  -9    1.17    0.26
   8  -3  -9    3.71    0.30
  -8  -3   9    3.32    0.29
   8   3  -9    3.29    0.28
   8   3  -9    3.16    0.28
   7  -3  -9    3.84    0.30
   7   3  -9    3.95    0.29
   7   3  -9    3.60    0.28
   6  -3  -9    0.26    0.13
   6   3  -9    0.39    0.13
   6   3  -9    0.54    0.15
   5  -3  -9   18.24    0.64
   5   3  -9   18.66    0.62
   5   3  -9   19.54    0.63
   4  -3  -9    0.14    0.11
   4   3  -9    0.38    0.12
   4   3  -9    0.08    0.09
   3  -3  -9   14.16    0.52
   3   3  -9   13.66    0.47
   3   3  -9   13.31    0.49
   2  -3  -9    6.61    0.34
   2   3  -9    6.30    0.31
   2   3  -9    6.48    0.30
   1  -3  -9   13.42    0.50
   1   3  -9   14.39    0.46
   1   3  -9   13.63    0.49
   0  -3  -9   28.73    0.82
   0   3  -9   29.95    0.77
   0   3  -9   28.64    0.82
  -1  -3  -9    4.91    0.28
  -1   3  -9    4.78    0.25
  -1   3  -9    4.52    0.29
  -2  -3  -9   11.92    0.46
  -2   3  -9   12.55    0.50
  -3  -3  -9    7.12    0.36
  -3   3  -9    7.40    0.40
  -4  -3  -9    8.30    0.39
  -4   3  -9    7.46    0.45
  -5  -3  -9    6.14    0.35
  -5   3  -9    5.41    0.43
  -6  -3  -9    1.45    0.21
  -6   3  -9    0.83    0.25
   8  -4  -9    1.17    0.21
  -8  -4   9    1.13    0.21
   8   4  -9    1.22    0.21
   8   4  -9    1.23    0.21
   7  -4  -9    1.50    0.23
   7   4  -9    1.44    0.21
   7   4  -9    1.97    0.24
   6  -4  -9    8.77    0.42
   6   4  -9    8.18    0.40
   6   4  -9    7.41    0.38
   5  -4  -9    1.41    0.20
   5   4  -9    1.27    0.18
   5   4  -9    1.50    0.19
   4  -4  -9    0.29    0.12
   4   4  -9    0.45    0.13
   4   4  -9    0.53    0.13
   3  -4  -9   24.59    0.76
   3   4  -9   26.58    0.72
   3   4  -9   25.04    0.76
   2  -4  -9    8.10    0.38
   2   4  -9    8.34    0.37
   2   4  -9    9.02    0.35
   1  -4  -9    2.61    0.24
   1   4  -9    2.43    0.21
   1   4  -9    2.26    0.19
   0  -4  -9    9.59    0.42
   0   4  -9   10.07    0.43
   0   4  -9   10.46    0.37
  -1  -4  -9    7.21    0.36
  -1   4  -9    7.42    0.37
  -2  -4  -9   40.15    1.05
  -2   4  -9   37.38    1.07
  -3  -4  -9   20.77    0.67
  -3   4  -9   19.02    0.70
  -4  -4  -9   20.17    0.68
  -4   4  -9   20.03    0.76
  -5  -4  -9   30.74    0.91
  -5   4  -9   29.02    1.00
  -6  -4  -9    6.68    0.38
  -6   4  -9    6.63    0.48
   7  -5  -9    0.61    0.18
   7   5  -9    0.46    0.15
   7   5  -9    0.58    0.15
   6  -5  -9    2.94    0.28
   6   5  -9    2.82    0.25
   6   5  -9    2.82    0.24
   5  -5  -9    5.91    0.35
   5   5  -9    5.23    0.30
   5   5  -9    5.44    0.33
   4  -5  -9   15.43    0.58
   4   5  -9   15.81    0.53
   4   5  -9   16.48    0.59
   3  -5  -9    3.00    0.25
   3   5  -9    3.19    0.25
   3   5  -9    3.49    0.23
   2  -5  -9    0.11    0.10
   2   5  -9    0.17    0.10
   2   5  -9    0.16    0.11
   1  -5  -9   13.94    0.52
   1   5  -9   13.69    0.52
   0  -5  -9   10.55    0.44
   0   5  -9   10.25    0.45
  -1  -5  -9    7.26    0.36
  -1   5  -9    7.58    0.39
  -2  -5  -9   10.97    0.47
  -2   5  -9   11.45    0.50
  -3  -5  -9    2.31    0.25
  -3   5  -9    2.57    0.28
  -4  -5  -9    3.04    0.26
  -4   5  -9    3.74    0.33
  -5  -5  -9   18.00    0.65
  -5   5  -9   16.97    0.74
   6  -5   9    3.53    0.28
  -6  -5  -9    2.88    0.30
  -6   5  -9    3.00    0.37
   7  -6  -9    0.49    0.15
   7   6  -9    0.57    0.15
   7   6  -9    0.40    0.15
   6  -6  -9   14.33    0.57
   6   6  -9   14.36    0.58
   6   6  -9   14.81    0.55
   5  -6  -9    6.39    0.37
   5   6  -9    5.88    0.36
   5   6  -9    6.09    0.32
   4  -6  -9    5.10    0.32
   4   6  -9    4.88    0.31
   4   6  -9    5.41    0.29
   3  -6  -9    1.73    0.22
   3   6  -9    2.18    0.20
   3   6  -9    2.16    0.24
   2  -6  -9    4.82    0.30
   2   6  -9    5.25    0.31
   1  -6  -9   18.73    0.65
   1   6  -9   20.04    0.67
   0  -6  -9   10.39    0.46
   0   6  -9   11.04    0.47
  -1  -6  -9    5.77    0.33
  -1   6  -9    5.13    0.32
   2  -6   9    2.75    0.20
  -2  -6  -9    2.59    0.26
  -2   6  -9    3.16    0.29
   3  -6   9    3.48    0.24
  -3  -6  -9    3.53    0.29
  -3   6  -9    3.65    0.33
  -4  -6  -9    3.24    0.27
   4  -6   9    2.87    0.24
  -4   6  -9    3.08    0.33
   5  -6   9    3.62    0.28
  -5  -6  -9    4.00    0.32
  -5   6  -9    3.93    0.39
   6  -7  -9    6.29    0.37
   6   7  -9    6.52    0.39
   6   7  -9    5.96    0.33
   5  -7  -9    1.56    0.23
   5   7  -9    1.60    0.23
   5   7  -9    1.82    0.21
   4  -7  -9    8.16    0.41
   4   7  -9    7.70    0.41
   3  -7  -9    6.24    0.36
   3   7  -9    6.19    0.35
   2  -7  -9    1.68    0.21
   2   7  -9    2.01    0.23
   1  -7  -9   21.95    0.73
   1   7  -9   22.15    0.74
   0  -7  -9    9.34    0.43
   0   7  -9    8.26    0.42
  -1  -7  -9   15.76    0.59
  -1   7  -9   14.90    0.59
   2  -7   9   12.05    0.44
  -2  -7  -9   11.79    0.51
  -2   7  -9   12.11    0.54
  -3  -7  -9    0.87    0.18
   3  -7   9    0.62    0.14
  -3   7  -9    0.54    0.20
  -4  -7  -9    2.71    0.29
   4  -7   9    2.35    0.24
  -4   7  -9    2.83    0.33
   5  -7   9    1.77    0.22
  -5  -7  -9    2.47    0.28
  -5   7  -9    1.85    0.31
   6  -8  -9    0.97    0.19
   6   8  -9    1.13    0.21
   5  -8  -9    0.79    0.18
   5   8  -9    0.51    0.16
   4  -8  -9    3.18    0.27
   4  -8  -9    2.89    0.24
   4   8  -9    3.34    0.28
   3  -8  -9    1.62    0.21
   3   8  -9    1.99    0.25
   2  -8  -9    2.64    0.27
   2   8  -9    3.08    0.28
   1  -8  -9   20.38    0.71
   1   8  -9   22.23    0.75
   0  -8  -9    4.52    0.31
   0   8  -9    4.61    0.33
  -1  -8  -9    1.89    0.23
  -1   8  -9    1.49    0.23
  -2  -8  -9    5.42    0.35
  -2   8  -9    5.84    0.38
   3  -8   9    5.45    0.31
  -3  -8  -9    5.15    0.34
  -3   8  -9    5.62    0.40
  -4  -8  -9    9.11    0.47
   4  -8   9    9.40    0.43
  -4   8  -9    9.82    0.54
   5  -9  -9    1.02    0.20
   5   9  -9    1.41    0.23
   4  -9  -9    0.90    0.19
   4  -9  -9    0.98    0.17
   4   9  -9    1.26    0.21
   3  -9  -9    1.47    0.20
   3  -9  -9    1.81    0.24
   3   9  -9    1.46    0.22
   2  -9  -9    4.22    0.31
   2   9  -9    4.25    0.32
   1  -9  -9    6.36    0.37
   1   9  -9    6.10    0.37
   0  -9  -9    5.65    0.35
   0   9  -9    5.25    0.36
  -1  -9  -9    8.89    0.44
  -1   9  -9    7.77    0.44
  -2  -9  -9    1.18    0.21
  -2   9  -9    1.21    0.22
  -3  -9  -9    2.86    0.30
   3  -9   9    2.21    0.23
  -3   9  -9    2.07    0.29
   4 -10  -9    7.40    0.41
   3 -10  -9    5.59    0.35
   3 -10  -9    5.12    0.33
   3  10  -9    4.81    0.36
   2 -10  -9    3.05    0.30
   2  10  -9    2.92    0.30
   1 -10  -9    5.83    0.36
   1  10  -9    5.43    0.36
   0 -10  -9    0.25    0.14
   0  10  -9    0.38    0.16
  -1 -10  -9    0.39    0.16
  -1  10  -9    0.37    0.16
  -2 -10  -9    1.13    0.21
  -2  10  -9    1.50    0.25
   1 -11  -9    0.77    0.18
   0 -11  -9    0.49    0.16
   7   0 -10    0.13    0.14
   6   0 -10   13.03    0.55
   5   0 -10    2.17    0.24
   4   0 -10    2.89    0.25
   3   0 -10   20.60    0.67
   2   0 -10    0.14    0.12
   1   0 -10    0.94    0.16
   0   0 -10    1.56    0.19
  -1   0 -10    2.04    0.21
  -2   0 -10   28.22    0.80
  -3   0 -10    0.15    0.16
  -3   0 -10    0.11    0.10
  -4   0 -10    1.01    0.22
  -4   0 -10    1.07    0.18
  -5   0 -10    1.49    0.26
  -6   0 -10   12.99    0.61
   7  -1 -10    1.55    0.23
   7   1 -10    1.59    0.23
   6  -1 -10    5.26    0.34
   6   1 -10    5.07    0.33
   5  -1 -10   15.52    0.59
   5   1 -10   17.72    0.61
   4  -1 -10    4.29    0.29
   4   1 -10    3.97    0.27
   3  -1 -10    1.34    0.19
   3   1 -10    1.42    0.19
   2  -1 -10    0.59    0.15
   2   1 -10    0.63    0.15
   1  -1 -10   40.03    1.06
   1   1 -10   41.20    1.05
   1   1 -10   39.57    1.04
   0  -1 -10   14.12    0.52
   0   1 -10   14.86    0.51
   0   1 -10   14.80    0.52
  -1  -1 -10    2.64    0.22
  -1   1 -10    3.00    0.22
  -1   1 -10    2.50    0.25
  -2  -1 -10    7.49    0.37
  -2   1 -10    9.02    0.42
  -2   1 -10    8.27    0.36
  -3  -1 -10    2.41    0.24
  -3   1 -10    2.37    0.22
  -3   1 -10    2.40    0.28
  -4  -1 -10    3.34    0.27
  -4   1 -10    3.22    0.34
  -5  -1 -10    9.36    0.43
  -5   1 -10    8.95    0.51
  -6   1 -10    0.72    0.22
   7  -2 -10    5.61    0.36
   7   2 -10    5.61    0.36
   6  -2 -10   19.87    0.70
   6   2 -10   18.89    0.68
   5  -2 -10    0.29    0.15
   5   2 -10    0.57    0.15
   4  -2 -10    4.58    0.31
   4   2 -10    4.95    0.28
   4   2 -10    4.53    0.29
   3  -2 -10    1.66    0.21
   3   2 -10    1.85    0.19
   3   2 -10    1.45    0.19
   2  -2 -10    4.10    0.27
   2   2 -10    4.15    0.26
   2   2 -10    3.72    0.26
   1  -2 -10    1.18    0.18
   1   2 -10    1.14    0.16
   1   2 -10    1.18    0.17
   0  -2 -10   17.49    0.60
   0   2 -10   16.73    0.55
   0   2 -10   17.16    0.58
  -1  -2 -10    0.56    0.14
  -1   2 -10    0.51    0.12
  -1   2 -10    0.38    0.14
  -2  -2 -10    7.63    0.38
  -2   2 -10    8.59    0.35
  -2   2 -10    7.56    0.41
  -3  -2 -10    3.35    0.26
  -3   2 -10    3.58    0.32
  -4  -2 -10   13.93    0.54
  -4   2 -10   13.59    0.62
  -5  -2 -10    4.46    0.31
  -5   2 -10    4.37    0.39
   7  -3 -10    4.97    0.35
   7   3 -10    5.43    0.35
   6  -3 -10    4.34    0.32
   6   3 -10    4.06    0.29
   6   3 -10    4.48    0.31
   5  -3 -10    5.28    0.34
   5   3 -10    5.03    0.31
   5   3 -10    5.26    0.31
   4  -3 -10    4.55    0.30
   4   3 -10    4.67    0.29
   4   3 -10    4.15    0.28
   3  -3 -10    1.89    0.22
   3   3 -10    2.22    0.22
   3   3 -10    2.20    0.22
   2   3 -10   18.24    0.61
   2   3 -10   18.46    0.59
   1  -3 -10    3.46    0.26
   1   3 -10    3.74    0.26
   1   3 -10    3.44    0.24
   0  -3 -10    4.75    0.30
   0   3 -10    5.03    0.30
   0   3 -10    5.11    0.28
  -1  -3 -10    4.06    0.27
  -1   3 -10    4.19    0.30
  -2  -3 -10   11.34    0.47
  -2   3 -10   11.12    0.50
  -3  -3 -10    3.17    0.25
  -3   3 -10    2.71    0.30
  -4  -3 -10    2.38    0.26
  -4   3 -10    2.80    0.33
  -5  -3 -10   17.55    0.64
  -5   3 -10   17.36    0.75
   7  -4 -10    2.60    0.29
   7   4 -10    2.68    0.28
   7   4 -10    2.85    0.26
   6  -4 -10    5.73    0.37
   6   4 -10    5.54    0.35
   6   4 -10    5.61    0.34
   5  -4 -10    5.87    0.36
   5   4 -10    6.28    0.34
   5   4 -10    5.65    0.34
   4  -4 -10   28.47    0.88
   4   4 -10   27.64    0.81
   4   4 -10   29.06    0.86
   3  -4 -10   14.79    0.57
   3   4 -10   15.38    0.53
   3   4 -10   15.04    0.55
   2  -4 -10    8.11    0.40
   2   4 -10    8.86    0.37
   2   4 -10    7.77    0.38
   1  -4 -10    3.48    0.27
   1   4 -10    3.73    0.27
   1   4 -10    3.96    0.24
   0  -4 -10    9.49    0.43
   0   4 -10    9.42    0.43
  -1  -4 -10    4.97    0.31
  -1   4 -10    5.71    0.34
  -2  -4 -10    6.47    0.37
  -2   4 -10    6.86    0.40
  -3  -4 -10    3.54    0.28
  -3   4 -10    3.65    0.35
  -4  -4 -10    2.88    0.29
  -4   4 -10    2.18    0.31
  -5  -4 -10    0.07    0.12
  -5   4 -10   -0.25    0.19
   6  -5 -10   17.06    0.66
   6   5 -10   16.54    0.61
   6   5 -10   16.81    0.64
   5  -5 -10    4.11    0.32
   5   5 -10    3.83    0.30
   5   5 -10    4.75    0.30
   4  -5 -10    0.04    0.12
   4   5 -10   -0.07    0.10
   4   5 -10    0.01    0.11
   3  -5 -10    5.39    0.34
   3   5 -10    5.38    0.32
   3   5 -10    4.77    0.28
   2  -5 -10    7.74    0.39
   2   5 -10    7.22    0.38
   1  -5 -10   14.02    0.55
   1   5 -10   13.31    0.53
   0  -5 -10    3.56    0.28
   0   5 -10    3.73    0.28
  -1  -5 -10    2.85    0.27
  -1   5 -10    3.07    0.28
  -2  -5 -10    4.62    0.31
  -2   5 -10    4.81    0.35
  -3  -5 -10    7.13    0.40
  -3   5 -10    7.43    0.44
  -4  -5 -10    1.50    0.23
  -4   5 -10    1.22    0.26
  -5  -5 -10    2.33    0.28
  -5   5 -10    2.60    0.36
   6  -6 -10    1.20    0.22
   6   6 -10    1.18    0.21
   6   6 -10    1.17    0.19
   5  -6 -10    3.11    0.31
   5   6 -10    2.67    0.25
   5   6 -10    3.05    0.27
   4  -6 -10    0.59    0.17
   4   6 -10    0.64    0.16
   3  -6 -10    8.19    0.42
   3   6 -10    8.51    0.42
   2  -6 -10    1.67    0.22
   2   6 -10    1.92    0.23
   1  -6 -10    7.87    0.41
   1   6 -10    8.30    0.41
   0  -6 -10   12.85    0.54
   0   6 -10   12.78    0.53
  -1  -6 -10    4.11    0.30
  -1   6 -10    4.22    0.32
  -2  -6 -10    8.68    0.43
  -2   6 -10    8.23    0.45
   3  -6  10    7.38    0.36
  -3  -6 -10    7.18    0.40
  -3   6 -10    7.71    0.47
  -4  -6 -10    0.35    0.15
   4  -6  10    0.33    0.13
  -4   6 -10    0.47    0.22
   5  -7 -10    1.62    0.24
   5   7 -10    1.63    0.23
   4  -7 -10   -0.08    0.12
   4   7 -10    0.00    0.11
   3  -7 -10    1.99    0.25
   3   7 -10    1.63    0.22
   2  -7 -10    5.69    0.36
   2   7 -10    5.26    0.34
   1  -7 -10    2.76    0.28
   1   7 -10    2.79    0.25
   0  -7 -10    6.28    0.36
   0   7 -10    5.61    0.37
  -1  -7 -10    1.97    0.24
  -1   7 -10    1.91    0.26
  -2  -7 -10    4.72    0.34
  -2   7 -10    4.81    0.37
  -3  -7 -10    7.79    0.43
  -3   7 -10    8.36    0.49
   4  -8 -10    8.25    0.44
   4   8 -10    8.54    0.46
   3  -8 -10    1.77    0.24
   3   8 -10    2.10    0.26
   2  -8 -10    2.95    0.30
   2   8 -10    2.45    0.28
   1  -8 -10    5.54    0.36
   1   8 -10    6.16    0.38
   0  -8 -10   12.53    0.54
   0   8 -10   11.74    0.54
  -1  -8 -10    6.10    0.38
  -1   8 -10    6.24    0.39
  -2  -8 -10    0.88    0.19
  -2   8 -10    0.34    0.19
  -3  -8 -10    1.37    0.23
  -3   8 -10    0.91    0.25
   3  -9 -10    3.03    0.31
   3   9 -10    2.84    0.31
   2  -9 -10    1.25    0.22
   2   9 -10    0.89    0.20
   1  -9 -10    0.16    0.14
   1   9 -10    0.42    0.16
   0  -9 -10    1.63    0.23
   0   9 -10    1.90    0.25
  -1  -9 -10    5.93    0.38
  -1   9 -10    6.74    0.41
   6   0 -11    0.45    0.17
   5   0 -11    1.18    0.21
   4   0 -11    7.52    0.40
   3   0 -11    9.30    0.44
   2   0 -11   25.26    0.78
   1   0 -11   26.25    0.80
   0   0 -11   30.50    0.88
  -1   0 -11    4.93    0.31
  -2   0 -11    0.10    0.12
  -3   0 -11    4.56    0.31
   6  -1 -11    6.89    0.41
   6   1 -11    7.63    0.42
   5  -1 -11   22.71    0.77
   5   1 -11   22.82    0.76
   4  -1 -11    0.85    0.18
   4   1 -11    0.97    0.18
   3  -1 -11    1.11    0.19
   3   1 -11    1.18    0.20
   2  -1 -11    0.91    0.18
   2   1 -11    0.47    0.14
   1  -1 -11    4.40    0.30
   1   1 -11    4.10    0.29
   0  -1 -11    6.23    0.34
   0   1 -11    5.89    0.33
  -1  -1 -11    0.12    0.12
  -1   1 -11    0.16    0.12
  -2  -1 -11   23.24    0.75
  -2   1 -11   25.49    0.75
  -3  -1 -11    9.14    0.43
  -4  -1 -11    6.22    0.36
   6  -2 -11    7.34    0.43
   6   2 -11    7.81    0.42
   5  -2 -11    4.06    0.32
   5   2 -11    4.38    0.32
   4  -2 -11   20.75    0.72
   4   2 -11   19.99    0.68
   3  -2 -11   13.00    0.53
   3   2 -11   12.32    0.50
   2  -2 -11    1.52    0.22
   2   2 -11    1.81    0.22
   1  -2 -11    2.40    0.25
   1   2 -11    2.03    0.22
   0  -2 -11    8.31    0.41
   0   2 -11    9.13    0.42
   0   2 -11    8.95    0.40
  -1  -2 -11    3.88    0.29
  -1   2 -11    4.36    0.32
  -2  -2 -11    4.26    0.30
  -2   2 -11    4.55    0.35
  -3  -2 -11    2.72    0.27
  -3   2 -11    2.81    0.33
  -4  -2 -11    1.14    0.20
  -4   2 -11    1.20    0.27
   6  -3 -11    5.17    0.35
   6   3 -11    4.65    0.33
   5  -3 -11    2.20    0.26
   5   3 -11    2.37    0.26
   4  -3 -11    9.28    0.46
   4   3 -11    9.23    0.43
   3  -3 -11    4.42    0.31
   3   3 -11    5.02    0.31
   3   3 -11    4.73    0.31
   2  -3 -11    3.23    0.28
   2   3 -11    3.53    0.26
   2   3 -11    3.18    0.26
   1  -3 -11    3.09    0.28
   1   3 -11    3.52    0.25
   1   3 -11    4.08    0.28
   0  -3 -11    1.88    0.24
   0   3 -11    2.00    0.24
  -1  -3 -11   12.38    0.52
  -1   3 -11   12.98    0.54
  -2  -3 -11    4.17    0.31
  -2   3 -11    3.98    0.34
  -3  -3 -11    2.76    0.28
  -3   3 -11    2.57    0.32
  -4  -3 -11    6.82    0.39
  -4   3 -11    6.35    0.46
   5  -4 -11    0.84    0.19
   5   4 -11    1.46    0.21
   5   4 -11    1.39    0.21
   4  -4 -11    4.76    0.33
   4   4 -11    5.11    0.33
   4   4 -11    5.23    0.33
   3  -4 -11    3.18    0.31
   3   4 -11    4.12    0.29
   3   4 -11    4.07    0.28
   2  -4 -11    3.77    0.30
   2   4 -11    3.95    0.28
   1  -4 -11   11.68    0.51
   1   4 -11   12.60    0.51
   0  -4 -11   17.70    0.65
   0   4 -11   17.32    0.64
  -1  -4 -11    4.25    0.31
  -1   4 -11    3.73    0.32
  -2  -4 -11    3.44    0.29
  -2   4 -11    2.59    0.31
  -3  -4 -11    0.52    0.16
  -3   4 -11    0.18    0.19
  -4  -4 -11    4.82    0.34
   5  -5 -11    0.43    0.16
   5   5 -11    0.69    0.17
   5   5 -11    0.49    0.15
   4  -5 -11    3.09    0.30
   4   5 -11    2.56    0.27
   3  -5 -11    5.51    0.36
   3   5 -11    5.70    0.34
   2  -5 -11    4.75    0.33
   2   5 -11    5.40    0.34
   1  -5 -11    1.01    0.19
   1   5 -11    1.33    0.21
   0  -5 -11    2.19    0.25
   0   5 -11    1.90    0.24
  -1  -5 -11    7.43    0.41
  -1   5 -11    7.58    0.43
  -2  -5 -11    2.55    0.28
  -2   5 -11    2.81    0.32
  -3  -5 -11    5.06    0.35
  -3   5 -11    4.85    0.40
   4  -6 -11    5.16    0.37
   4   6 -11    5.20    0.35
   3  -6 -11    4.24    0.32
   3   6 -11    4.63    0.32
   2  -6 -11    6.85    0.40
   2   6 -11    6.95    0.39
   1  -6 -11    3.86    0.31
   1   6 -11    4.12    0.32
   0  -6 -11    2.95    0.30
   0   6 -11    3.67    0.30
  -1  -6 -11   -0.19    0.11
  -1   6 -11    0.12    0.15
  -2  -6 -11    2.05    0.26
  -2   6 -11    2.48    0.31
   3  -7 -11    2.68    0.30
   3   7 -11    2.71    0.28
   2  -7 -11    1.67    0.24
   2   7 -11    1.58    0.23
   1  -7 -11    2.32    0.27
   1   7 -11    2.65    0.29
   0  -7 -11    2.77    0.29
   0   7 -11    2.47    0.28
  -1  -7 -11    5.97    0.39
  -1   7 -11    6.67    0.42
   4   0 -12    0.05    0.13
   3   0 -12    3.86    0.29
   2   0 -12    0.15    0.13
   1   0 -12    3.02    0.26
   0   0 -12    4.62    0.31
  -1   0 -12    2.71    0.27
  -2   0 -12    2.50    0.26
   4  -1 -12    8.43    0.45
   4   1 -12    8.24    0.43
   3  -1 -12    0.29    0.15
   3   1 -12    0.69    0.18
   2  -1 -12    2.79    0.29
   2   1 -12    2.94    0.28
   1  -1 -12    0.28    0.14
   1   1 -12    0.29    0.14
   0  -1 -12    0.84    0.18
   0   1 -12    1.08    0.19
  -1  -1 -12    3.50    0.28
  -2  -1 -12    0.53    0.15
   4  -2 -12    2.21    0.27
   4   2 -12    2.36    0.27
   3  -2 -12    5.47    0.35
   3   2 -12    4.91    0.33
   2  -2 -12    4.31    0.32
   2   2 -12    3.48    0.28
   1  -2 -12    2.40    0.26
   1   2 -12    2.62    0.26
   0  -2 -12    6.17    0.37
  -1  -2 -12    0.15    0.13
  -2  -2 -12    2.72    0.28
   4  -3 -12    1.13    0.21
   4   3 -12    0.90    0.18
   3  -3 -12    0.85    0.20
   3   3 -12    1.14    0.19
   2  -3 -12    2.14    0.26
   2   3 -12    2.15    0.24
   1  -3 -12    7.16    0.40
   0  -3 -12    5.14    0.34
  -1  -3 -12    1.27    0.22
  -2  -3 -12    1.56    0.23
   3  -4 -12    4.11    0.33
   2  -4 -12    5.84    0.38
   1  -4 -12    2.08    0.26
   1   4 -12    2.13    0.25
   0  -4 -12   13.87    0.59
   0   4 -12   13.98    0.58
  -1  -4 -12    1.40    0.23
  -1   4 -12    1.64    0.26
   2  -5 -12    1.56    0.25
   1  -5 -12    5.62    0.37
   1   5 -12    5.93    0.37
   0  -5 -12    1.53    0.23
   0   5 -12    1.32    0.23
   0   0   0    0.00    0.00
;
_shelx_hkl_checksum              91092
_shelx_shelxl_version_number     2014/7
_olex2_submission_special_instructions 'No special instructions were received'
loop_
_space_group_symop_operation_xyz
'x, y, z'
'-x, y+1/2, -z'
loop_
_atom_site_label
_atom_site_type_symbol
_atom_site_fract_x
_atom_site_fract_y
_atom_site_fract_z
_atom_site_U_iso_or_equiv
_atom_site_adp_type
_atom_site_occupancy
_atom_site_site_symmetry_order
_atom_site_calc_flag
_atom_site_refinement_flags_posn
Cl1 Cl 0.38790(7) 0.74665(6) 0.81159(7) 0.02368(12) Uani 1 1 d .
Cl2 Cl 0.44810(7) 1.00530(5) 0.81092(7) 0.02337(12) Uani 1 1 d .
S1 S 0.83086(9) 0.92786(10) 0.45223(8) 0.0406(2) Uani 1 1 d .
S2 S 0.46531(9) 0.97599(6) 0.44670(7) 0.02486(13) Uani 1 1 d .
F1 F 0.2163(2) 0.8526(2) 0.3153(2) 0.0472(5) Uani 1 1 d .
F2 F 0.4329(4) 0.8432(4) 0.1940(3) 0.0911(13) Uani 1 1 d .
F3 F 0.4275(5) 0.7403(2) 0.3960(4) 0.0936(13) Uani 1 1 d .
O1 O 0.8782(4) 1.0518(4) 0.4268(5) 0.0961(17) Uani 1 1 d .
O2 O 0.8084(3) 0.8469(5) 0.3265(3) 0.0933(17) Uani 1 1 d .
N1 N 0.6480(3) 0.9292(2) 0.5429(2) 0.0188(4) Uani 1 1 d .
C1 C 0.5556(3) 0.8603(2) 0.8051(2) 0.0159(4) Uani 1 1 d .
C2 C 0.6557(3) 0.8351(2) 0.6620(2) 0.0143(3) Uani 1 1 d .
H2 H 0.6195 0.7539 0.6169 0.017 Uiso 1 1 calc R
C3 C 0.9633(3) 0.8578(2) 0.6023(3) 0.0209(4) Uani 1 1 d .
H3A H 1.0161 0.7816 0.5664 0.025 Uiso 1 1 calc R
H3B H 1.0567 0.9146 0.6400 0.025 Uiso 1 1 calc R
C4 C 0.8481(3) 0.8281(2) 0.7282(2) 0.0145(4) Uani 1 1 d .
C5 C 0.8555(3) 0.9149(2) 0.8687(2) 0.0158(4) Uani 1 1 d .
C6 C 0.7004(3) 0.8494(2) 0.9346(2) 0.0181(4) Uani 1 1 d .
H6 H 0.6700 0.8833 1.0335 0.022 Uiso 1 1 calc R
C7 C 0.7629(3) 0.7139(2) 0.9418(3) 0.0231(5) Uani 1 1 d .
H7A H 0.6639 0.6565 0.9352 0.028 Uiso 1 1 calc R
H7B H 0.8359 0.6979 1.0368 0.028 Uiso 1 1 calc R
C8 C 0.8688(3) 0.7002(2) 0.8022(3) 0.0188(4) Uani 1 1 d .
H8A H 0.9913 0.6817 0.8332 0.023 Uiso 1 1 calc R
H8B H 0.8207 0.6349 0.7332 0.023 Uiso 1 1 calc R
C9 C 0.8401(3) 1.0533(2) 0.8309(3) 0.0230(5) Uani 1 1 d .
H9A H 0.8154 1.0990 0.9216 0.035 Uiso 1 1 calc GR
H9B H 0.7464 1.0660 0.7513 0.035 Uiso 1 1 calc GR
H9C H 0.9487 1.0826 0.7959 0.035 Uiso 1 1 calc GR
C10 C 1.0212(3) 0.9029(2) 0.9761(3) 0.0226(5) Uani 1 1 d .
H10A H 1.1186 0.9374 0.9275 0.034 Uiso 1 1 calc GR
H10B H 1.0433 0.8158 0.9991 0.034 Uiso 1 1 calc GR
H10C H 1.0070 0.9476 1.0699 0.034 Uiso 1 1 calc GR
C11 C 0.3875(3) 0.8455(3) 0.3310(3) 0.0273(5) Uani 1 1 d .
loop_
_atom_site_aniso_label
_atom_site_aniso_U_11
_atom_site_aniso_U_22
_atom_site_aniso_U_33
_atom_site_aniso_U_23
_atom_site_aniso_U_13
_atom_site_aniso_U_12
Cl1 0.0177(2) 0.0250(3) 0.0291(3) 0.0014(2) 0.00662(19) -0.0051(2)
Cl2 0.0191(2) 0.0211(3) 0.0300(3) -0.0051(2) 0.00277(19) 0.0054(2)
S1 0.0206(3) 0.0792(6) 0.0223(3) 0.0241(3) 0.0024(2) -0.0066(3)
S2 0.0267(3) 0.0203(3) 0.0254(3) 0.0043(2) -0.0095(2) 0.0004(2)
F1 0.0233(9) 0.0744(16) 0.0426(10) -0.0183(11) -0.0036(7) -0.0054(9)
F2 0.0596(16) 0.183(4) 0.0342(11) -0.0489(17) 0.0232(11) -0.054(2)
F3 0.138(3) 0.0298(10) 0.095(2) -0.0179(13) -0.090(2) 0.0136(15)
O1 0.0317(14) 0.110(3) 0.146(4) 0.104(3) 0.0053(17) -0.0106(16)
O2 0.0311(13) 0.227(5) 0.0220(11) -0.033(2) 0.0031(10) 0.008(2)
N1 0.0175(8) 0.0208(9) 0.0174(8) 0.0062(7) -0.0019(6) -0.0022(7)
C1 0.0138(9) 0.0153(9) 0.0189(9) -0.0006(7) 0.0034(7) -0.0002(7)
C2 0.0149(8) 0.0152(9) 0.0128(8) 0.0008(7) 0.0012(6) -0.0008(7)
C3 0.0172(10) 0.0298(12) 0.0161(9) 0.0023(8) 0.0046(8) -0.0001(9)
C4 0.0133(8) 0.0162(9) 0.0142(9) 0.0004(7) 0.0025(7) -0.0001(7)
C5 0.0146(9) 0.0182(9) 0.0146(9) -0.0009(7) 0.0008(7) -0.0001(8)
C6 0.0166(9) 0.0250(11) 0.0130(9) 0.0009(7) 0.0024(7) 0.0014(8)
C7 0.0220(10) 0.0252(12) 0.0222(11) 0.0104(9) 0.0030(8) 0.0017(9)
C8 0.0183(9) 0.0154(9) 0.0226(10) 0.0025(8) 0.0010(8) 0.0035(8)
C9 0.0212(10) 0.0173(10) 0.0296(12) -0.0045(9) -0.0032(9) -0.0026(9)
C10 0.0168(10) 0.0299(12) 0.0203(10) -0.0027(9) -0.0032(8) 0.0004(9)
C11 0.0240(12) 0.0368(15) 0.0199(11) -0.0053(10) -0.0037(9) 0.0014(10)
loop_
_atom_type_symbol
_atom_type_description
_atom_type_scat_dispersion_real
_atom_type_scat_dispersion_imag
_atom_type_scat_source
C C 0.0033 0.0016 'International Tables Vol C Tables 4.2.6.8 and 6.1.1.4'
H H 0.0000 0.0000 'International Tables Vol C Tables 4.2.6.8 and 6.1.1.4'
Cl Cl 0.1484 0.1585 'International Tables Vol C Tables 4.2.6.8 and 6.1.1.4'
F F 0.0171 0.0103 'International Tables Vol C Tables 4.2.6.8 and 6.1.1.4'
N N 0.0061 0.0033 'International Tables Vol C Tables 4.2.6.8 and 6.1.1.4'
O O 0.0106 0.0060 'International Tables Vol C Tables 4.2.6.8 and 6.1.1.4'
S S 0.1246 0.1234 'International Tables Vol C Tables 4.2.6.8 and 6.1.1.4'
loop_
_geom_angle_atom_site_label_1
_geom_angle_atom_site_label_2
_geom_angle_atom_site_label_3
_geom_angle
O1 S1 N1 107.9(2)
O1 S1 C3 112.53(18)
O2 S1 O1 118.6(3)
O2 S1 N1 109.17(15)
O2 S1 C3 110.2(2)
N1 S1 C3 95.93(10)
N1 S2 C11 106.06(12)
S2 N1 S1 118.13(11)
C2 N1 S1 110.65(15)
C2 N1 S2 123.96(16)
Cl2 C1 Cl1 105.15(11)
C2 C1 Cl1 108.57(15)
C2 C1 Cl2 116.32(15)
C6 C1 Cl1 114.05(15)
C6 C1 Cl2 111.10(15)
C6 C1 C2 101.95(17)
N1 C2 C1 117.94(18)
N1 C2 H2 109.6
N1 C2 C4 106.39(17)
C1 C2 H2 109.6
C4 C2 C1 103.37(16)
C4 C2 H2 109.6
S1 C3 H3A 110.2
S1 C3 H3B 110.2
H3A C3 H3B 108.5
C4 C3 S1 107.40(16)
C4 C3 H3A 110.2
C4 C3 H3B 110.2
C3 C4 C2 108.62(17)
C3 C4 C5 118.27(19)
C3 C4 C8 117.20(19)
C5 C4 C2 103.78(16)
C8 C4 C2 105.41(17)
C8 C4 C5 102.09(17)
C6 C5 C4 92.77(17)
C9 C5 C4 114.75(18)
C9 C5 C6 118.60(19)
C10 C5 C4 114.42(18)
C10 C5 C6 111.27(18)
C10 C5 C9 105.18(19)
C1 C6 C5 102.97(17)
C1 C6 H6 114.3
C1 C6 C7 108.07(19)
C5 C6 H6 114.3
C7 C6 C5 101.46(18)
C7 C6 H6 114.3
C6 C7 H7A 110.9
C6 C7 H7B 110.9
C6 C7 C8 104.17(18)
H7A C7 H7B 108.9
C8 C7 H7A 110.9
C8 C7 H7B 110.9
C4 C8 C7 102.15(17)
C4 C8 H8A 111.3
C4 C8 H8B 111.3
C7 C8 H8A 111.3
C7 C8 H8B 111.3
H8A C8 H8B 109.2
C5 C9 H9A 109.5
C5 C9 H9B 109.5
C5 C9 H9C 109.5
H9A C9 H9B 109.5
H9A C9 H9C 109.5
H9B C9 H9C 109.5
C5 C10 H10A 109.5
C5 C10 H10B 109.5
C5 C10 H10C 109.5
H10A C10 H10B 109.5
H10A C10 H10C 109.5
H10B C10 H10C 109.5
F1 C11 S2 107.09(19)
F2 C11 S2 116.0(2)
F2 C11 F1 104.9(2)
F2 C11 F3 108.9(3)
F3 C11 S2 112.22(18)
F3 C11 F1 107.1(3)
loop_
_geom_bond_atom_site_label_1
_geom_bond_atom_site_label_2
_geom_bond_distance
Cl1 C1 1.802(2)
Cl2 C1 1.788(2)
S1 O1 1.420(4)
S1 O2 1.420(4)
S1 N1 1.697(2)
S1 C3 1.782(3)
S2 N1 1.673(2)
S2 C11 1.824(3)
F1 C11 1.331(3)
F2 C11 1.297(3)
F3 C11 1.306(4)
N1 C2 1.469(3)
C1 C2 1.573(3)
C1 C6 1.543(3)
C2 H2 1.0000
C2 C4 1.562(3)
C3 H3A 0.9900
C3 H3B 0.9900
C3 C4 1.529(3)
C4 C5 1.561(3)
C4 C8 1.540(3)
C5 C6 1.560(3)
C5 C9 1.544(3)
C5 C10 1.540(3)
C6 H6 1.0000
C6 C7 1.550(3)
C7 H7A 0.9900
C7 H7B 0.9900
C7 C8 1.555(3)
C8 H8A 0.9900
C8 H8B 0.9900
C9 H9A 0.9800
C9 H9B 0.9800
C9 H9C 0.9800
C10 H10A 0.9800
C10 H10B 0.9800
C10 H10C 0.9800
loop_
_geom_torsion_atom_site_label_1
_geom_torsion_atom_site_label_2
_geom_torsion_atom_site_label_3
_geom_torsion_atom_site_label_4
_geom_torsion
Cl1 C1 C2 N1 116.04(18)
Cl1 C1 C2 C4 -126.94(15)
Cl1 C1 C6 C5 157.24(15)
Cl1 C1 C6 C7 50.4(2)
Cl2 C1 C2 N1 -2.2(3)
Cl2 C1 C2 C4 114.78(17)
Cl2 C1 C6 C5 -84.13(18)
Cl2 C1 C6 C7 169.03(15)
S1 N1 C2 C1 150.09(16)
S1 N1 C2 C4 34.7(2)
S1 C3 C4 C2 15.7(2)
S1 C3 C4 C5 -102.1(2)
S1 C3 C4 C8 134.98(18)
S2 N1 C2 C1 -60.5(3)
S2 N1 C2 C4 -175.85(16)
O1 S1 N1 S2 69.5(2)
O1 S1 N1 C2 -139.0(2)
O1 S1 C3 C4 115.5(3)
O2 S1 N1 S2 -60.6(3)
O2 S1 N1 C2 90.8(3)
O2 S1 C3 C4 -109.6(2)
N1 S1 C3 C4 3.33(19)
N1 S2 C11 F1 149.20(19)
N1 S2 C11 F2 -94.1(3)
N1 S2 C11 F3 31.9(3)
N1 C2 C4 C3 -31.6(2)
N1 C2 C4 C5 95.10(19)
N1 C2 C4 C8 -157.96(17)
C1 C2 C4 C3 -156.46(18)
C1 C2 C4 C5 -29.8(2)
C1 C2 C4 C8 77.16(19)
C1 C6 C7 C8 73.7(2)
C2 C1 C6 C5 40.4(2)
C2 C1 C6 C7 -66.4(2)
C2 C4 C5 C6 52.07(18)
C2 C4 C5 C9 -71.3(2)
C2 C4 C5 C10 166.96(18)
C2 C4 C8 C7 -70.2(2)
C3 S1 N1 S2 -174.49(15)
C3 S1 N1 C2 -23.05(18)
C3 C4 C5 C6 172.42(19)
C3 C4 C5 C9 49.1(3)
C3 C4 C5 C10 -72.7(3)
C3 C4 C8 C7 168.83(19)
C4 C5 C6 C1 -56.80(19)
C4 C5 C6 C7 55.01(19)
C5 C4 C8 C7 37.9(2)
C5 C6 C7 C8 -34.2(2)
C6 C1 C2 N1 -123.3(2)
C6 C1 C2 C4 -6.2(2)
C6 C7 C8 C4 -2.2(2)
C8 C4 C5 C6 -57.34(18)
C8 C4 C5 C9 179.29(18)
C8 C4 C5 C10 57.5(2)
C9 C5 C6 C1 63.5(2)
C9 C5 C6 C7 175.26(19)
C10 C5 C6 C1 -174.38(18)
C10 C5 C6 C7 -62.6(2)
C11 S2 N1 S1 79.55(17)
C11 S2 N1 C2 -67.8(2)
