#------------------------------------------------------------------------------
#$Date: 2019-11-24 02:03:31 +0200 (Sun, 24 Nov 2019) $
#$Revision: 236165 $
#$URL: file:///home/coder/svn-repositories/cod/cif/1/55/39/1553917.cif $
#------------------------------------------------------------------------------
#
# This file is available in the Crystallography Open Database (COD),
# http://www.crystallography.net/
#
# All data on this site have been placed in the public domain by the
# contributors.
#
data_1553917
loop_
_publ_author_name
'Zhu, Chuanle'
'Zeng, Hao'
'Chen, Fulin'
'Liu, Chi'
'Zhu, Rui'
'Wu, Wanqing'
'Jiang, Huanfeng'
_publ_section_title
;
 Copper-catalyzed coupling of oxime acetates and aryldiazonium salts: an
 azide-free strategy toward N-2-aryl-1,2,3-triazoles
;
_journal_issue                   4
_journal_name_full               'Organic Chemistry Frontiers'
_journal_page_first              571
_journal_paper_doi               10.1039/C7QO00874K
_journal_volume                  5
_journal_year                    2018
_chemical_formula_moiety         'C16 H15 N3 O2'
_chemical_formula_sum            'C16 H15 N3 O2'
_chemical_formula_weight         281.31
_space_group_crystal_system      triclinic
_space_group_IT_number           2
_space_group_name_Hall           '-P 1'
_space_group_name_H-M_alt        'P -1'
_atom_sites_solution_hydrogens   geom
_atom_sites_solution_primary     dual
_audit_creation_date             2017-02-21
_audit_creation_method
;
Olex2 1.2
(compiled 2017.01.04 svn.r3372 for OlexSys, GUI svn.r5292)
;
_audit_update_record
;
2017-07-13 deposited with the CCDC.
2017-10-25 downloaded from the CCDC.
;
_cell_angle_alpha                86.207(4)
_cell_angle_beta                 88.891(3)
_cell_angle_gamma                76.774(4)
_cell_formula_units_Z            2
_cell_length_a                   6.0881(2)
_cell_length_b                   7.8709(4)
_cell_length_c                   14.5993(7)
_cell_measurement_reflns_used    3460
_cell_measurement_temperature    100.01(10)
_cell_measurement_theta_max      73.2880
_cell_measurement_theta_min      5.7710
_cell_volume                     679.53(5)
_computing_cell_refinement       'CrysAlisPro 1.171.38.43f (Rigaku OD, 2015)'
_computing_data_collection       'CrysAlisPro 1.171.38.43f (Rigaku OD, 2015)'
_computing_data_reduction        'CrysAlisPro 1.171.38.43f (Rigaku OD, 2015)'
_computing_molecular_graphics    'Olex2 (Dolomanov et al., 2009)'
_computing_publication_material  'Olex2 (Dolomanov et al., 2009)'
_computing_structure_refinement  'ShelXL (Sheldrick, 2015)'
_computing_structure_solution    'ShelXT (Sheldrick, 2015)'
_diffrn_ambient_environment      N~2~
_diffrn_ambient_temperature      100.01(10)
_diffrn_detector                 'CCD plate'
_diffrn_detector_area_resol_mean 5.2684
_diffrn_detector_type            AtlasS2
_diffrn_measured_fraction_theta_full 0.997
_diffrn_measured_fraction_theta_max 0.965
_diffrn_measurement_details
;
List of Runs (angles in degrees, time in seconds):

  # Type    Start    End  Width  t~exp~   \w     \q     \k     \f   Frames
#--------------------------------------------------------------------------
  1  \w     -9.00  30.00   1.00    1.00    --  -40.98  57.00 120.00   39
  2  \w    -31.00  -2.00   1.00    1.00    --  -40.98 125.00  60.00   29
  3  \w    -61.00 -31.00   1.00    1.00    --  -40.98  57.00 120.00   30
  4  \w    -68.00  32.00   1.00    1.00    --  -40.98  57.00   0.00  100
  5  \w    -94.00 -65.00   1.00    1.00    --  -40.98 125.00  60.00   29
  6  \w   -106.00 -22.00   1.00    1.00    --  -40.98 -57.00-150.00   84
  7  \w     32.00  67.00   1.00    1.00    --   40.98-125.00-180.00   35
  8  \w     45.00 133.00   1.00    1.00    --  106.95 -61.00-150.00   88
  9  \w     94.00 121.00   1.00    1.00    --  106.95 -30.00 -60.00   27
 10  \w     91.00 178.00   1.00    1.00    --  106.95  30.00 -60.00   87
 11  \w    128.00 172.00   1.00    1.00    --  106.95 125.00-180.00   44
 12  \w     33.00 135.00   1.00    1.00    --  106.95 -30.00 -30.00  102
 13  \w     96.00 121.00   1.00    1.00    --  106.95-125.00   0.00   25
 14  \w     58.00 109.00   1.00    1.00    --  106.95 -94.00 -30.00   51
 15  \w     47.00  74.00   1.00    1.00    --  106.95-125.00   0.00   27
 16  \w     32.00 132.00   1.00    1.00    --  106.95 -30.00 120.00  100
 17  \w     58.00 106.00   1.00    1.00    --  106.95-125.00 150.00   48
 18  \w     25.00  61.00   1.00    1.00    --  106.95 -94.00 150.00   36
 19  \w     31.00  66.00   1.00    1.00    --  106.95 -30.00 -60.00   35
 20  \w     43.00 107.00   1.00    1.00    --  106.95 -94.00-180.00   64
;
_diffrn_measurement_device       'four-circle diffractometer'
_diffrn_measurement_device_type  'SuperNova, Dual, Cu at zero, AtlasS2'
_diffrn_measurement_method       '\w scans'
_diffrn_orient_matrix_type
'CrysAlisPro convention (1999,Acta A55,543-557)'
_diffrn_orient_matrix_UB_11      0.0800946000
_diffrn_orient_matrix_UB_12      0.1450259000
_diffrn_orient_matrix_UB_13      0.0465763000
_diffrn_orient_matrix_UB_21      0.0852652000
_diffrn_orient_matrix_UB_22      0.0632536000
_diffrn_orient_matrix_UB_23      -0.0932866000
_diffrn_orient_matrix_UB_31      -0.2321309000
_diffrn_orient_matrix_UB_32      0.1247228000
_diffrn_orient_matrix_UB_33      -0.0176794000
_diffrn_radiation_monochromator  mirror
_diffrn_radiation_probe          x-ray
_diffrn_radiation_type           CuK\a
_diffrn_radiation_wavelength     1.54184
_diffrn_reflns_av_R_equivalents  0.0178
_diffrn_reflns_av_unetI/netI     0.0202
_diffrn_reflns_Laue_measured_fraction_full 0.997
_diffrn_reflns_Laue_measured_fraction_max 0.965
_diffrn_reflns_limit_h_max       6
_diffrn_reflns_limit_h_min       -7
_diffrn_reflns_limit_k_max       9
_diffrn_reflns_limit_k_min       -8
_diffrn_reflns_limit_l_max       16
_diffrn_reflns_limit_l_min       -18
_diffrn_reflns_number            4426
_diffrn_reflns_point_group_measured_fraction_full 0.997
_diffrn_reflns_point_group_measured_fraction_max 0.965
_diffrn_reflns_theta_full        67.684
_diffrn_reflns_theta_max         73.359
_diffrn_reflns_theta_min         5.786
_diffrn_source                   'micro-focus sealed X-ray tube'
_diffrn_source_type              'SuperNova (Cu) X-ray Source'
_exptl_absorpt_coefficient_mu    0.758
_exptl_absorpt_correction_T_max  1.00000
_exptl_absorpt_correction_T_min  0.62278
_exptl_absorpt_correction_type   multi-scan
_exptl_absorpt_process_details
;
CrysAlisPro 1.171.38.43f (Rigaku Oxford Diffraction, 2015)
Empirical absorption correction using spherical harmonics,
 implemented in SCALE3 ABSPACK scaling algorithm.
;
_exptl_crystal_colour            colorless
_exptl_crystal_density_diffrn    1.375
_exptl_crystal_description       block
_exptl_crystal_F_000             296
_exptl_crystal_size_max          0.28
_exptl_crystal_size_mid          0.22
_exptl_crystal_size_min          0.18
_refine_diff_density_max         0.247
_refine_diff_density_min         -0.228
_refine_diff_density_rms         0.047
_refine_ls_extinction_method     none
_refine_ls_goodness_of_fit_ref   1.069
_refine_ls_hydrogen_treatment    constr
_refine_ls_matrix_type           full
_refine_ls_number_parameters     192
_refine_ls_number_reflns         2640
_refine_ls_number_restraints     0
_refine_ls_restrained_S_all      1.069
_refine_ls_R_factor_all          0.0414
_refine_ls_R_factor_gt           0.0396
_refine_ls_shift/su_max          0.000
_refine_ls_shift/su_mean         0.000
_refine_ls_structure_factor_coef Fsqd
_refine_ls_weighting_details
'w=1/[\s^2^(Fo^2^)+(0.0604P)^2^+0.1734P] where P=(Fo^2^+2Fc^2^)/3'
_refine_ls_weighting_scheme      calc
_refine_ls_wR_factor_gt          0.1061
_refine_ls_wR_factor_ref         0.1077
_reflns_Friedel_coverage         0.000
_reflns_number_gt                2486
_reflns_number_total             2640
_reflns_threshold_expression     'I > 2\s(I)'
_iucr_refine_instructions_details
;
TITL exp_265_a.res in P-1
    exp_265.res
    created by SHELXL-2016/6 at 17:20:27 on 21-Feb-2017
REM Old TITL exp_265_a.res in P-1
REM SHELXT solution in P-1
REM R1 0.117, Rweak 0.005, Alpha 0.047, Orientation as input
REM Formula found by SHELXT: C17 N3 O
CELL 1.54184 6.0881 7.8709 14.5993 86.207 88.891 76.774
ZERR 2 0.0002 0.0004 0.0007 0.004 0.003 0.004
LATT 1
SFAC C H N O
UNIT 32 30 6 4

L.S. 20
PLAN  20
SIZE 0.28 0.22 0.18
htab
BOND $H
list 4
fmap 2 53
acta
REM <olex2.extras>
REM <HklSrc "%.\\exp_265.hkl">
REM </olex2.extras>

WGHT    0.060400    0.173400
FVAR       1.34149
O2    4    0.719501    0.781225   -0.090770    11.00000    0.02074    0.02886 =
         0.02133    0.00622    0.00377   -0.00202
O1    4    0.376720    0.127443    0.678172    11.00000    0.02790    0.03915 =
         0.02047    0.00586    0.00430   -0.00387
N1    3    0.621303    0.354784    0.330684    11.00000    0.01977    0.02312 =
         0.01957    0.00088    0.00206   -0.00316
N2    3    0.480061    0.469152    0.275228    11.00000    0.02238    0.02113 =
         0.01980    0.00079    0.00078   -0.00337
N3    3    0.830185    0.299419    0.297774    11.00000    0.01983    0.03099 =
         0.02453    0.00257    0.00463   -0.00202
C9    1    0.605148    0.489681    0.200717    11.00000    0.02110    0.01978 =
         0.02095   -0.00204    0.00252   -0.00557
C10   1    0.511585    0.605866    0.120886    11.00000    0.02087    0.01745 =
         0.02115   -0.00245    0.00171   -0.00439
C12   1    0.194171    0.785666    0.039038    11.00000    0.01700    0.02212 =
         0.02846   -0.00154    0.00159   -0.00209
AFIX  43
H12   2    0.039702    0.832788    0.035125    11.00000   -1.20000
AFIX   0
C13   1    0.334993    0.826609   -0.031142    11.00000    0.02080    0.02005 =
         0.02219    0.00040   -0.00091   -0.00253
AFIX  43
H13   2    0.275733    0.901172   -0.081183    11.00000   -1.20000
AFIX   0
C5    1    0.554096    0.297775    0.419295    11.00000    0.02402    0.02201 =
         0.01846   -0.00126    0.00265   -0.00572
C2    1    0.422897    0.188778    0.592076    11.00000    0.02812    0.02548 =
         0.01809   -0.00084    0.00241   -0.00757
C11   1    0.278925    0.676587    0.114337    11.00000    0.02037    0.02323 =
         0.02394   -0.00165    0.00574   -0.00569
AFIX  43
H11   2    0.182170    0.650222    0.160425    11.00000   -1.20000
AFIX   0
C15   1    0.653772    0.644704    0.050752    11.00000    0.01559    0.02108 =
         0.02266   -0.00147    0.00083   -0.00259
AFIX  43
H15   2    0.808201    0.597369    0.054603    11.00000   -1.20000
AFIX   0
C6    1    0.711682    0.186294    0.476696    11.00000    0.01950    0.03062 =
         0.02383    0.00014    0.00166   -0.00410
AFIX  43
H6    2    0.860338    0.148615    0.457384    11.00000   -1.20000
AFIX   0
C14   1    0.566049    0.754270   -0.025345    11.00000    0.02035    0.02003 =
         0.02029   -0.00244    0.00303   -0.00506
C8    1    0.821693    0.384054    0.215289    11.00000    0.02196    0.02851 =
         0.02315    0.00298    0.00460   -0.00284
AFIX  43
H8    2    0.941153    0.374427    0.173827    11.00000   -1.20000
AFIX   0
C3    1    0.265779    0.298937    0.534126    11.00000    0.02255    0.02923 =
         0.02513    0.00053    0.00509   -0.00076
AFIX  43
H3    2    0.117173    0.336925    0.553436    11.00000   -1.20000
AFIX   0
C4    1    0.332003    0.351878    0.447296    11.00000    0.02418    0.02781 =
         0.02332    0.00328    0.00183    0.00056
AFIX  43
H4    2    0.226942    0.423764    0.407946    11.00000   -1.20000
AFIX   0
C16   1    0.635362    0.897113   -0.168574    11.00000    0.02610    0.02553 =
         0.02137    0.00453    0.00243   -0.00399
AFIX 137
H16A  2    0.758301    0.908020   -0.209007    11.00000   -1.50000
H16B  2    0.563468    1.009994   -0.148183    11.00000   -1.50000
H16C  2    0.527989    0.850908   -0.200621    11.00000   -1.50000
AFIX   0
C7    1    0.644841    0.132405    0.562484    11.00000    0.02355    0.03154 =
         0.02234    0.00316   -0.00286   -0.00346
AFIX  43
H7    2    0.749200    0.057596    0.600968    11.00000   -1.20000
AFIX   0
C1    1    0.151457    0.177590    0.710568    11.00000    0.03063    0.03999 =
         0.02399    0.00249    0.00778   -0.00776
AFIX 137
H1A   2    0.053561    0.133917    0.672066    11.00000   -1.50000
H1B   2    0.105854    0.302837    0.709141    11.00000   -1.50000
H1C   2    0.142507    0.129953    0.772419    11.00000   -1.50000
AFIX   0
HKLF 4




REM  exp_265_a.res in P-1
REM R1 =  0.0396 for    2486 Fo > 4sig(Fo)  and  0.0414 for all    2640 data
REM    192 parameters refined using      0 restraints

END  
     
WGHT      0.0623      0.1760 

REM Instructions for potential hydrogen bonds
EQIV $1 -x+2, -y+1, -z
HTAB C8 O2_$1

REM Highest difference peak  0.247,  deepest hole -0.228,  1-sigma level  0.047
Q1    1   0.5623  0.5393  0.1591  11.00000  0.05    0.25
Q2    1   0.5846  0.3224  0.3752  11.00000  0.05    0.20
Q3    1   0.4522  0.8137 -0.0233  11.00000  0.05    0.19
Q4    1   0.6025  0.7088  0.0143  11.00000  0.05    0.18
Q5    1   0.3181  0.4596  0.2996  11.00000  0.05    0.18
Q6    1   0.4497  0.7646 -0.0348  11.00000  0.05    0.18
Q7    1   0.5775  0.6165  0.0818  11.00000  0.05    0.17
Q8    1   0.5387  0.1960  0.5785  11.00000  0.05    0.17
Q9    1   0.5834  0.8824 -0.2742  11.00000  0.05    0.17
Q10   1   0.4242  0.5535  0.2981  11.00000  0.05    0.16
Q11   1   0.3550  0.2368  0.5618  11.00000  0.05    0.15
Q12   1   0.6998  0.4371  0.2028  11.00000  0.05    0.15
Q13   1   0.4428  0.2820  0.4276  11.00000  0.05    0.15
Q14   1   0.4005  0.6423  0.1142  11.00000  0.05    0.15
Q15   1   0.3560  0.5376  0.3118  11.00000  0.05    0.15
Q16   1   0.6046 -0.0387  0.6839  11.00000  0.05    0.15
Q17   1   0.4545  0.3230  0.4363  11.00000  0.05    0.15
Q18   1   0.3415  0.8257 -0.1228  11.00000  0.05    0.15
Q19   1   0.6242  0.2362  0.4416  11.00000  0.05    0.14
Q20   1   0.6028  0.7814 -0.2031  11.00000  0.05    0.14

  REM The information below was added by Olex2.
  REM
  REM R1 = 0.0396 for 2486 Fo > 4sig(Fo) and 0.0414 for all 4426 data
  REM n/a parameters refined using n/a restraints
  REM Highest difference peak 0.25, deepest hole -0.23
  REM Mean Shift 0, Max Shift 0.000.

  REM +++ Tabular Listing of Refinement Information +++
  REM R1_all = 0.0414
  REM R1_gt = 0.0396
  REM wR_ref = 0.1077
  REM GOOF = 1.069
  REM Shift_max = 0.000
  REM Shift_mean = 0
  REM Reflections_all = 4426
  REM Reflections_gt = 2486
  REM Parameters = n/a
  REM Hole = -0.23
  REM Peak = 0.25
  REM Flack = n/a

  
;
_cod_data_source_file            c7qo00874k2.cif
_cod_data_source_block           exp_265
_cod_database_code               1553917
_shelx_shelxl_version_number     2016/6
_shelx_space_group_comment
;
The symmetry employed for this shelxl refinement is uniquely defined
by the following loop, which should always be used as a source of
symmetry information in preference to the above space-group names.
They are only intended as comments.
;
_shelx_estimated_absorpt_t_max   0.876
_shelx_estimated_absorpt_t_min   0.816
_reflns_odcompleteness_completeness 99.71
_reflns_odcompleteness_iscentric 1
_reflns_odcompleteness_theta     66.97
_olex2_refinement_description
;
1. Fixed Uiso
 At 1.2 times of:
  All C(H) groups
 At 1.5 times of:
  All C(H,H,H) groups
2.a Aromatic/amide H refined with riding coordinates:
 C12(H12), C13(H13), C11(H11), C15(H15), C6(H6), C8(H8), C3(H3), C4(H4), C7(H7)
2.b Idealised Me refined as rotating group:
 C16(H16A,H16B,H16C), C1(H1A,H1B,H1C)
;
_olex2_submission_special_instructions 'No special instructions were received'
_oxdiff_exptl_absorpt_empirical_details
;
Empirical correction (ABSPACK) includes:
- Absorption correction using spherical harmonics
- Frame scaling
;
_oxdiff_exptl_absorpt_empirical_full_max 1.720
_oxdiff_exptl_absorpt_empirical_full_min 0.570
loop_
_space_group_symop_operation_xyz
'x, y, z'
'-x, -y, -z'
loop_
_atom_site_label
_atom_site_type_symbol
_atom_site_fract_x
_atom_site_fract_y
_atom_site_fract_z
_atom_site_U_iso_or_equiv
_atom_site_adp_type
_atom_site_occupancy
_atom_site_site_symmetry_order
_atom_site_calc_flag
_atom_site_refinement_flags_posn
O2 O 0.71950(14) 0.78123(11) -0.09077(6) 0.0246(2) Uani 1 1 d .
O1 O 0.37672(15) 0.12744(13) 0.67817(6) 0.0302(2) Uani 1 1 d .
N1 N 0.62130(17) 0.35478(13) 0.33068(7) 0.0212(2) Uani 1 1 d .
N2 N 0.48006(16) 0.46915(13) 0.27523(7) 0.0215(2) Uani 1 1 d .
N3 N 0.83019(17) 0.29942(14) 0.29777(7) 0.0260(3) Uani 1 1 d .
C9 C 0.60515(19) 0.48968(15) 0.20072(8) 0.0205(3) Uani 1 1 d .
C10 C 0.51159(19) 0.60587(14) 0.12089(8) 0.0198(3) Uani 1 1 d .
C12 C 0.19417(19) 0.78567(15) 0.03904(8) 0.0229(3) Uani 1 1 d .
H12 H 0.039702 0.832788 0.035125 0.028 Uiso 1 1 calc R
C13 C 0.3350(2) 0.82661(15) -0.03114(8) 0.0214(3) Uani 1 1 d .
H13 H 0.275733 0.901172 -0.081183 0.026 Uiso 1 1 calc R
C5 C 0.5541(2) 0.29778(15) 0.41929(8) 0.0215(3) Uani 1 1 d .
C2 C 0.4229(2) 0.18878(16) 0.59208(8) 0.0237(3) Uani 1 1 d .
C11 C 0.2789(2) 0.67659(15) 0.11434(8) 0.0225(3) Uani 1 1 d .
H11 H 0.182170 0.650222 0.160425 0.027 Uiso 1 1 calc R
C15 C 0.65377(19) 0.64470(15) 0.05075(8) 0.0200(3) Uani 1 1 d .
H15 H 0.808201 0.597369 0.054603 0.024 Uiso 1 1 calc R
C6 C 0.7117(2) 0.18629(16) 0.47670(8) 0.0250(3) Uani 1 1 d .
H6 H 0.860338 0.148615 0.457384 0.030 Uiso 1 1 calc R
C14 C 0.5660(2) 0.75427(15) -0.02535(8) 0.0201(2) Uani 1 1 d .
C8 C 0.8217(2) 0.38405(16) 0.21529(8) 0.0253(3) Uani 1 1 d .
H8 H 0.941153 0.374427 0.173827 0.030 Uiso 1 1 calc R
C3 C 0.2658(2) 0.29894(17) 0.53413(9) 0.0266(3) Uani 1 1 d .
H3 H 0.117173 0.336925 0.553436 0.032 Uiso 1 1 calc R
C4 C 0.3320(2) 0.35188(16) 0.44730(9) 0.0264(3) Uani 1 1 d .
H4 H 0.226942 0.423764 0.407946 0.032 Uiso 1 1 calc R
C16 C 0.6354(2) 0.89711(16) -0.16857(8) 0.0249(3) Uani 1 1 d .
H16A H 0.758301 0.908020 -0.209007 0.037 Uiso 1 1 calc GR
H16B H 0.563468 1.009994 -0.148183 0.037 Uiso 1 1 calc GR
H16C H 0.527989 0.850908 -0.200621 0.037 Uiso 1 1 calc GR
C7 C 0.6448(2) 0.13241(17) 0.56248(8) 0.0265(3) Uani 1 1 d .
H7 H 0.749200 0.057596 0.600968 0.032 Uiso 1 1 calc R
C1 C 0.1515(2) 0.17759(19) 0.71057(9) 0.0319(3) Uani 1 1 d .
H1A H 0.053561 0.133917 0.672066 0.048 Uiso 1 1 calc GR
H1B H 0.105854 0.302837 0.709141 0.048 Uiso 1 1 calc GR
H1C H 0.142507 0.129953 0.772419 0.048 Uiso 1 1 calc GR
loop_
_atom_site_aniso_label
_atom_site_aniso_U_11
_atom_site_aniso_U_22
_atom_site_aniso_U_33
_atom_site_aniso_U_23
_atom_site_aniso_U_13
_atom_site_aniso_U_12
O2 0.0207(4) 0.0289(5) 0.0213(4) 0.0062(3) 0.0038(3) -0.0020(3)
O1 0.0279(5) 0.0391(5) 0.0205(4) 0.0059(4) 0.0043(3) -0.0039(4)
N1 0.0198(5) 0.0231(5) 0.0196(5) 0.0009(4) 0.0021(4) -0.0032(4)
N2 0.0224(5) 0.0211(5) 0.0198(5) 0.0008(4) 0.0008(4) -0.0034(4)
N3 0.0198(5) 0.0310(6) 0.0245(5) 0.0026(4) 0.0046(4) -0.0020(4)
C9 0.0211(6) 0.0198(5) 0.0210(6) -0.0020(4) 0.0025(4) -0.0056(4)
C10 0.0209(6) 0.0174(5) 0.0211(6) -0.0024(4) 0.0017(4) -0.0044(4)
C12 0.0170(5) 0.0221(6) 0.0285(6) -0.0015(5) 0.0016(4) -0.0021(4)
C13 0.0208(6) 0.0200(5) 0.0222(6) 0.0004(4) -0.0009(4) -0.0025(4)
C5 0.0240(6) 0.0220(6) 0.0185(6) -0.0013(4) 0.0027(4) -0.0057(5)
C2 0.0281(6) 0.0255(6) 0.0181(6) -0.0008(4) 0.0024(5) -0.0076(5)
C11 0.0204(6) 0.0232(6) 0.0239(6) -0.0017(4) 0.0057(4) -0.0057(4)
C15 0.0156(5) 0.0211(6) 0.0227(6) -0.0015(4) 0.0008(4) -0.0026(4)
C6 0.0195(6) 0.0306(6) 0.0238(6) 0.0001(5) 0.0017(5) -0.0041(5)
C14 0.0203(6) 0.0200(5) 0.0203(5) -0.0024(4) 0.0030(4) -0.0051(4)
C8 0.0220(6) 0.0285(6) 0.0232(6) 0.0030(5) 0.0046(4) -0.0028(5)
C3 0.0226(6) 0.0292(6) 0.0251(6) 0.0005(5) 0.0051(5) -0.0008(5)
C4 0.0242(6) 0.0278(6) 0.0233(6) 0.0033(5) 0.0018(5) 0.0006(5)
C16 0.0261(6) 0.0255(6) 0.0214(6) 0.0045(5) 0.0024(5) -0.0040(5)
C7 0.0236(6) 0.0315(7) 0.0223(6) 0.0032(5) -0.0029(5) -0.0035(5)
C1 0.0306(7) 0.0400(7) 0.0240(6) 0.0025(5) 0.0078(5) -0.0078(6)
loop_
_atom_type_symbol
_atom_type_description
_atom_type_scat_dispersion_real
_atom_type_scat_dispersion_imag
_atom_type_scat_source
C C 0.0181 0.0091 'International Tables Vol C Tables 4.2.6.8 and 6.1.1.4'
H H 0.0000 0.0000 'International Tables Vol C Tables 4.2.6.8 and 6.1.1.4'
N N 0.0311 0.0180 'International Tables Vol C Tables 4.2.6.8 and 6.1.1.4'
O O 0.0492 0.0322 'International Tables Vol C Tables 4.2.6.8 and 6.1.1.4'
loop_
_geom_angle_atom_site_label_1
_geom_angle_atom_site_label_2
_geom_angle_atom_site_label_3
_geom_angle
C14 O2 C16 116.92(9)
C2 O1 C1 117.63(10)
N2 N1 N3 115.43(9)
N2 N1 C5 122.07(10)
N3 N1 C5 122.50(10)
N1 N2 C9 103.90(9)
C8 N3 N1 103.16(10)
N2 C9 C10 121.77(10)
N2 C9 C8 108.02(10)
C8 C9 C10 130.21(11)
C11 C10 C9 120.38(10)
C15 C10 C9 120.11(10)
C15 C10 C11 119.50(11)
C13 C12 H12 119.3
C11 C12 H12 119.3
C11 C12 C13 121.40(11)
C12 C13 H13 120.5
C12 C13 C14 119.05(11)
C14 C13 H13 120.5
C6 C5 N1 119.80(11)
C4 C5 N1 119.72(11)
C4 C5 C6 120.48(11)
O1 C2 C3 124.78(12)
O1 C2 C7 115.50(11)
C3 C2 C7 119.72(11)
C10 C11 H11 120.2
C12 C11 C10 119.59(11)
C12 C11 H11 120.2
C10 C15 H15 119.8
C10 C15 C14 120.41(11)
C14 C15 H15 119.8
C5 C6 H6 120.4
C7 C6 C5 119.29(11)
C7 C6 H6 120.4
O2 C14 C13 124.34(11)
O2 C14 C15 115.63(10)
C13 C14 C15 120.03(11)
N3 C8 C9 109.49(11)
N3 C8 H8 125.3
C9 C8 H8 125.3
C2 C3 H3 120.2
C4 C3 C2 119.69(12)
C4 C3 H3 120.2
C5 C4 C3 120.08(12)
C5 C4 H4 120.0
C3 C4 H4 120.0
O2 C16 H16A 109.5
O2 C16 H16B 109.5
O2 C16 H16C 109.5
H16A C16 H16B 109.5
H16A C16 H16C 109.5
H16B C16 H16C 109.5
C2 C7 H7 119.6
C6 C7 C2 120.72(11)
C6 C7 H7 119.6
O1 C1 H1A 109.5
O1 C1 H1B 109.5
O1 C1 H1C 109.5
H1A C1 H1B 109.5
H1A C1 H1C 109.5
H1B C1 H1C 109.5
loop_
_geom_bond_atom_site_label_1
_geom_bond_atom_site_label_2
_geom_bond_distance
O2 C14 1.3636(14)
O2 C16 1.4340(13)
O1 C2 1.3639(14)
O1 C1 1.4185(15)
N1 N2 1.3347(14)
N1 N3 1.3373(14)
N1 C5 1.4244(15)
N2 C9 1.3380(15)
N3 C8 1.3331(16)
C9 C10 1.4715(16)
C9 C8 1.4001(17)
C10 C11 1.4010(16)
C10 C15 1.3916(16)
C12 H12 0.9300
C12 C13 1.3919(16)
C12 C11 1.3807(17)
C13 H13 0.9300
C13 C14 1.3935(16)
C5 C6 1.3933(17)
C5 C4 1.3838(17)
C2 C3 1.3919(18)
C2 C7 1.3920(17)
C11 H11 0.9300
C15 H15 0.9300
C15 C14 1.3959(16)
C6 H6 0.9300
C6 C7 1.3795(17)
C8 H8 0.9300
C3 H3 0.9300
C3 C4 1.3894(17)
C4 H4 0.9300
C16 H16A 0.9600
C16 H16B 0.9600
C16 H16C 0.9600
C7 H7 0.9300
C1 H1A 0.9600
C1 H1B 0.9600
C1 H1C 0.9600
loop_
_refln_index_h
_refln_index_k
_refln_index_l
_refln_F_squared_meas
_refln_F_squared_sigma
0 0 2 525.88 3.45
0 0 3 181.53 2.52
0 0 4 302.47 3.8
0 0 5 593.27 5.98
0 0 6 8.45 0.8
0 0 -6 8.54 0.92
0 0 7 753.37 8.17
0 0 -7 752.4 9.39
0 0 -8 2181.05 17.82
0 0 -9 264.38 6.7
0 0 -10 134.93 5.17
0 0 -11 94.54 4.45
0 0 -11 89.21 3.59
0 0 -11 89.52 4.53
0 0 -11 89.1 3.52
0 0 -12 210.78 5.88
0 0 -12 222.91 7.29
0 0 -12 214.75 5.79
0 0 -12 218.57 7.53
0 0 -13 197.61 5.95
0 0 -13 195.45 5.8
0 0 -14 131.33 4.89
0 0 -14 129.94 4.8
0 0 -15 7.52 1.14
0 0 -15 9.53 1.32
0 0 -16 186.16 5.28
0 0 -16 180.05 5.16
0 0 -17 6.26 0.86
0 0 -18 1.35 0.4
0 1 -16 12.2 1.31
0 1 -16 12.6 1.25
0 1 -15 30.13 2.16
0 1 -15 30.66 2.21
0 1 -14 60.8 3.13
0 1 -14 57.7 3.11
0 1 -13 471.71 8.81
0 1 -13 480.16 8.6
0 1 -12 650.19 13.3
0 1 -12 640.07 12.54
0 1 -12 640.32 9.95
0 1 -12 648.49 9.53
0 1 -11 6.15 0.95
0 1 -11 6.58 1.3
0 1 -11 5.74 1.15
0 1 -11 6.89 0.94
0 1 -10 70.33 3.85
0 1 -10 69.93 3.73
0 1 -10 73.68 2.85
0 1 -9 193.19 5.7
0 1 -9 188.74 5.84
0 1 -8 218.47 5.55
0 1 -8 205.96 5.67
0 1 -7 176.82 4.6
0 1 -7 172.19 4.73
0 1 -6 655.83 8.42
0 1 -6 688.8 5.5
0 1 -5 157.47 2.39
0 1 -5 156.3 3.73
0 1 -4 250.99 4.27
0 1 -4 257.65 2.72
0 1 -3 0.34 0.19
0 1 -3 0.17 0.09
0 1 -2 918.65 5.76
0 1 -2 924.12 3.82
0 1 -1 12.33 0.58
0 1 -1 13.13 0.44
0 1 0 820.63 3.46
0 1 0 825.15 4.88
0 1 1 463.57 2.94
0 1 2 477.41 3.62
0 1 3 637.67 5.36
0 1 4 0.07 0.14
0 1 5 0.35 0.21
0 1 6 15.92 1.21
0 1 7 48.93 2.27
0 1 8 25.85 1.76
0 1 9 1.06 0.44
0 -1 -10 8.11 1.3
0 -1 -11 15.21 1.61
0 -1 -11 16.1 1.95
0 -1 -11 15.74 1.59
0 -1 -12 57.79 3.63
0 -1 -12 54.42 3.12
0 -1 -12 61.08 4.02
0 -1 -12 54.76 3.16
0 -1 -13 0.97 0.55
0 -1 -13 1.79 0.65
0 -1 -14 413.41 9.01
0 -1 -14 416.7 9.02
0 -1 -15 769.99 11.82
0 -1 -15 777.25 11.97
0 -1 -16 43.34 2.65
0 -1 -17 23 1.72
0 2 -17 11.93 1.04
0 2 -16 0.2 0.27
0 2 -15 46.08 2.54
0 2 -14 47.68 2.65
0 2 -13 31.83 2.15
0 2 -12 16.12 1.47
0 2 -11 369.85 6.77
0 2 -11 352.12 9.27
0 2 -10 735.29 9.3
0 2 -10 731.99 9.48
0 2 -9 497.16 9.64
0 2 -9 515.77 10.5
0 2 -8 48.8 2.81
0 2 -8 53 3.15
0 2 -7 512.97 9.18
0 2 -7 496.51 8.25
0 2 -6 289.58 6.35
0 2 -6 229.42 5.15
0 2 -5 263.2 5.05
0 2 -4 46.9 0.92
0 2 -4 44.99 1.91
0 2 -3 70.27 1.98
0 2 -3 67.34 1.19
0 2 -2 793.86 5.83
0 2 -2 791.19 4.3
0 2 -1 1613.73 6.39
0 2 -1 1617.36 10.28
0 2 0 6659.73 19.72
0 2 1 1606.54 7.08
0 2 1 1609.08 7.55
0 2 3 3323.8 13.35
0 2 4 12.28 0.95
0 2 5 414.41 6.21
0 2 6 0.64 0.35
0 2 7 1.42 0.45
0 2 8 180.91 5.07
0 2 9 1367.49 14.71
0 -2 -10 311.82 7.27
0 2 10 331.2 7.49
0 -2 -10 317.67 7.79
0 -2 -11 12.49 1.56
0 -2 -11 15.33 1.8
0 -2 -12 0.78 0.58
0 -2 -12 0.42 0.4
0 -2 -12 -0.14 0.46
0 -2 -13 55.99 3.41
0 -2 -14 192.25 6.24
0 -2 -15 263.02 7
0 -2 -16 456.01 8.64
0 -2 -17 29.29 1.94
0 3 -16 132.54 3.52
0 3 -15 10.8 1.15
0 3 -14 20.37 1.62
0 3 -13 1.19 0.47
0 3 -12 36.97 2.24
0 3 -11 61.54 2.88
0 3 -11 59.84 2.89
0 3 -10 535.2 8.62
0 3 -10 547.34 8.67
0 3 -9 388.2 7.54
0 3 -9 391.83 9.26
0 3 -9 400.12 7.51
0 3 -8 20.71 2.01
0 3 -7 26.23 2.11
0 3 -7 28.73 1.96
0 3 -6 138.98 3.93
0 3 -6 130.73 4.36
0 3 -5 102.27 3.09
0 3 -4 2521.56 13.94
0 3 -3 1658.71 10.21
0 3 -3 1542.94 13.42
0 3 -2 10.91 0.67
0 3 -2 11.42 1.13
0 3 -1 37.1 1.29
0 3 -1 35.74 1.89
0 3 0 329.2 4.07
0 3 0 328.61 5.51
0 3 0 321.5 4.3
0 3 1 67.56 1.91
0 3 1 61.36 1.73
0 3 2 34.93 1.5
0 3 3 258.37 4.4
0 3 4 28.35 1.69
0 3 5 81 3.06
0 3 6 139.4 4.43
0 3 7 14.67 1.57
0 3 8 1.07 0.52
0 3 9 144.86 5.27
0 3 10 6.57 1.05
0 -3 -10 6.61 1.2
0 3 10 6.86 1.21
0 -3 -11 7.88 1.34
0 3 11 7.62 1.14
0 -3 -12 3.67 0.95
0 -3 -13 74.01 4.06
0 -3 -14 14.98 1.78
0 -3 -15 1.62 0.56
0 -3 -16 47.51 2.69
0 -3 -17 374.23 6.43
0 4 -15 1.01 0.35
0 4 -14 52.95 2.34
0 4 -13 56.82 2.57
0 4 -12 23.98 1.76
0 4 -11 2.96 0.69
0 4 -11 3.03 0.68
0 4 -10 579.36 9.42
0 4 -10 587.84 9.46
0 4 -9 1114.15 13.83
0 4 -9 1112.95 13.51
0 4 -8 1099.48 13.48
0 4 -8 1100.67 14.01
0 4 -7 9.88 1.52
0 4 -7 6.87 1.1
0 4 -6 208.32 6.6
0 4 -5 56.5 3.26
0 4 -4 141.44 4.97
0 4 -3 1.36 0.31
0 4 -3 2.18 0.63
0 4 -2 382.45 7.48
0 4 -2 399.89 4.99
0 4 -1 478.11 8.07
0 4 -1 474.86 6.45
0 4 -1 490.35 5.78
0 4 0 761.55 7.64
0 4 0 747.03 7.31
0 4 1 28.08 1.54
0 4 2 1122.86 10.39
0 4 3 63 2.7
0 4 4 280.45 6.21
0 4 5 277.13 6.59
0 4 6 127.06 4.83
0 4 7 2.83 0.82
0 -4 -8 64.58 3.79
0 4 8 63.69 3.74
0 4 8 63.81 3.3
0 4 9 2.33 0.79
0 -4 -9 2.04 0.75
0 4 9 1.54 0.55
0 4 10 0.25 0.53
0 4 10 0.22 0.29
0 -4 -10 0.62 0.34
0 4 11 502.5 10.11
0 -4 -11 524.19 11.42
0 -4 -12 4.52 1.09
0 4 12 6.41 1.15
0 4 13 1.56 0.56
0 -4 -13 2.84 0.85
0 -4 -14 3.47 0.86
0 -4 -15 0.29 0.32
0 -4 -16 19.97 1.57
0 5 -14 13.06 1.17
0 5 -14 13.86 1
0 5 -13 19.39 1.32
0 5 -12 0.88 0.36
0 5 -11 15.27 1.41
0 5 -11 16.54 1.39
0 5 -11 16.72 1.35
0 5 -10 0.14 0.26
0 5 -10 0.23 0.25
0 5 -10 0.26 0.25
0 5 -9 80.3 3.69
0 5 -9 77.95 3.69
0 5 -8 439.4 8.92
0 5 -8 444.55 9.31
0 5 -7 415.03 10.61
0 5 -7 380.56 8.46
0 5 -6 215.94 7.33
0 5 -6 200.43 6.16
0 5 -6 223.4 6.96
0 5 -5 44.52 2.87
0 5 -5 47.02 3.32
0 5 -5 51.41 3.26
0 5 -4 181.03 5.72
0 5 -4 184 6.32
0 5 -3 103.2 4.58
0 5 -2 780.23 12.3
0 5 -1 1157.82 11.4
0 5 0 2.56 0.6
0 5 1 40.22 2.35
0 5 2 196.29 5.52
0 5 3 0.6 0.38
0 5 4 197.81 6.13
0 5 5 30.32 2.52
0 5 5 30.63 2.35
0 5 6 0.75 0.56
0 5 6 0.34 0.32
0 5 7 5.78 1.1
0 5 7 6.66 1.35
0 5 8 6.79 1.38
0 5 8 7.4 1.31
0 5 9 32.47 2.72
0 5 10 0.16 0.43
0 -5 -10 3.46 0.96
0 5 11 161.16 5.97
0 -5 -11 174.67 6.67
0 5 12 79.07 4.07
0 -5 -12 83.6 4.39
0 5 13 -0.14 0.51
0 -5 -13 0.51 0.45
0 -5 -14 0.87 0.41
0 -5 -15 3.66 0.66
0 6 -13 4.85 0.5
0 6 -12 75.61 2.3
0 6 -11 23.08 1.4
0 6 -11 27.25 1.56
0 6 -10 27.2 1.68
0 6 -10 28.33 1.79
0 6 -10 24.04 1.61
0 6 -9 19.29 1.66
0 6 -9 18.42 1.56
0 6 -9 18.28 1.63
0 6 -8 1390.76 15.5
0 6 -8 1399.95 15.19
0 6 -7 144.49 5.13
0 6 -7 138.18 5.21
0 6 -6 59.3 3.42
0 6 -5 33.99 2.69
0 6 -5 32.02 2.55
0 6 -4 9.8 1.44
0 6 -4 8.44 1.33
0 6 -3 75.15 3.9
0 6 -3 82.64 4.07
0 6 -2 20.36 2.01
0 6 -2 19.84 2.02
0 6 -2 21.11 2.25
0 6 -1 312.08 8.59
0 6 0 560.72 11.5
0 6 0 532.94 10.02
0 6 1 108.12 4.67
0 6 1 119.51 5.33
0 6 2 25.29 2.27
0 6 2 24.22 2.43
0 6 2 22.55 2.24
0 6 3 1.92 0.79
0 6 3 2.14 0.76
0 6 3 2.24 0.79
0 6 4 77.03 4.44
0 6 4 78.13 4.51
0 6 4 76.7 4.1
0 6 5 8.72 1.56
0 6 5 9.17 1.45
0 6 6 24.4 2.39
0 6 7 27.77 2.6
0 6 8 487.96 11.01
0 6 9 8.74 1.49
0 6 10 5.31 1.14
0 6 11 0.01 0.4
0 6 12 21.47 1.99
0 6 13 125.75 4.27
0 7 -10 10.43 0.87
0 7 -10 15.29 0.98
0 7 -9 8.53 0.89
0 7 -9 8.66 0.87
0 7 -9 8.47 0.8
0 7 -8 1.18 0.41
0 7 -8 1.31 0.44
0 7 -7 220.12 5.31
0 7 -7 220.06 5.5
0 7 -7 220.92 5.59
0 7 -6 40.23 2.38
0 7 -6 32.13 2.25
0 7 -5 0.39 0.29
0 7 -4 30.03 2.4
0 7 -3 2.61 0.75
0 7 -2 109.58 4.66
0 7 -1 162.86 5.77
0 7 -1 171.63 6.46
0 7 0 130.88 5.21
0 7 0 136.62 5.81
0 7 1 239.81 7.7
0 7 2 12.77 1.8
0 7 3 4.95 1.17
0 7 4 28.38 2.71
0 7 4 29.02 2.56
0 7 5 30.7 2.86
0 7 5 28.4 2.57
0 7 6 66.05 3.99
0 7 6 68.15 4.26
0 7 7 90.48 4.66
0 7 7 91.75 4.87
0 7 8 10.47 1.63
0 7 8 9.39 1.5
0 7 9 0.55 0.29
0 7 9 0.58 0.44
0 7 10 1.51 0.59
0 7 11 0.32 0.27
0 7 12 0.29 0.26
0 7 13 62.81 2.51
0 8 -8 6.03 0.62
0 8 -7 31.65 1.43
0 8 -7 32.59 1.6
0 8 -6 290.15 4.99
0 8 -6 285.05 5.05
0 8 -5 101.38 3.3
0 8 -5 99.74 3.18
0 8 -5 100.63 3.4
0 8 -4 7.33 0.91
0 8 -4 8.13 1.02
0 8 -3 1.63 0.48
0 8 -3 1.09 0.4
0 8 -2 40.89 2.47
0 8 -2 39.42 2.1
0 8 -1 2.42 0.63
0 8 -1 2.57 0.54
0 8 0 4.29 0.87
0 8 1 253.2 6.49
0 8 2 52.86 3.32
0 8 2 47.82 2.83
0 8 3 5.48 0.97
0 8 3 6.94 1.23
0 8 4 10.18 1.45
0 8 5 0.89 0.49
0 8 6 33.79 2.56
0 8 7 54.92 3.15
0 8 8 179.37 5.38
0 8 9 31.29 2.1
0 8 10 122.06 3.69
0 9 -4 20.99 1
0 9 -3 0.81 0.22
0 9 -1 50.26 1.92
0 9 0 -0.03 0.19
0 9 1 -0.07 0.21
0 9 2 8.32 0.84
0 9 3 20.77 1.3
0 9 4 16.01 1.1
-1 8 8 210.86 4.46
-1 8 7 2.32 0.54
-1 8 6 14.53 1.36
-1 8 5 163.63 4.74
-1 8 4 59.89 2.91
-1 8 3 35.8 2.15
-1 8 2 66.98 3
-1 8 1 287.67 6.23
-1 8 0 154.81 4.58
-1 8 -1 6.5 0.76
-1 8 -1 9.14 1.11
-1 8 -2 89.08 2.84
-1 8 -2 86.85 3.3
-1 8 -3 62.4 2.36
-1 8 -4 9.56 0.92
-1 8 -5 37.87 1.73
-1 8 -6 0.1 0.17
-1 8 -7 21.68 1.09
-1 7 11 7.45 0.97
-1 7 10 8.55 1.15
-1 7 10 7.65 0.98
-1 7 10 8.8 1.16
-1 7 9 7.75 1.07
-1 7 9 7.52 1.17
-1 7 9 7.21 1.16
-1 7 8 55.14 3.08
-1 7 8 62.39 3.47
-1 7 8 55.76 3.26
-1 7 7 54.35 3.36
-1 7 7 53.34 3.26
-1 7 7 54.77 3.2
-1 7 6 19.39 1.97
-1 7 6 21.44 2.15
-1 7 6 19.31 1.98
-1 7 5 1.1 0.55
-1 7 5 0.81 0.52
-1 7 5 0.38 0.44
-1 7 4 1.24 0.55
-1 7 4 1.44 0.59
-1 7 4 1.14 0.55
-1 7 3 74.76 3.98
-1 7 3 78.96 4.12
-1 7 2 86.31 4.27
-1 7 2 79.65 4.13
-1 7 1 0.5 0.44
-1 7 1 0.96 0.51
-1 7 0 13.44 1.68
-1 7 0 13.54 1.31
-1 7 -1 112.52 4.76
-1 7 -1 141.83 4.39
-1 7 -2 28.16 2
-1 7 -2 25.14 2.26
-1 7 -3 97.82 4.4
-1 7 -3 84.07 3.43
-1 7 -4 43.48 2.89
-1 7 -4 47.32 2.55
-1 7 -5 8.85 1.1
-1 7 -6 37.73 2.16
-1 7 -7 1.1 0.39
-1 7 -8 1.69 0.43
-1 7 -9 0.23 0.18
-1 7 -10 15.77 0.87
-1 6 13 3.86 0.71
-1 6 13 2.97 0.68
-1 6 12 0.75 0.42
-1 6 12 0.44 0.35
-1 6 11 3.95 0.9
-1 6 11 2.92 0.82
-1 6 10 107.45 5.02
-1 6 10 124.37 5.03
-1 6 9 0.42 0.42
-1 6 9 -0.06 0.37
-1 6 8 118.43 5.55
-1 6 8 114.57 5
-1 6 7 119.65 5.05
-1 6 7 116.98 5.56
-1 6 6 518.55 10.39
-1 6 6 527.78 11.58
-1 6 5 238.54 6.91
-1 6 5 258.68 7.96
-1 6 5 255.24 7.99
-1 6 4 43.18 2.9
-1 6 4 47.14 3.39
-1 6 3 0.96 0.63
-1 6 3 1.34 0.58
-1 6 3 1.22 0.45
-1 6 3 0.49 0.29
-1 6 2 1.7 0.71
-1 6 2 2.21 0.77
-1 6 2 2.57 0.8
-1 6 1 9.18 1.48
-1 6 1 11.56 1.23
-1 6 1 12.09 1.64
-1 6 0 51.58 3.44
-1 6 0 55.7 3.48
-1 6 -1 555.85 11.27
-1 6 -1 579.99 9.19
-1 6 -1 580.49 11.09
-1 6 -2 97.99 3.86
-1 6 -2 92.85 4.58
-1 6 -3 0.48 0.49
-1 6 -3 0.78 0.36
-1 6 -3 0.92 0.42
-1 6 -4 146.6 4.87
-1 6 -4 152.7 5.05
-1 6 -4 158.1 6.07
-1 6 -5 3.77 0.81
-1 6 -5 4.98 0.94
-1 6 -5 3.78 0.97
-1 6 -6 9.56 1.23
-1 6 -6 7.44 1.35
-1 6 -6 6.99 1.02
-1 6 -7 137.46 4.26
-1 6 -7 133.31 4.41
-1 6 -8 284.09 6.1
-1 6 -8 261.81 5.35
-1 6 -9 14.45 1.5
-1 6 -9 13.8 1.12
-1 6 -9 13.65 1.26
-1 6 -10 0.32 0.22
-1 6 -10 0.34 0.2
-1 6 -10 0.09 0.24
-1 6 -11 184.82 3.43
-1 6 -11 179.04 4.29
-1 5 15 2.76 0.62
-1 5 14 11.44 1.2
-1 5 13 27.5 2.09
-1 5 12 75.38 3.75
-1 5 11 99.78 4.46
-1 5 10 11.78 1.55
-1 5 9 0.01 0.32
-1 5 8 0.47 0.42
-1 5 7 0.72 0.49
-1 5 7 1.36 0.7
-1 5 6 5.31 1.02
-1 5 6 6.58 1.32
-1 5 5 288.94 7.04
-1 5 5 307.68 8.7
-1 5 5 303.43 8.62
-1 5 4 342.13 8.93
-1 5 4 327.4 8.74
-1 5 4 317.43 7.1
-1 5 3 1.74 0.53
-1 5 3 1.94 0.65
-1 5 2 39.34 2.83
-1 5 1 80.25 3.89
-1 5 0 184.4 6.28
-1 5 0 197.46 5.79
-1 5 -1 71 3.21
-1 5 -1 60.95 3.63
-1 5 -2 54.44 3.46
-1 5 -2 53.98 2.91
-1 5 -3 125.38 5.23
-1 5 -3 123.01 5.15
-1 5 -3 122.82 4.63
-1 5 -4 144.72 5.25
-1 5 -4 137.68 4.72
-1 5 -4 147.27 5.81
-1 5 -4 147.95 5.8
-1 5 -5 37.24 2.82
-1 5 -5 34.73 2.41
-1 5 -5 37.9 3
-1 5 -5 35.01 2.92
-1 5 -5 40.31 2.86
-1 5 -6 4.93 0.91
-1 5 -6 5.17 1.18
-1 5 -6 4.14 1.06
-1 5 -6 3.93 0.78
-1 5 -6 4.69 1.04
-1 5 -7 10.13 1.28
-1 5 -7 10.46 1.26
-1 5 -8 22.6 1.84
-1 5 -8 19.62 1.66
-1 5 -9 180.45 4.71
-1 5 -9 159.42 4.7
-1 5 -10 6.53 0.85
-1 5 -10 9.47 1.09
-1 5 -11 9.78 0.97
-1 5 -11 7.51 0.84
-1 5 -11 7.83 1.23
-1 5 -12 16.82 1.66
-1 5 -12 19.06 1.22
-1 5 -13 24.42 1.73
-1 5 -13 24.74 1.26
-1 5 -14 3.42 0.53
1 -4 -15 6.87 0.97
-1 4 14 401.57 7.47
1 -4 -14 389.89 8.07
-1 4 13 217.49 6.04
1 -4 -13 219.18 6.56
-1 4 12 187.82 5.86
1 -4 -12 204.91 6.57
1 -4 -11 246.46 7.38
-1 4 11 224.8 6.5
1 -4 -10 96.21 4.62
-1 4 10 89.37 4.09
-1 4 9 0.26 0.4
-1 4 9 0.6 0.43
-1 4 8 229.92 7.66
-1 4 8 234.92 6.22
-1 4 7 137.33 5.66
-1 4 7 136.49 4.56
-1 4 6 1280.4 16.75
-1 4 5 21.54 2.09
-1 4 4 443.65 9.12
-1 4 3 63.24 3.35
-1 4 2 577.67 9.62
-1 4 1 3.37 0.72
-1 4 1 4.32 0.71
-1 4 0 39.01 2.12
-1 4 0 34.55 2.14
-1 4 -1 295.58 6.72
-1 4 -1 286.94 6.09
-1 4 -2 1070.13 12.32
-1 4 -2 1097.86 13.26
-1 4 -3 688.69 10.96
-1 4 -4 35.11 2.59
-1 4 -5 120.77 5.04
-1 4 -6 73.39 4.07
-1 4 -6 63.75 3.05
-1 4 -6 78.04 4.21
-1 4 -7 8.16 1.43
-1 4 -7 7.2 1.02
-1 4 -7 8.62 1.47
-1 4 -8 6.46 1
-1 4 -8 5.39 1.24
-1 4 -8 4.05 0.78
-1 4 -9 164.19 4.74
-1 4 -9 140.45 4.29
-1 4 -10 2043.95 15.8
-1 4 -10 1961.97 15.59
-1 4 -11 1.57 0.46
-1 4 -12 26.54 1.68
-1 4 -13 94.23 3.02
-1 4 -14 72.77 2.45
-1 4 -15 2.63 0.54
1 -3 -17 2.07 0.45
1 -3 -16 11.68 1.23
1 -3 -15 1.3 0.45
1 -3 -14 40.25 2.73
1 -3 -13 0.06 0.28
-1 3 13 -0.16 0.36
1 -3 -12 3.85 0.92
-1 3 12 3.83 0.83
1 -3 -11 2.53 0.76
-1 3 11 2.07 0.64
-1 3 10 105.51 5.06
-1 3 10 103.31 3.99
1 -3 -10 104.06 4.43
-1 3 9 307.55 8.43
-1 3 9 314.97 6.63
1 -3 -9 321.9 7.51
-1 3 8 34.85 2.74
-1 3 7 23.67 2.17
-1 3 6 9.57 1.31
-1 3 5 54.04 2.95
-1 3 4 1.52 0.54
-1 3 3 193.22 5.11
-1 3 2 816.96 9.99
-1 3 1 47.7 2.04
-1 3 1 43.22 2.18
-1 3 0 262.48 5.05
-1 3 0 275.24 5.16
-1 3 -1 2.14 0.5
-1 3 -1 3.08 0.6
-1 3 -1 2.67 0.49
-1 3 -2 161.97 4.49
-1 3 -2 177.82 3.51
-1 3 -3 827.78 10.54
-1 3 -3 848.11 9.6
-1 3 -4 965.36 10.73
-1 3 -4 950.19 11.8
-1 3 -5 381.21 7.19
-1 3 -6 535.68 8.97
-1 3 -7 239.49 6.36
-1 3 -8 118.34 4.73
-1 3 -8 112.04 3.73
-1 3 -9 320.73 6.28
-1 3 -10 272.82 5.76
-1 3 -11 92.07 3.33
-1 3 -12 7.76 1.31
-1 3 -12 8 1
-1 3 -13 25.65 2.24
-1 3 -13 26.87 1.81
-1 3 -14 1.54 0.51
-1 3 -14 2.11 0.52
-1 3 -15 2.5 0.51
-1 3 -16 1.76 0.47
-1 3 -16 1.16 0.3
1 -2 -17 1.91 0.49
1 -2 -16 369.28 7.32
1 -2 -15 0.45 0.38
1 -2 -14 23.86 2.12
1 -2 -13 10.97 1.46
1 -2 -12 95.65 4.21
1 -2 -11 3.01 0.76
1 -2 -11 3.83 1.04
1 -2 -11 1.87 0.63
-1 2 11 3.14 0.69
-1 2 11 5.11 1.16
1 -2 -10 40.77 2.82
-1 2 10 48.22 2.44
1 -2 -10 48.09 2.71
-1 2 10 46.64 3.21
-1 2 9 1222.53 15.64
-1 2 8 277.7 7.18
-1 2 7 43.91 2.71
-1 2 6 2.49 0.64
-1 2 5 49.92 2.57
-1 2 4 1301.34 12.37
-1 2 3 11.74 1.12
-1 2 2 273.51 5.03
-1 2 1 86.15 2.65
-1 2 1 103.39 2.59
-1 2 0 224.98 4.09
-1 2 0 234.07 4.04
-1 2 -1 0.39 0.22
-1 2 -1 0.13 0.11
-1 2 -2 1578.07 11.26
-1 2 -2 1595.35 8.11
-1 2 -3 1287.67 10.78
-1 2 -3 1232.82 5.2
-1 2 -4 1198.53 11.18
-1 2 -5 10.57 1.13
-1 2 -6 217.14 5.57
-1 2 -7 221.48 6.16
-1 2 -7 223.16 6.1
-1 2 -8 374 8.43
-1 2 -8 353.78 8.4
-1 2 -9 3.52 0.9
-1 2 -9 3.47 0.9
-1 2 -9 4.91 0.74
-1 2 -10 1283.38 17.6
-1 2 -10 1309.92 12.13
-1 2 -11 1139.09 11.65
-1 2 -11 1053.29 16.62
-1 2 -12 1151.13 12.29
-1 2 -13 66.03 2.98
-1 2 -14 2.88 0.64
-1 2 -15 18.54 1.85
-1 2 -15 19.39 1.55
-1 2 -16 78.48 2.79
-1 2 -16 79.03 3.24
-1 2 -17 6.09 0.73
1 -1 -17 5.56 0.83
1 -1 -16 0.29 0.22
1 -1 -15 411.91 8.39
1 -1 -14 35.68 2.64
1 -1 -14 37.56 2.6
1 -1 -13 2.77 0.75
1 -1 -13 3.86 0.86
1 -1 -12 105.69 5.19
1 -1 -12 97.36 4
1 -1 -12 94.42 4.21
1 -1 -11 247.11 6.57
1 -1 -11 253.12 6.05
1 -1 -10 1.59 0.48
1 -1 -10 1.99 0.66
1 -1 -10 1.88 0.6
-1 1 9 5.42 1.02
-1 1 8 21.78 1.91
-1 1 7 551.01 8.98
-1 1 6 44.3 2.39
-1 1 5 14.58 1.3
-1 1 4 114.92 3.36
-1 1 3 6.66 0.75
-1 1 2 71.55 2.25
-1 1 1 592.82 5.89
-1 1 1 594.41 5.2
-1 1 0 329.94 3.85
-1 1 0 325.85 3.56
-1 1 -1 311.94 3.19
-1 1 -2 621.34 3.4
-1 1 -3 0.72 0.26
-1 1 -3 0.45 0.24
-1 1 -4 38.55 1.9
-1 1 -4 39.8 1.86
-1 1 -5 1586.81 12.88
-1 1 -5 1551.69 12.68
-1 1 -6 2738.68 18.62
-1 1 -6 2756.61 18.32
-1 1 -7 539.12 8.81
-1 1 -7 549.53 8.93
-1 1 -8 51.38 2.94
-1 1 -8 52.52 3
-1 1 -9 39.35 2.79
-1 1 -9 39.94 2.81
-1 1 -10 7.51 1.34
-1 1 -10 7.23 0.91
-1 1 -10 7.86 1.35
-1 1 -11 539.12 11.85
-1 1 -11 531.46 11.68
-1 1 -11 534.47 8.21
-1 1 -12 146.21 4.53
-1 1 -13 2.48 0.63
-1 1 -14 4.55 0.85
-1 1 -15 4.22 0.79
-1 1 -16 4.28 0.73
-1 1 -16 3.69 0.86
-1 1 -17 8.1 1.02
1 0 -17 11.07 1.13
1 0 -16 4.3 0.84
1 0 -16 1.46 0.52
1 0 -15 163.12 5.21
1 0 -15 161.85 5.27
1 0 -14 537.42 9.84
1 0 -14 530.77 9.53
1 0 -13 327.1 7.32
1 0 -13 337.36 7.74
1 0 -12 272.08 8.24
1 0 -12 258.37 6.23
1 0 -12 267.32 6.69
1 0 -11 92.36 3.68
1 0 -11 91.71 4.52
1 0 -11 93.5 3.52
1 0 -10 9.5 1.38
1 0 -10 10.72 1.11
-1 0 9 85.18 3.93
1 0 -9 74.78 3.56
-1 0 8 291.36 6.98
1 0 -8 254.9 5.97
1 0 -7 3037.05 18.92
-1 0 7 3045.38 20.97
-1 0 6 2.13 0.53
-1 0 5 288.02 5.6
-1 0 4 12.43 1.07
-1 0 3 1669.54 11.19
-1 0 2 1117.5 8.24
-1 0 1 1232 7.6
-1 0 -1 1852.83 6.38
-1 0 -1 1858.52 8.79
1 0 1 1845.47 7.86
-1 0 -2 5161.88 13.84
-1 0 -2 5186.43 15.13
-1 0 -3 2054.29 10.36
1 0 3 2070.3 5.83
-1 0 -4 1374.77 9.78
1 0 4 1355.38 5
-1 0 -5 0.91 0.31
-1 0 -5 0.76 0.27
-1 0 -6 14.29 1.22
-1 0 -6 16.05 1.31
-1 0 -7 393.22 6.97
-1 0 -7 402.68 7.2
-1 0 -8 28.3 2.09
-1 0 -8 29.04 2.07
-1 0 -9 206.11 5.89
-1 0 -9 207.78 6.1
-1 0 -10 32.57 2.63
-1 0 -10 32.56 2.55
-1 0 -11 490.2 10.85
-1 0 -11 469.35 9
-1 0 -11 476.35 10.34
-1 0 -11 488.64 8.37
-1 0 -12 1064.09 12.94
-1 0 -12 1140.71 17.47
-1 0 -12 1139.77 16.99
-1 0 -12 1084.49 14.32
-1 0 -13 223.96 6.1
-1 0 -13 223.59 6.58
-1 0 -14 40.7 2.65
-1 0 -14 44.16 2.89
-1 0 -15 0.09 0.25
-1 0 -15 0.77 0.43
-1 0 -16 2.48 0.6
-1 0 -17 40.09 2.47
1 1 -17 0.56 0.26
1 1 -16 1.04 0.45
1 1 -16 0.97 0.39
1 1 -15 6.06 0.99
1 1 -15 6.34 1.01
1 1 -14 0.13 0.33
1 1 -14 0.45 0.38
1 1 -13 1101.21 13
1 1 -13 1137.03 13.35
1 1 -12 914.16 11.42
1 1 -12 921.26 15.53
1 1 -12 905.39 11.42
1 1 -12 883.19 14.46
1 1 -11 136.59 4.17
1 1 -11 138.19 4.23
1 1 -11 137.19 5.68
1 1 -11 133.13 5.35
-1 -1 10 0.75 0.38
1 1 -10 2.23 0.72
1 1 -10 1.58 0.46
1 1 -9 166.56 5.4
1 1 -8 5.88 0.96
1 1 -7 4.19 0.75
-1 -1 6 132.39 4.06
1 1 -6 135.14 3.71
-1 -1 5 268.34 5.36
1 1 -5 280.06 4.8
-1 -1 4 15.36 1.18
1 1 -4 14.97 0.99
1 1 -3 9.2 0.67
1 1 -2 6.98 0.64
1 1 -2 6.92 0.51
1 1 -1 577.07 5.5
-1 -1 0 480.53 2.96
1 1 0 457.77 4.69
1 1 1 18.73 0.88
1 1 2 987.54 6.13
-1 -1 -2 1020.26 5.15
-1 -1 -3 278.74 3.32
1 1 3 262.05 2.98
1 1 4 1510.51 6.5
-1 -1 -4 1498.85 9.12
1 1 5 73.15 1.7
1 1 6 47.96 1.7
-1 -1 -7 218.35 4.91
1 1 7 205.07 3.92
-1 -1 -8 821.07 10.43
-1 -1 -9 397.05 8.39
-1 -1 -9 394.51 7.92
-1 -1 -10 1.63 0.58
-1 -1 -10 2.11 0.73
-1 -1 -11 39.55 2.75
-1 -1 -11 38.35 2.54
-1 -1 -11 36.79 2.77
-1 -1 -11 40.32 3.12
-1 -1 -12 49.36 3.4
-1 -1 -12 46.57 3.1
-1 -1 -12 53.79 3.78
-1 -1 -12 48.7 2.98
-1 -1 -13 112.14 4.64
-1 -1 -13 113 4.88
-1 -1 -14 110.55 4.57
-1 -1 -14 106.16 4.69
-1 -1 -15 114.74 4.66
-1 -1 -16 19.82 1.79
-1 -1 -17 4.34 0.73
-1 -1 -18 5.31 0.72
1 2 -17 0.43 0.22
1 2 -16 15.51 1.23
1 2 -16 15.66 1.39
1 2 -15 0.34 0.28
1 2 -15 0.72 0.36
1 2 -14 169.11 4.93
1 2 -14 175.65 5.13
1 2 -13 4.05 0.78
1 2 -13 6.08 0.97
1 2 -12 190.01 5.09
1 2 -12 190.2 5.16
1 2 -11 287.56 8
1 2 -11 313.42 6.2
1 2 -11 299.18 6.35
-1 -2 10 686.81 9.16
1 2 -10 689.43 9.46
1 2 -10 680.85 9.38
1 2 -9 36.69 2.51
1 2 -9 43.96 3.01
1 2 -8 123.01 4.72
1 2 -8 120.66 4.22
1 2 -7 421.91 8.08
1 2 -6 2492.44 17.95
1 2 -6 2593.42 15
1 2 -5 1523.99 11.2
1 2 -4 1.84 0.39
1 2 -3 228.27 4.01
1 2 -2 424.71 5.29
1 2 -1 115.49 2.61
1 2 -1 115.09 1.58
1 2 0 256.31 3.41
1 2 0 261.46 3.78
1 2 1 661.04 5.88
1 2 3 31.93 1.22
1 2 4 1191.4 7.33
1 2 5 953.23 7.04
1 2 6 142.2 3.25
1 2 7 289.75 5.35
1 2 8 29.73 1.87
-1 -2 -9 118.47 4.2
-1 -2 -10 753.19 12.05
-1 -2 -10 744.55 12.21
-1 -2 -11 76.67 4.04
-1 -2 -11 91.64 4.77
-1 -2 -11 89.41 4.22
-1 -2 -11 80.78 4.07
-1 -2 -12 119.23 5.04
-1 -2 -12 120.06 5.1
-1 -2 -12 118.32 5.15
-1 -2 -12 132.3 6.08
-1 -2 -13 87.32 4.48
-1 -2 -14 3.53 0.9
-1 -2 -15 78.36 3.93
-1 -2 -16 20.43 1.85
-1 -2 -17 6.83 0.96
-1 -2 -17 8.94 1.05
1 3 -16 76.28 2.75
1 3 -15 7.19 0.94
1 3 -14 5.26 0.86
1 3 -13 42.62 2.44
1 3 -12 46.77 2.61
1 3 -11 902.84 11.57
1 3 -11 911.77 11.68
-1 -3 10 1379.2 12.72
1 3 -10 1364.07 14.44
1 3 -10 1409.22 14.61
1 3 -9 212.85 6.3
1 3 -9 211.29 5.64
-1 -3 9 230.21 5.11
1 3 -9 215.65 5.92
1 3 -8 0.72 0.44
1 3 -7 75.44 3.25
1 3 -6 318.93 6.16
1 3 -5 67.72 2.23
1 3 -5 57.12 2.37
1 3 -4 15.47 1.07
1 3 -4 16 1.14
1 3 -3 27.34 1.4
1 3 -3 25.95 1.65
1 3 -3 26.57 1.33
1 3 -2 51.33 1.89
1 3 -2 43.08 2.05
1 3 -1 11.58 0.99
1 3 -1 12.96 0.93
1 3 0 201.75 3.55
1 3 1 26.75 1.3
1 3 2 563.05 5.8
1 3 3 1156.03 8.42
1 3 4 249.03 4.01
1 3 5 98.55 2.71
1 3 6 104.78 3.19
1 3 7 38.19 2.17
1 3 8 8.07 1.11
-1 -3 -9 17.7 1.96
1 3 9 16.1 1.66
-1 -3 -10 7.71 1.35
-1 -3 -11 13.78 1.87
-1 -3 -12 6.87 1.36
-1 -3 -13 0.2 0.36
-1 -3 -14 72.61 4.05
-1 -3 -15 41.22 2.86
-1 -3 -16 78.25 3.5
-1 -3 -17 300.22 5.8
1 4 -16 223.55 3.87
1 4 -15 1.1 0.37
1 4 -14 0.53 0.3
1 4 -13 8.51 1.06
1 4 -12 72.36 3.2
1 4 -11 44.56 2.65
1 4 -11 45.69 2.68
1 4 -10 99.35 4.11
1 4 -10 95.85 4.14
1 4 -9 336.46 7.79
1 4 -9 333.95 8.16
1 4 -9 343.06 9.35
1 4 -8 56.14 3.37
1 4 -8 57.15 3.23
1 4 -8 62.2 3.84
1 4 -7 458.47 9.97
1 4 -7 452.52 9.17
1 4 -6 59.36 3.45
1 4 -5 454.91 9
1 4 -4 320.45 7.18
1 4 -3 17.46 1.59
1 4 -3 20.73 1.2
1 4 -2 12.99 1.3
1 4 -2 13.24 0.98
1 4 -1 154.07 4.34
1 4 -1 157.95 3.4
1 4 0 93.87 2.61
1 4 1 287.91 4.62
1 4 2 1674.31 11.34
1 4 3 1327.69 10.3
1 4 4 9999 29.96
1 4 5 2303.69 15.5
1 4 6 461.53 7.91
1 4 7 0.53 0.41
1 4 8 21.8 2.09
1 4 8 22.85 2.1
-1 -4 -8 22.85 2.37
1 4 9 7.03 1.24
1 4 9 6.08 1.11
-1 -4 -9 7.96 1.43
-1 -4 -10 141.02 6.19
1 4 10 122.52 5.03
1 4 10 135.71 5.51
-1 -4 -11 422.93 10.84
1 4 11 393.58 9
-1 -4 -12 172.05 6.82
-1 -4 -13 1.06 0.58
-1 -4 -14 0.6 0.45
-1 -4 -15 34.1 2.48
-1 -4 -16 58.27 2.8
-1 -4 -17 126.31 3.27
1 5 -14 170.21 3.74
1 5 -13 6 0.79
1 5 -12 33.03 2.01
1 5 -11 5.39 0.93
1 5 -11 4.63 0.84
1 5 -10 81.31 3.8
1 5 -10 80.97 3.71
1 5 -9 243.94 6.8
1 5 -9 250.8 7.18
1 5 -8 866.68 13.91
1 5 -8 900.95 13.46
1 5 -7 54.43 3.74
1 5 -7 57.72 3.45
1 5 -6 13.13 1.77
1 5 -6 14.38 1.74
1 5 -5 26.58 2.43
1 5 -5 26.39 2.32
1 5 -4 401.7 9.01
1 5 -4 432.69 9.16
1 5 -3 6.08 0.73
1 5 -3 4.12 0.88
1 5 -2 508.04 6.72
1 5 -1 320.45 5.42
1 5 0 2.56 0.53
1 5 1 12.97 1.15
1 5 2 50.24 2.31
1 5 3 0.91 0.39
1 5 4 10.12 1.2
1 5 5 301.8 6.85
1 5 5 276.48 7.52
1 5 6 31.41 2.43
1 5 6 23.25 2.25
1 5 7 18.21 2
1 5 7 15.06 1.85
-1 -5 -7 19.73 2.32
1 5 8 42.09 3.16
1 5 8 44.47 3.29
-1 -5 -8 48.7 3.75
-1 -5 -9 18.57 2.34
1 5 9 16.65 2.08
1 5 9 17.7 2.1
1 5 10 1.83 0.71
-1 -5 -10 2.79 0.88
1 5 11 30.59 2.65
-1 -5 -11 29.77 2.93
-1 -5 -12 5.14 1.18
-1 -5 -13 2.37 0.8
-1 -5 -14 0.15 0.28
-1 -5 -15 11.49 1.27
1 6 -13 17.39 1.06
1 6 -12 11.37 0.99
1 6 -11 44.09 2.01
1 6 -11 50 2.31
1 6 -11 50.17 2.35
1 6 -10 34.05 2.18
1 6 -10 33.3 2.17
1 6 -9 11.14 1.44
1 6 -9 10.64 1.36
1 6 -8 130.04 4.98
1 6 -8 128.96 5.22
1 6 -7 843.92 13.29
1 6 -6 387.35 9.14
1 6 -5 10.2 1.61
1 6 -5 10.38 1.52
1 6 -4 139.31 5.53
1 6 -3 4.33 1
1 6 -2 32.14 2.86
1 6 -2 27.5 2.46
1 6 -1 1.93 0.78
1 6 -1 0.16 0.19
1 6 0 62.25 2.87
1 6 0 61.52 3.9
1 6 1 95.61 4.84
1 6 1 95.34 3.71
1 6 2 158.95 6.3
1 6 2 153.81 4.92
1 6 3 0.14 0.32
1 6 3 0.01 0.28
1 6 4 709.07 11.74
1 6 4 747.36 13.98
1 6 5 11.56 1.65
1 6 5 5.45 1.3
1 6 6 653.44 12.95
1 6 6 663.18 12.8
1 6 7 548.88 12.03
1 6 8 59.67 4.03
-1 -6 -9 4.48 1.11
1 6 9 3.8 1.04
-1 -6 -10 32.6 2.93
-1 -6 -11 0.6 0.47
-1 -6 -12 29.71 2.46
-1 -6 -13 172.45 5.2
-1 -6 -14 0.27 0.25
1 7 -11 33.56 1.44
1 7 -11 27.12 1.2
1 7 -10 9.62 0.93
1 7 -10 8.35 0.84
1 7 -10 7.96 0.8
1 7 -9 1.95 0.51
1 7 -9 2 0.52
1 7 -9 2.76 0.56
1 7 -8 9.55 1.18
1 7 -8 8.18 1.16
1 7 -7 8.3 1.28
1 7 -7 9.05 1.27
1 7 -6 644.55 11.17
1 7 -5 190.04 6.22
1 7 -4 98.53 4.6
1 7 -3 0.26 0.38
1 7 -2 0.8 0.53
1 7 -1 0.66 0.5
1 7 -1 0.18 0.36
1 7 0 235.69 7.99
1 7 1 527.69 12.02
1 7 2 0.92 0.56
1 7 3 16.49 2.14
1 7 4 48.87 3.67
1 7 5 0.92 0.63
1 7 6 28.58 2.86
1 7 7 26.18 2.71
1 7 8 2.27 0.84
1 7 9 1.51 0.72
1 7 10 4.92 1.11
1 7 11 43.46 2.97
1 7 12 12.47 1.43
1 7 13 50.58 2.44
1 8 -9 0.65 0.2
1 8 -9 1.35 0.28
1 8 -8 28.54 1.45
1 8 -8 28.25 1.43
1 8 -8 25.7 1.37
1 8 -7 47.57 2.06
1 8 -7 46.64 2.19
1 8 -7 50.42 2.26
1 8 -6 587.92 8.86
1 8 -6 587.68 8.56
1 8 -6 611.69 7.92
1 8 -5 148.69 4.62
1 8 -4 31.46 2.24
1 8 -3 12.91 1.5
1 8 -2 0.29 0.34
1 8 -1 28.95 2.36
1 8 0 8.83 0.99
1 8 0 5.28 1.06
1 8 1 120.44 4.91
1 8 1 125.55 5.49
1 8 2 134.82 5.66
1 8 3 49.04 3.42
1 8 4 2.99 0.88
1 8 5 0.28 0.35
1 8 6 0.09 0.33
1 8 7 31.34 2.58
1 8 8 29.47 2.41
1 8 9 98.81 4.08
1 8 10 49.73 2.64
1 8 11 6.15 0.82
1 9 -5 138.19 2.99
1 9 -5 142.58 2.95
1 9 -4 67.35 2.4
1 9 -4 70.42 2.35
1 9 -4 71.99 2.14
1 9 -3 3.03 0.54
1 9 -3 5.32 0.61
1 9 -2 42.06 2.11
1 9 -2 40.05 1.62
1 9 -1 7.99 0.97
1 9 0 14.4 1.33
1 9 1 53.24 2.58
1 9 2 82.03 3.21
1 9 3 225.96 5.28
1 9 4 0.25 0.26
1 9 5 0.75 0.37
1 9 5 0.94 0.36
1 9 6 12.03 1.11
1 9 6 11.96 1.26
1 9 7 23.12 1.43
1 9 7 25.38 1.7
1 9 8 10.3 0.97
-2 8 5 122.05 3.25
-2 8 4 410.22 6.34
-2 8 3 152.65 4.04
-2 8 2 248.83 5.24
-2 8 1 228.04 5.08
-2 8 0 163.31 4.27
-2 8 -1 0.95 0.34
-2 8 -2 54.35 1.73
-2 8 -2 59.23 2.44
-2 8 -3 110.53 2.47
-2 8 -4 106.88 2.35
-2 8 -5 12.04 0.74
-2 7 10 -0.01 0.15
-2 7 10 0.02 0.26
-2 7 9 25.99 1.76
-2 7 9 27.62 1.82
-2 7 8 0.97 0.41
-2 7 8 0.96 0.4
-2 7 7 0.61 0.38
-2 7 7 0.88 0.4
-2 7 6 34.72 2.28
-2 7 6 31.97 2.41
-2 7 5 14.11 1.65
-2 7 5 12.26 1.36
-2 7 4 18.65 1.95
-2 7 3 4.09 0.93
-2 7 2 5.04 1.03
-2 7 1 1.63 0.61
-2 7 0 295.21 5.38
-2 7 0 275.03 7.33
-2 7 -1 708.23 8.63
-2 7 -1 644.71 11.17
-2 7 -2 85.35 4.03
-2 7 -2 108.66 3.48
-2 7 -3 7.19 1.15
-2 7 -3 7.71 0.94
-2 7 -4 13.48 1.53
-2 7 -4 11.62 1.12
-2 7 -5 0.77 0.35
-2 7 -6 0.32 0.24
-2 7 -7 71.33 2.31
-2 7 -8 12.62 0.88
-2 6 12 172.07 4.73
-2 6 12 173.35 4.42
-2 6 11 63.45 3.29
-2 6 11 62.32 2.93
-2 6 10 48.86 2.77
-2 6 10 50 3.19
-2 6 9 38.64 2.99
-2 6 9 43.16 2.74
-2 6 8 83.68 3.88
-2 6 8 78.8 4.44
-2 6 7 0.86 0.57
-2 6 7 0.3 0.32
-2 6 6 251.19 6.72
-2 6 6 258.58 8.26
-2 6 5 2.74 0.89
-2 6 5 2.53 0.72
-2 6 4 79.97 4.6
-2 6 4 85.1 3.81
-2 6 4 79.98 4.55
-2 6 3 464.03 10.93
-2 6 2 266.18 8.22
-2 6 1 78.84 4.46
-2 6 1 84.09 3.17
-2 6 0 118.07 5.42
-2 6 0 123.83 4.03
-2 6 -1 523.4 11.29
-2 6 -1 556.83 8.83
-2 6 -2 754.69 12
-2 6 -2 738.02 10.42
-2 6 -3 3.26 0.93
-2 6 -3 3.76 0.82
-2 6 -4 40.6 3.08
-2 6 -4 38.76 2.4
-2 6 -5 217.24 7.05
-2 6 -5 199.58 5.36
-2 6 -6 59.09 2.84
-2 6 -6 59.49 3.59
-2 6 -6 57.05 2.96
-2 6 -7 10.73 1.26
-2 6 -7 11.91 1.21
-2 6 -8 11.29 1.23
-2 6 -8 12.44 1.16
-2 6 -9 47.57 2.33
-2 6 -9 46.23 1.97
-2 6 -10 4.4 0.63
-2 6 -10 4.39 0.53
-2 5 14 0.3 0.22
-2 5 14 0.55 0.31
-2 5 13 97.98 3.45
-2 5 13 108.07 4.44
-2 5 12 64.78 3.81
-2 5 12 63.62 3.05
-2 5 11 60.2 3.15
-2 5 11 55.4 3.81
-2 5 10 13.54 1.98
-2 5 10 14.78 1.65
-2 5 9 20.22 2.5
-2 5 9 21.77 2.01
-2 5 8 32.84 3.2
-2 5 8 34.52 2.5
-2 5 7 3.03 0.97
-2 5 7 1.73 0.62
-2 5 6 18.16 1.75
-2 5 6 19.81 2.46
-2 5 5 60.04 3.13
-2 5 5 63.52 4.21
-2 5 4 50.86 3.77
-2 5 4 56.31 3.86
-2 5 4 51.88 2.82
-2 5 3 6.12 0.95
-2 5 3 6.42 1.34
-2 5 3 6.14 1.26
-2 5 2 2.53 0.83
-2 5 1 78.53 4.44
-2 5 1 83.41 3.2
-2 5 0 91.35 4.79
-2 5 0 99.75 3.62
-2 5 -1 4.31 1.07
-2 5 -1 5.46 0.91
-2 5 -2 128.1 5.65
-2 5 -2 119.11 4.83
-2 5 -2 122.29 4.27
-2 5 -3 633.91 10.95
-2 5 -3 621.26 12.29
-2 5 -3 600.24 11.4
-2 5 -3 598.47 11.08
-2 5 -4 232.7 7.66
-2 5 -4 243.58 7.15
-2 5 -4 236.15 6.96
-2 5 -4 227.97 7.08
-2 5 -4 240.79 6.22
-2 5 -5 34.59 2.6
-2 5 -5 28.51 2.14
-2 5 -5 36.29 3.04
-2 5 -5 33.26 2.71
-2 5 -6 53.79 3.49
-2 5 -6 47.02 3.46
-2 5 -6 54.45 3.19
-2 5 -6 57.07 3.01
-2 5 -7 15.94 2.03
-2 5 -7 16.5 1.94
-2 5 -7 14.68 1.49
-2 5 -8 34.1 2.76
-2 5 -8 32.46 2.1
-2 5 -9 7.69 0.96
-2 5 -9 8.77 1.38
-2 5 -10 7.39 1.19
-2 5 -10 7.5 0.85
-2 5 -11 1.3 0.51
-2 5 -11 1.44 0.34
-2 5 -12 15.26 1.36
-2 5 -13 13.73 1.04
-2 4 15 37.9 2.34
-2 4 14 119.06 3.69
-2 4 13 781.79 10.61
-2 4 12 308.39 7.06
-2 4 11 109.61 4.31
-2 4 10 102.06 4.19
-2 4 9 5.36 1
-2 4 8 132.73 4.6
-2 4 7 73.56 4.51
-2 4 7 45.2 2.6
-2 4 6 15.98 2.07
-2 4 6 18.29 1.65
-2 4 5 614.98 12.33
-2 4 5 621.61 12.83
-2 4 5 597.37 8.98
-2 4 4 862.06 14.79
-2 4 4 827.09 13.8
-2 4 4 863.36 10.3
-2 4 3 518.85 10.49
-2 4 2 4.82 1
-2 4 1 90.89 3.97
-2 4 0 2.26 0.62
-2 4 -1 6.58 1.07
-2 4 -2 14.53 1.62
-2 4 -2 14.82 1.68
-2 4 -2 12.6 1.68
-2 4 -3 939.48 13.48
-2 4 -3 935.88 13.36
-2 4 -3 903.34 13.47
-2 4 -3 958.1 14.83
-2 4 -3 916.86 11.18
-2 4 -4 655.33 9.64
-2 4 -4 671.15 11.92
-2 4 -4 646.38 11.83
-2 4 -4 669.24 11.87
-2 4 -4 667.49 11.76
-2 4 -5 82.27 4.3
-2 4 -5 86.83 4.57
-2 4 -5 80.25 4.36
-2 4 -5 85.04 4.2
-2 4 -5 78.59 4.2
-2 4 -5 85.08 3.55
-2 4 -6 194.77 6.87
-2 4 -6 203.34 7.15
-2 4 -6 202.63 6.45
-2 4 -6 187.68 5.37
-2 4 -6 196.88 6.89
-2 4 -7 2.05 0.78
-2 4 -7 1.41 0.5
-2 4 -7 1.01 0.52
-2 4 -8 66.06 4.16
-2 4 -8 68.3 3.14
-2 4 -9 95.49 5.01
-2 4 -9 95.7 3.55
-2 4 -10 72.52 2.87
-2 4 -10 67.2 4.1
-2 4 -11 0.89 0.48
-2 4 -12 10.94 1.48
-2 4 -13 158.98 4.94
-2 4 -14 37.59 2.05
-2 3 16 54.26 2.67
2 -3 -15 91.62 3.32
-2 3 14 13.77 1.31
2 -3 -14 13.64 1.44
2 -3 -13 38.68 2.6
-2 3 13 41.36 2.47
2 -3 -12 60.31 3.32
-2 3 12 61.85 3.14
2 -3 -11 151.46 5.29
-2 3 11 140.97 4.7
-2 3 10 64.47 3.15
2 -3 -10 68.25 3.5
-2 3 9 141.75 6.39
-2 3 9 142.98 4.59
-2 3 8 46.11 2.54
-2 3 8 40.12 3.28
-2 3 7 8.47 1.08
-2 3 7 7.76 1.42
-2 3 6 10.47 1.56
-2 3 5 1.08 0.56
-2 3 4 15.4 1.75
-2 3 3 387.14 8.28
-2 3 2 792.23 11.2
-2 3 1 23.46 1.82
-2 3 1 25.31 1.79
-2 3 0 76.07 3.03
-2 3 0 69.53 3.03
-2 3 -1 237.95 5.48
-2 3 -1 244.83 4.92
-2 3 -1 231.43 5.81
-2 3 -2 597.74 9.69
-2 3 -2 612.6 9.18
-2 3 -3 3.21 0.71
-2 3 -4 1.74 0.58
-2 3 -5 12.89 1.57
-2 3 -5 8.56 1.27
-2 3 -6 6.92 1.19
-2 3 -6 6.19 1.16
-2 3 -6 6.47 1.13
-2 3 -6 7 1.22
-2 3 -6 8.11 1.04
-2 3 -7 22.7 2.3
-2 3 -7 26.28 2.3
-2 3 -7 21.77 2.24
-2 3 -7 20.95 1.69
-2 3 -7 18.21 2
-2 3 -8 -0.31 0.45
-2 3 -8 0.94 0.39
-2 3 -8 1.11 0.63
-2 3 -9 49.48 3.42
-2 3 -9 49.65 2.48
-2 3 -9 46.06 3.38
-2 3 -10 17.7 2.05
-2 3 -11 62.92 3.74
-2 3 -12 4 0.91
-2 3 -13 0.79 0.41
-2 3 -14 8.9 1.24
-2 3 -15 26.45 1.78
2 -2 -16 4.02 0.7
2 -2 -15 5.92 0.94
2 -2 -14 108.15 4.22
2 -2 -13 26.29 2.15
-2 2 13 28.23 1.96
2 -2 -12 767.98 11.57
-2 2 12 795.78 10.66
2 -2 -11 803.81 11.46
-2 2 11 838.72 10.84
2 -2 -10 226.41 5.82
-2 2 10 229.61 8.1
-2 2 10 238.66 5.76
-2 2 9 200.67 7.32
2 -2 -9 213.14 5.36
-2 2 9 218.81 5.38
-2 2 8 36.79 3.02
-2 2 8 43.81 2.35
-2 2 7 12.04 1.67
-2 2 6 845.6 12.96
-2 2 5 549.23 9.97
-2 2 4 1753.99 16.98
-2 2 3 324.73 6.87
-2 2 2 580.66 8.68
-2 2 1 610.25 8.24
-2 2 1 605.25 7.88
-2 2 0 1660.27 12.51
-2 2 0 1637.05 13.32
-2 2 -1 4.31 0.6
-2 2 -1 4.86 0.67
-2 2 -2 43.26 2.1
-2 2 -2 43.81 1.67
-2 2 -3 386.28 6.67
-2 2 -3 383.19 7.25
-2 2 -4 816.77 11.08
-2 2 -5 1077.6 13.39
-2 2 -6 150.24 5.27
-2 2 -7 6.09 1.11
-2 2 -8 81.69 4.38
-2 2 -8 80.74 4.3
-2 2 -9 3.34 0.93
-2 2 -9 2.85 0.89
-2 2 -10 46.03 3.5
-2 2 -10 45.55 3.49
-2 2 -11 108.02 5.38
-2 2 -12 1312.05 12.76
-2 2 -12 1283.13 18.22
-2 2 -13 6.49 1.27
-2 2 -13 7.46 0.97
-2 2 -14 35.23 1.95
-2 2 -14 32.86 2.55
-2 2 -15 115.56 4.22
-2 2 -15 116.26 4.15
-2 2 -16 19.55 1.35
-2 2 -16 18.6 1.38
2 -1 -17 6.74 0.81
2 -1 -16 50.99 2.57
2 -1 -15 27.91 2.06
2 -1 -14 146.07 4.88
2 -1 -13 25.3 2.06
2 -1 -12 41.69 2.55
2 -1 -12 39.41 2.69
2 -1 -11 45.1 2.55
-2 1 11 46.55 3.63
2 -1 -11 43.9 2.76
-2 1 11 50.46 2.51
2 -1 -10 14.1 1.36
2 -1 -10 15.17 1.59
-2 1 10 16.7 1.46
-2 1 9 27.31 1.84
-2 1 9 29.57 1.84
2 -1 -9 27.63 2.2
2 -1 -9 25.33 1.72
-2 1 9 24.47 2.54
-2 1 8 110.03 5.11
-2 1 7 341.9 8.47
-2 1 6 113.1 4.65
-2 1 5 36.11 2.46
-2 1 4 134.69 4.48
-2 1 3 78.42 3.21
-2 1 2 9.53 1.04
-2 1 1 525.09 7.28
-2 1 1 540.42 6.53
-2 1 0 1703.81 11.65
-2 1 0 1625.5 11.84
-2 1 -1 575.49 5.7
-2 1 -1 590.89 7.6
-2 1 -1 571.1 6.31
2 -1 2 161.91 3.25
-2 1 -2 160.38 2.92
-2 1 -2 162.37 4.14
2 -1 3 4.51 0.45
-2 1 -3 3.82 0.68
-2 1 -4 475.05 7.92
-2 1 -5 33.45 2.24
-2 1 -6 239.45 5.94
-2 1 -6 237.41 6.42
-2 1 -7 93.76 4.34
-2 1 -7 96.05 4.1
-2 1 -8 371.34 8.68
-2 1 -8 362.16 9.05
-2 1 -9 335.94 8.78
-2 1 -9 316.57 8.96
-2 1 -10 10.27 1.71
-2 1 -10 11.67 1.21
-2 1 -11 108.18 3.8
-2 1 -12 127.86 4.26
-2 1 -13 26.76 1.97
-2 1 -13 26.53 2.74
-2 1 -14 6.98 1.33
-2 1 -14 7.93 1.04
-2 1 -15 16.93 1.85
-2 1 -16 1.96 0.51
-2 1 -16 1.89 0.57
2 0 -17 3.75 0.62
2 0 -16 98.81 3.59
2 0 -15 1.34 0.48
2 0 -14 329.48 7.25
2 0 -14 308.29 7.14
2 0 -13 16.67 1.62
2 0 -13 16.04 1.66
2 0 -12 20.43 1.84
2 0 -12 20.53 1.76
2 0 -11 106.28 3.8
2 0 -11 100.94 3.99
-2 0 10 402.5 7.4
-2 0 10 396.91 10.13
-2 0 9 20.27 2.24
2 0 -9 19.45 1.81
-2 0 8 28.6 2.58
2 0 -8 25.46 1.91
2 0 -7 1602.83 13.83
-2 0 7 1544.66 18.33
2 0 -6 1337.43 11.28
-2 0 6 1230.22 15.46
2 0 -5 145.67 3.28
-2 0 5 134.46 4.8
-2 0 4 144 4.65
-2 0 3 1325.46 13.12
-2 0 2 2352.72 16.11
-2 0 1 191.55 4.17
-2 0 0 1531.8 10.78
-2 0 0 1504.42 9.45
-2 0 -1 0.41 0.22
2 0 1 0.38 0.2
-2 0 -1 0.17 0.12
2 0 2 286.23 4.38
-2 0 -2 296.76 5.12
-2 0 -3 9.47 0.99
2 0 3 9.45 0.71
-2 0 -3 10.14 0.8
-2 0 -4 1088.75 9.34
2 0 4 1080.71 6.38
-2 0 -5 1230.64 11.04
-2 0 -6 1135.14 11.82
-2 0 -7 48.23 2.66
-2 0 -8 217.62 6.14
-2 0 -9 104.77 4.57
-2 0 -10 275.46 6.23
-2 0 -10 263.95 7.78
-2 0 -11 11.58 1.34
-2 0 -11 13.48 1.87
-2 0 -12 532.64 9.29
-2 0 -13 751.48 11.18
-2 0 -14 922.05 11.88
-2 0 -15 150.17 5.82
-2 0 -16 -0.16 0.23
-2 0 -17 0.8 0.32
2 1 -17 1.92 0.41
2 1 -16 0.28 0.28
2 1 -15 51.5 2.72
2 1 -15 51.84 2.71
2 1 -14 100.49 3.87
2 1 -14 98.8 3.93
2 1 -13 182 5.28
2 1 -13 176.96 5.3
2 1 -12 5.87 0.94
2 1 -12 6.72 1.04
-2 -1 11 22.13 1.86
2 1 -11 22.11 1.74
-2 -1 10 138.37 4.46
2 1 -10 136.75 4.07
-2 -1 9 279.54 6.27
2 1 -9 278.18 7.41
2 1 -9 281.11 7.03
2 1 -8 2.61 0.72
2 1 -8 3.84 0.79
2 1 -7 23.3 1.7
2 1 -6 54.96 2.33
2 1 -5 802.28 7.92
-2 -1 5 777.79 11.35
2 1 -4 102.92 2.44
2 1 -3 0.22 0.22
2 1 -2 111.34 3.43
2 1 -2 80.68 0.96
2 1 -1 0.44 0.25
2 1 0 114.13 3.2
2 1 1 1016.58 9.15
-2 -1 -1 1008.18 4.39
-2 -1 -1 1025.92 6.77
-2 -1 -1 1024.66 8.02
2 1 2 788.57 7.56
-2 -1 -2 806.61 7.71
-2 -1 -3 35.65 1.81
2 1 3 33.05 1.46
2 1 4 154.06 2.87
2 1 5 2.05 0.31
-2 -1 -5 0.59 0.28
-2 -1 -6 33.59 2
-2 -1 -6 36.66 2.05
-2 -1 -7 272.53 6.12
-2 -1 -7 264.91 6.15
-2 -1 -8 878.95 12.18
-2 -1 -8 841.61 11.82
-2 -1 -9 249.7 6.94
-2 -1 -9 240.47 6.83
-2 -1 -10 134.11 5.31
-2 -1 -10 138.92 4.81
-2 -1 -10 152.66 5.81
-2 -1 -10 145.4 5.65
-2 -1 -11 192.69 6.54
-2 -1 -11 192.51 5.87
-2 -1 -11 202.9 6.98
-2 -1 -12 13.54 1.6
-2 -1 -12 12.98 1.74
-2 -1 -13 218.17 6.97
-2 -1 -13 200.46 6.05
-2 -1 -14 35.39 2.7
-2 -1 -15 0.98 0.61
-2 -1 -15 0.35 0.4
-2 -1 -16 0.29 0.23
-2 -1 -16 0.65 0.42
-2 -1 -17 8.47 1.04
2 2 -16 0.96 0.34
2 2 -16 0.76 0.31
2 2 -15 27.79 1.87
2 2 -15 26.51 1.84
2 2 -14 16.59 1.52
2 2 -14 15.03 1.49
2 2 -13 365.67 7.2
2 2 -13 353.9 7.22
-2 -2 12 442.54 8.13
2 2 -12 456.36 7.99
2 2 -12 446.59 7.96
-2 -2 11 288.61 6.63
2 2 -11 292.1 6.24
-2 -2 10 179.85 5.3
2 2 -10 181.59 4.8
-2 -2 9 60.96 3.02
2 2 -9 60.21 2.8
2 2 -9 62.84 2.79
2 2 -8 59.87 3.17
2 2 -7 134.5 4.63
2 2 -6 70.38 3.23
2 2 -5 2893.61 19.95
2 2 -4 447.21 7.61
2 2 -3 881.04 10.16
2 2 -3 887.31 7.12
2 2 -2 140.67 2.43
2 2 -2 146.05 3.98
2 2 -1 194.3 4.44
2 2 0 1343.88 11.26
2 2 1 1.93 0.43
-2 -2 -1 3.11 0.38
-2 -2 -2 634.32 3.71
-2 -2 -2 636.08 6.35
2 2 3 1447.1 10.45
2 2 4 612.01 6.47
2 2 5 965.95 7.77
2 2 6 676.93 6.2
-2 -2 -6 677.24 8.25
-2 -2 -7 22.87 1.68
2 2 7 53.97 1.93
-2 -2 -8 100.63 3.86
-2 -2 -9 178.05 6.24
-2 -2 -9 224.53 6.7
-2 -2 -10 2.67 0.83
-2 -2 -10 1.56 0.6
-2 -2 -11 39.56 3.19
-2 -2 -11 34.15 2.91
-2 -2 -12 19.51 2.23
-2 -2 -13 357.67 9.35
-2 -2 -14 757 12.97
-2 -2 -15 153.67 5.38
-2 -2 -15 162.11 5.9
-2 -2 -16 123.35 4.18
-2 -2 -16 121.68 4.46
-2 -2 -17 26 1.54
-2 -2 -17 26.15 1.68
2 3 -16 5.95 0.71
2 3 -15 2.06 0.46
2 3 -15 1.62 0.47
2 3 -14 4 0.7
2 3 -14 4.67 0.8
2 3 -13 7.12 0.95
2 3 -13 7.62 1.05
2 3 -12 167.42 4.63
2 3 -12 159.47 4.71
-2 -3 11 640.34 9.6
2 3 -11 664.67 9.75
-2 -3 10 686.39 10.05
2 3 -10 708.99 10.64
2 3 -10 701.83 10.12
2 3 -9 156.07 5.12
2 3 -9 156.6 5.32
2 3 -9 162.22 4.95
-2 -3 9 161.19 4.9
-2 -3 8 3.34 0.7
2 3 -8 3.49 0.79
2 3 -8 3.75 0.78
2 3 -7 432.15 7.51
2 3 -6 8.4 1.07
2 3 -6 8.21 0.96
2 3 -5 4 0.74
2 3 -5 3.82 0.6
2 3 -4 136.39 4.17
2 3 -4 137.75 3.15
2 3 -4 137.12 3.86
2 3 -3 346.69 6.44
2 3 -3 344.59 5.53
2 3 -2 34.33 1.96
2 3 -2 34.54 1.61
2 3 -1 21.92 1.53
2 3 0 59.24 2.45
2 3 1 132.46 3.61
2 3 2 116.9 3.25
2 3 3 55.41 2.19
2 3 4 757.09 7.9
2 3 5 26.79 1.46
2 3 5 24.97 1.37
2 3 6 501.34 6.33
2 3 7 52.27 2.2
2 3 8 4.82 0.83
-2 -3 -9 59.39 3.9
-2 -3 -10 338.49 9.53
-2 -3 -11 326.31 9.28
-2 -3 -11 269.93 8.64
-2 -3 -12 67.57 4.3
-2 -3 -13 7.23 1.39
-2 -3 -14 2.37 0.76
-2 -3 -14 2.03 0.75
-2 -3 -15 71.67 3.51
-2 -3 -15 72.67 3.69
-2 -3 -16 10.56 1.15
-2 -3 -16 12.2 1.33
-2 -3 -17 20.01 1.34
2 4 -15 4.77 0.67
2 4 -14 18.67 1.42
2 4 -13 0.38 0.26
2 4 -12 95.48 3.59
-2 -4 11 111.33 3.68
2 4 -11 120.97 4.4
2 4 -11 120.04 4.28
-2 -4 10 64.33 2.93
2 4 -10 69.89 3.58
2 4 -10 67.5 3.36
2 4 -9 196.1 6.17
-2 -4 9 192.69 5.27
2 4 -9 197.67 5.98
-2 -4 8 600.26 9.17
2 4 -8 614.08 11.28
2 4 -8 622.8 10.75
-2 -4 7 7.48 1
2 4 -7 7.13 1.23
2 4 -7 7.83 1.27
2 4 -7 7.29 1.21
2 4 -6 58.66 3.28
2 4 -6 52.09 3.1
2 4 -5 464 7.5
2 4 -5 464.58 8.68
2 4 -4 763.98 10.49
2 4 -4 756.55 9.62
2 4 -3 1113.42 11.74
2 4 -3 1119.15 11.7
2 4 -2 47.42 2.38
2 4 -1 1.15 0.4
2 4 0 199.04 4.6
2 4 1 45.11 2.16
2 4 2 491.84 7
2 4 3 887.88 9.29
2 4 4 7772.48 27.39
2 4 5 30.81 1.74
2 4 6 217.78 4.91
-2 -4 -7 459.22 10.83
2 4 7 465.61 7.81
2 4 8 31.14 2.25
-2 -4 -8 27.91 2.78
-2 -4 -9 61.33 4.25
-2 -4 -10 17.27 2.31
-2 -4 -11 3.32 1.06
-2 -4 -12 256.3 8.49
-2 -4 -13 8.31 1.47
-2 -4 -14 70.3 3.9
-2 -4 -15 82.8 3.76
-2 -4 -16 26.15 1.79
2 5 -14 28.87 1.48
2 5 -13 3.78 0.61
2 5 -12 1.62 0.47
2 5 -11 17.57 1.6
2 5 -11 16.52 1.53
-2 -5 10 1.09 0.38
2 5 -10 0.67 0.39
2 5 -10 0.3 0.3
-2 -5 9 565.08 8.12
2 5 -9 534.2 10.13
2 5 -9 540.37 10.64
-2 -5 8 1102.64 11.91
2 5 -8 1112.5 15.99
2 5 -8 1112.68 15.19
2 5 -7 616.8 11.56
2 5 -6 57.34 3.52
2 5 -5 5.56 1.07
2 5 -5 6.23 1.17
2 5 -4 61.15 3.33
2 5 -4 58.25 3.48
2 5 -3 72.59 2.89
2 5 -3 82.42 4.06
2 5 -2 38.28 2.08
2 5 -1 10.18 1.09
2 5 0 0.1 0.2
2 5 1 5.17 0.77
2 5 2 106.67 3.45
2 5 3 4.81 0.75
2 5 4 127.3 3.9
-2 -5 -5 515.31 11.19
2 5 5 539.37 8.31
-2 -5 -6 92.1 4.96
2 5 6 93.48 3.73
2 5 7 5.96 1.03
-2 -5 -7 6.96 1.48
-2 -5 -8 109.43 5.8
2 5 8 108.45 4.83
-2 -5 -9 55.23 4.2
-2 -5 -10 0.69 0.49
-2 -5 -11 4.14 1.16
-2 -5 -12 31.4 2.91
-2 -5 -13 46.28 3.25
-2 -5 -14 41.33 2.77
-2 -5 -15 4.86 0.84
2 6 -13 4.07 0.51
2 6 -12 2.38 0.47
2 6 -11 3.74 0.68
2 6 -11 2.9 0.59
2 6 -10 45.34 2.52
2 6 -10 45.69 2.51
2 6 -9 3.3 0.81
2 6 -9 2.64 0.71
2 6 -8 33.8 2.73
2 6 -8 33.34 2.55
2 6 -7 153.2 5.74
2 6 -6 24.67 2.37
2 6 -5 279 7.98
2 6 -4 69.06 3.97
2 6 -3 231.69 7.28
2 6 -2 148.38 5.77
2 6 -1 12.28 1.25
2 6 -1 13.23 1.88
2 6 0 14.22 1.36
2 6 0 14.43 1.92
2 6 1 38.65 3.12
2 6 1 39.52 2.29
2 6 2 2.86 0.84
2 6 2 1.66 0.53
2 6 3 11.94 1.33
2 6 3 13.18 1.87
2 6 4 188.21 5.46
2 6 4 175.66 6.8
-2 -6 -5 948.8 15.55
2 6 5 952.66 13.05
2 6 5 910.6 15.95
-2 -6 -6 3213.57 29.57
2 6 6 3090.17 29.6
-2 -6 -7 726.51 14.74
-2 -6 -8 296.74 9.51
-2 -6 -9 29.74 3.01
-2 -6 -10 34.66 3.16
-2 -6 -11 1.07 0.61
-2 -6 -12 56.29 3.47
-2 -6 -13 113 4.33
-2 -6 -13 119.98 4.08
-2 -6 -14 72.68 2.9
2 6 14 79.73 2.99
2 7 -11 1.85 0.36
2 7 -10 12.18 1.05
2 7 -10 11.24 1.01
2 7 -9 3.25 0.66
2 7 -9 3.29 0.64
2 7 -8 49.09 2.81
2 7 -8 48.99 2.68
2 7 -7 288.8 7.48
2 7 -7 288.4 7.05
2 7 -6 848.99 13
2 7 -5 49.63 3.23
2 7 -4 136.84 5.54
2 7 -3 0.86 0.62
2 7 -2 241.9 7.42
2 7 -1 3.49 0.92
2 7 0 69.11 4.37
2 7 1 58.85 4.04
2 7 2 1.13 0.61
2 7 3 1.02 0.63
2 7 4 8.07 1.56
2 7 5 9.52 1.66
2 7 6 1.55 0.79
2 7 7 241.61 8.12
2 7 8 24.94 2.57
2 7 9 0.75 0.53
2 7 10 2.26 0.75
2 7 11 1.41 0.54
2 7 12 0.63 0.3
2 8 -9 7.65 0.64
2 8 -9 9.84 0.75
2 8 -9 10.04 0.75
2 8 -8 15.12 1.12
2 8 -8 15.41 1.12
2 8 -7 10.04 1.1
2 8 -7 8.48 0.95
2 8 -6 20 1.71
2 8 -6 19.98 1.62
2 8 -5 412.55 7.93
2 8 -4 34.18 2.4
2 8 -3 35.72 2.55
2 8 -2 106.24 4.49
2 8 -1 1.33 0.56
2 8 0 -0.19 0.34
2 8 1 0.67 0.48
2 8 1 0.55 0.39
2 8 2 5.56 1.2
2 8 3 22.87 2.38
2 8 4 17.56 2.06
2 8 5 8.91 1.47
2 8 6 237.29 7.27
2 8 7 20.51 2.09
2 8 8 394.93 8.63
2 8 9 399.5 8.06
2 8 10 165.86 4.68
2 8 11 31.17 1.73
2 9 -5 6.59 0.74
2 9 -5 7.94 0.77
2 9 -4 592.39 7.57
2 9 -4 598.77 7.26
2 9 -3 10.62 1.08
2 9 -3 8.3 0.78
2 9 -2 0.73 0.28
2 9 -2 1.28 0.4
2 9 -1 0.58 0.34
2 9 0 18.04 1.55
2 9 1 16.66 1.51
2 9 2 35.63 2.2
2 9 3 162.64 4.67
2 9 4 0.75 0.34
2 9 5 1.29 0.48
2 9 5 1.13 0.43
2 9 6 7.73 0.95
2 9 6 9.92 1.16
2 9 7 1.37 0.42
2 9 7 1.59 0.45
2 9 8 7.86 0.8
2 9 8 8.26 0.88
-3 7 7 12.54 1.14
-3 7 6 115.81 3.75
-3 7 5 23.13 1.78
-3 7 4 2.79 0.65
-3 7 3 9.46 1.19
-3 7 3 8.13 1
-3 7 2 66.72 3.17
-3 7 2 62.05 2.68
-3 7 1 21.25 1.8
-3 7 1 21.67 1.54
-3 7 0 46.3 2.64
-3 7 0 43.68 2.1
-3 7 -1 73.88 3.28
-3 7 -2 50.39 2.65
-3 7 -3 26.99 1.86
-3 7 -3 22.83 1.28
-3 7 -4 3.33 0.5
-3 7 -5 7.69 0.68
-3 6 10 234.5 4.86
-3 6 10 240.32 5.41
-3 6 9 84.86 3.6
-3 6 9 83.32 3.09
-3 6 8 42.27 2.31
-3 6 8 43.18 2.76
-3 6 7 39.06 2.28
-3 6 7 40.56 2.83
-3 6 6 59.75 2.85
-3 6 6 62.17 3.64
-3 6 5 82.85 3.33
-3 6 5 87.14 4.4
-3 6 4 -0.24 0.59
-3 6 3 211.85 6.99
-3 6 2 830.78 13.85
-3 6 1 467.41 10.36
-3 6 1 472.08 6.74
-3 6 0 202.12 4.66
-3 6 0 195.1 6.59
-3 6 -1 253.32 5.38
-3 6 -1 250.94 7.37
-3 6 -2 184.69 4.66
-3 6 -2 181.28 6.18
-3 6 -2 169.32 5.43
-3 6 -3 8.93 1.38
-3 6 -3 8.31 1.16
-3 6 -3 9.67 1.09
-3 6 -4 207.99 4.9
-3 6 -4 213 6.43
-3 6 -4 196.91 5.23
-3 6 -5 240.3 5.18
-3 6 -5 230.91 4.96
-3 6 -5 246.09 6.64
-3 6 -6 138.86 3.65
-3 6 -6 151.17 4.01
-3 6 -7 16.1 1.22
-3 6 -7 17.32 1.21
-3 6 -8 29.76 1.5
-3 6 -8 29.45 1.39
-3 5 12 107.24 4
-3 5 12 100.49 3.18
-3 5 11 61.93 2.76
-3 5 11 53.51 3.2
-3 5 10 0.57 0.45
-3 5 10 0.81 0.42
-3 5 9 14.3 1.93
-3 5 9 12.87 1.4
-3 5 8 1.28 0.71
-3 5 8 2.71 0.7
-3 5 7 63.48 4.29
-3 5 7 62.65 3.14
-3 5 6 10.35 1.78
-3 5 6 12.17 1.38
-3 5 5 11.28 1.85
-3 5 5 13.46 1.42
-3 5 4 50.93 3.9
-3 5 4 53.9 2.76
-3 5 3 21.49 2.43
-3 5 2 7.33 1.45
-3 5 2 5.71 0.81
-3 5 1 15.7 1.4
-3 5 1 10.51 1.71
-3 5 0 71.78 4.34
-3 5 0 67.18 3.23
-3 5 -1 58.37 3.11
-3 5 -1 53.04 3.71
-3 5 -2 174.61 5.55
-3 5 -2 160.47 4.79
-3 5 -2 174.9 6.6
-3 5 -2 160.58 6.14
-3 5 -3 671.14 11.07
-3 5 -3 632.06 9.56
-3 5 -3 673.18 12.8
-3 5 -3 608.73 11.65
-3 5 -4 185.54 5.96
-3 5 -4 181.46 6.55
-3 5 -4 180.97 6.2
-3 5 -4 188.54 5.21
-3 5 -5 3.46 0.82
-3 5 -5 3.82 1
-3 5 -5 3.48 0.87
-3 5 -5 3.53 0.75
-3 5 -6 23.87 2.15
-3 5 -6 21.49 1.68
-3 5 -6 24.38 2.35
-3 5 -6 24.63 2.12
-3 5 -7 2.49 0.7
-3 5 -7 3.76 0.69
-3 5 -8 0.88 0.44
-3 5 -8 0.79 0.32
-3 5 -9 104.91 3.91
-3 5 -9 101.48 2.9
-3 5 -10 50.6 2.45
-3 5 -11 3.62 0.58
-3 4 14 10.43 1.12
-3 4 13 66.53 3.44
-3 4 13 57.72 2.45
-3 4 12 70.66 4
-3 4 12 63.7 2.83
-3 4 11 442.58 10.82
-3 4 11 440.56 7.93
-3 4 10 603.41 13.38
-3 4 10 582.25 9.42
-3 4 9 339.54 10.36
-3 4 9 306.44 6.89
-3 4 8 516.77 12.96
-3 4 8 512.09 8.9
-3 4 7 16.06 2.33
-3 4 7 19.82 1.76
-3 4 6 203.17 8.13
-3 4 6 210.11 5.55
-3 4 5 1.77 0.83
-3 4 5 3.18 0.72
-3 4 4 166.11 6.84
-3 4 4 181.23 7.43
-3 4 4 172.31 4.78
-3 4 3 86.3 4.74
-3 4 3 78.1 4.81
-3 4 3 84.03 3.21
-3 4 3 88.9 3.28
-3 4 2 282.05 5.62
-3 4 2 278.69 8.93
-3 4 2 280.57 5.68
-3 4 1 1065.63 13.04
-3 4 1 1086.42 10.82
-3 4 1 1064.14 11.37
-3 4 1 1060.18 16.4
-3 4 0 721.37 11.13
-3 4 0 727 13.45
-3 4 0 727.93 9.7
-3 4 -1 218.1 6.33
-3 4 -1 221.56 7.46
-3 4 -1 228.85 6.91
-3 4 -1 217 5.43
-3 4 -2 80.95 4.04
-3 4 -2 82.2 3.43
-3 4 -2 82.79 4.55
-3 4 -2 85.08 4.33
-3 4 -3 605.02 11.31
-3 4 -3 576.38 9.25
-3 4 -3 607.78 12.2
-3 4 -3 613.75 11.82
-3 4 -4 1324.21 17.31
-3 4 -4 1364.51 18.33
-3 4 -4 1360.34 17.95
-3 4 -5 42.21 3.23
-3 4 -5 44.12 3.23
-3 4 -5 42.25 3.11
-3 4 -5 47.25 2.68
-3 4 -6 3.59 1
-3 4 -6 1.81 0.68
-3 4 -6 1.87 0.66
-3 4 -6 1.9 0.57
-3 4 -7 593.21 11.93
-3 4 -7 580.54 12.09
-3 4 -7 573.21 8.84
-3 4 -8 62.81 3.94
-3 4 -8 60.05 2.73
-3 4 -9 1.35 0.62
-3 4 -9 1.82 0.47
-3 4 -10 18.8 1.97
-3 4 -10 19.41 1.29
-3 4 -11 53.37 3
-3 4 -12 2.13 0.56
-3 4 -13 0.94 0.32
-3 3 15 95.57 3.23
-3 3 14 2.48 0.68
-3 3 14 1.95 0.45
-3 3 13 0.66 0.47
-3 3 13 0.48 0.32
-3 3 12 15.63 2.07
-3 3 12 11.94 1.28
-3 3 11 184.1 5.21
-3 3 10 130.58 4.41
-3 3 9 184.18 5.3
-3 3 8 58.92 2.98
-3 3 7 8.9 1.71
-3 3 7 8.34 1.63
-3 3 7 8.93 1.17
-3 3 6 25.84 2.79
-3 3 6 29.64 3.02
-3 3 6 31.72 2.12
-3 3 5 2.18 0.72
-3 3 5 0.93 0.61
-3 3 5 1.27 0.61
-3 3 5 0.82 0.42
-3 3 4 0.22 0.39
-3 3 4 1.07 0.63
-3 3 4 0.3 0.27
-3 3 3 35.72 2.9
-3 3 3 43.8 3.4
-3 3 3 36.77 2.08
-3 3 3 39.18 2.13
-3 3 2 48.64 3.21
-3 3 2 51.6 3.62
-3 3 2 52.28 2.75
-3 3 2 47.58 2.29
-3 3 1 1.87 0.78
-3 3 1 1.34 0.52
-3 3 0 0.93 0.46
-3 3 0 1.16 0.53
-3 3 -1 35.23 2.49
-3 3 -1 34.41 2.73
-3 3 -1 37.16 2.64
-3 3 -1 34.11 2.04
-3 3 -2 18.12 2
-3 3 -2 20.12 1.98
-3 3 -2 17.44 1.86
-3 3 -2 22.27 1.7
-3 3 -3 19.21 2
-3 3 -3 17.39 1.94
-3 3 -3 18.13 1.99
-3 3 -3 15.75 1.46
-3 3 -4 114.94 5.12
-3 3 -4 114.6 4.96
-3 3 -4 110.12 5.08
-3 3 -4 120.1 5.23
-3 3 -4 109.02 3.95
-3 3 -5 866.73 14.5
-3 3 -5 899.66 14.13
-3 3 -5 883.55 14.88
-3 3 -5 907.83 14.34
-3 3 -5 879.05 11.23
-3 3 -5 867.43 13.35
-3 3 -6 560.53 12.07
-3 3 -6 564.9 10.99
-3 3 -6 568.48 8.99
-3 3 -6 547.19 11.29
-3 3 -6 563.14 12.41
-3 3 -6 576.06 11.41
-3 3 -7 7.46 1.03
-3 3 -7 5.88 1.17
-3 3 -7 5.84 1.29
-3 3 -7 5.92 1.22
-3 3 -7 5.74 1.16
-3 3 -8 13.28 1.91
-3 3 -8 17.75 1.54
-3 3 -8 16.47 1.94
-3 3 -9 6.91 1.39
-3 3 -9 5.81 0.84
-3 3 -9 6.02 1.18
-3 3 -10 24.77 2.25
-3 3 -10 21.42 2.35
-3 3 -10 21.84 1.47
-3 3 -11 22.45 2.01
-3 3 -11 22.02 2.27
-3 3 -12 29.06 2.38
-3 3 -12 29.44 2.08
-3 3 -13 11.56 1.33
-3 3 -14 3.6 0.63
3 -2 -15 69.92 2.57
-3 2 15 65.13 2.99
3 -2 -14 7.4 0.97
-3 2 14 9.75 1.41
-3 2 14 8.3 0.9
3 -2 -13 51.6 2.71
-3 2 13 55.91 2.59
3 -2 -12 133.34 4.54
-3 2 12 145.53 4.44
3 -2 -11 1276.42 14.05
-3 2 11 1268.15 13.48
3 -2 -10 371.43 7.45
-3 2 10 350.43 7.21
3 -2 -9 462.71 8.05
-3 2 9 444.38 8.12
-3 2 8 731.02 15.68
-3 2 8 766.51 10.64
-3 2 7 116.58 6.02
-3 2 7 132.39 4.37
-3 2 6 0.57 0.45
-3 2 6 0.14 0.44
-3 2 6 0.19 0.28
-3 2 5 32.11 2.91
-3 2 5 36.35 2.28
-3 2 5 38.68 2.11
-3 2 4 18.03 2.09
-3 2 3 1350.82 17
-3 2 2 708.22 11.59
-3 2 1 416.62 8.44
-3 2 0 139.21 4.49
-3 2 0 136.18 4.51
-3 2 -1 450.35 8.38
-3 2 -2 22.37 1.97
-3 2 -3 18.31 1.87
-3 2 -4 3.23 0.88
-3 2 -5 818.97 13.48
-3 2 -5 794.76 13.04
-3 2 -5 840.28 13
-3 2 -5 798.12 13.4
-3 2 -5 829.28 10.18
-3 2 -6 1496.65 18.54
-3 2 -6 1516.08 13.74
-3 2 -6 1521.89 19
-3 2 -6 1465.66 17.07
-3 2 -6 1538.02 17.67
-3 2 -6 1453.85 18.91
-3 2 -7 398.18 10.13
-3 2 -7 419.43 7.24
-3 2 -7 407.16 9.12
-3 2 -7 429.07 9.49
-3 2 -7 402.97 10.01
-3 2 -7 392.26 10.04
-3 2 -8 48.8 3.64
-3 2 -8 49.33 2.44
-3 2 -8 44.83 3.49
-3 2 -8 46.41 3.5
-3 2 -9 30.4 2.9
-3 2 -9 30.94 2.9
-3 2 -10 71.16 4.4
-3 2 -10 77.61 4.56
-3 2 -11 54.62 3.73
-3 2 -11 51.75 3.64
-3 2 -12 0.16 0.24
-3 2 -12 0.08 0.31
-3 2 -13 1.4 0.58
-3 2 -13 1.21 0.49
-3 2 -14 16.23 1.53
-3 2 -14 17.12 1.53
-3 2 -15 82.85 2.71
-3 2 -15 84.38 2.69
3 -1 -16 27.68 1.55
3 -1 -15 39.17 2.16
-3 1 15 36.68 2.26
3 -1 -14 59.38 2.89
3 -1 -13 190.45 5.36
-3 1 13 199.13 4.66
3 -1 -12 44.91 2.6
-3 1 12 48.95 2.51
3 -1 -11 126.29 4.3
-3 1 11 138.63 4.38
3 -1 -10 224.09 5.55
-3 1 10 226.06 5.71
-3 1 9 351.53 6.52
-3 1 9 335.24 10.47
-3 1 9 357.6 7.36
-3 1 8 50.66 4
-3 1 8 55.52 2.96
-3 1 7 288.19 9.25
-3 1 7 289.75 6.8
-3 1 6 136.21 6.16
-3 1 5 21.62 2.37
-3 1 4 37.36 2.97
-3 1 3 0.85 0.55
-3 1 2 207.86 6.04
-3 1 1 328.67 7.05
-3 1 0 1012.98 11.28
-3 1 0 959.55 10.82
3 -1 1 24.86 1.8
-3 1 -1 24.94 1.8
3 -1 2 83.48 3.03
-3 1 -2 83.66 3.48
-3 1 -3 187.67 5.45
-3 1 -3 184.86 5.63
-3 1 -4 440.37 9.04
-3 1 -5 8.34 1.31
-3 1 -6 31.42 2.69
-3 1 -7 211.21 7.29
-3 1 -7 202.33 7.08
-3 1 -8 132.03 5.98
-3 1 -8 117.9 5.6
-3 1 -9 7.23 1.5
-3 1 -9 7.78 1.51
-3 1 -10 0.93 0.53
-3 1 -11 41.56 3.5
-3 1 -11 40.23 3.25
-3 1 -12 13.52 1.95
-3 1 -12 13.79 1.83
-3 1 -13 10.92 1.5
-3 1 -13 10.73 1.62
-3 1 -14 0.25 0.36
-3 1 -14 0.45 0.33
-3 1 -15 3.07 0.6
-3 1 -15 2.39 0.63
-3 1 -16 0.43 0.21
3 0 -16 30.02 1.73
3 0 -15 18.47 1.53
3 0 -14 42.59 2.46
3 0 -13 1.45 0.52
3 0 -12 198.49 5.41
3 0 -11 51.1 2.72
-3 0 11 52.93 2.78
-3 0 10 1189.58 13.02
-3 0 10 1193.05 13.14
-3 0 9 1834.93 15.88
-3 0 9 1804.47 17.06
-3 0 8 108.7 3.87
-3 0 8 97.21 5.49
-3 0 8 103.77 4.16
-3 0 7 15.35 2.15
-3 0 6 104.7 5.26
-3 0 5 173.67 6.38
-3 0 4 888.77 13.55
-3 0 3 722.98 11.45
-3 0 2 1736.23 16.6
3 0 -1 1299.23 14.33
3 0 0 151.78 4.69
-3 0 0 148.58 3.77
3 0 1 646.23 9.12
-3 0 -1 630.68 8.01
3 0 2 1009.62 10.77
-3 0 -2 1016.34 10.87
3 0 3 58.72 2.33
-3 0 -3 57.91 2.74
-3 0 -3 57.22 2.9
-3 0 -4 14.72 1.58
-3 0 -5 161.63 5.43
-3 0 -6 334.25 8.31
-3 0 -7 744.71 13.12
-3 0 -8 401.54 10.34
-3 0 -8 388.2 10
-3 0 -9 122.55 5.92
-3 0 -9 115.34 5.71
-3 0 -10 2.19 0.84
-3 0 -10 3.26 1.02
-3 0 -11 0.26 0.39
-3 0 -12 138.72 6.46
-3 0 -12 146.87 5.76
-3 0 -13 58.22 3.97
-3 0 -13 59.4 3.41
-3 0 -14 520.69 10.89
-3 0 -14 507.23 8.79
-3 0 -15 12.36 1.48
-3 0 -16 35.43 2.07
3 1 -16 8.44 0.91
3 1 -15 9.24 1.06
3 1 -14 33.59 2.16
3 1 -13 97 3.75
3 1 -12 371.18 7.37
-3 -1 11 136.81 4.65
-3 -1 10 25.73 2.11
-3 -1 10 28.34 2.04
3 1 -9 290.48 8.95
-3 -1 9 290.88 6.85
-3 -1 9 299.33 7.01
3 1 -8 45.2 3.47
-3 -1 8 44.06 2.58
-3 -1 8 45.6 2.76
3 1 -7 86.98 4.67
3 1 -6 50.98 3.45
3 1 -5 269.19 7.61
3 1 -4 282.66 7.55
3 1 -3 37.95 2.65
3 1 -2 351.18 7.76
3 1 -1 64.31 3.18
3 1 0 88.68 3.56
3 1 1 185.01 4.94
-3 -1 -1 194.24 3.8
3 1 2 1358.96 12.66
-3 -1 -2 1330.73 12.38
3 1 3 813.9 9.18
-3 -1 -3 776.96 10.1
3 1 4 18.72 1.3
-3 -1 -4 16.9 1.59
3 1 5 13.62 0.98
-3 -1 -5 11.98 1.44
-3 -1 -6 209.06 6.39
-3 -1 -7 16.04 1.91
-3 -1 -8 1.03 0.55
-3 -1 -8 0.63 0.52
-3 -1 -9 8.83 1.63
-3 -1 -9 10.73 1.56
-3 -1 -9 9.63 1.68
-3 -1 -10 16.96 2.25
-3 -1 -10 19.29 2.42
-3 -1 -10 19.6 2.13
-3 -1 -11 76.13 4.85
-3 -1 -11 79.03 4.24
-3 -1 -12 0.36 0.37
-3 -1 -12 -0.12 0.36
-3 -1 -13 13.69 1.97
-3 -1 -14 69.23 4.03
-3 -1 -15 0.45 0.43
-3 -1 -16 2.41 0.59
3 2 -16 140.66 3.27
3 2 -15 3 0.59
3 2 -14 85.61 3.28
3 2 -13 2.79 0.67
3 2 -13 1.95 0.5
-3 -2 12 208.36 5.57
3 2 -12 198.67 5.05
-3 -2 11 28.16 2.17
-3 -2 10 29.09 2.29
-3 -2 9 249.41 6.54
3 2 -8 582.16 11.93
-3 -2 8 597.64 9.68
3 2 -8 618.03 8.68
3 2 -7 210.83 7
-3 -2 7 228.49 5.7
3 2 -6 3.57 0.94
3 2 -5 590.17 11.08
3 2 -4 657.64 11.33
3 2 -3 8.89 1.29
3 2 -2 228 6.16
3 2 -1 1794.32 16.83
3 2 0 772.31 10.58
3 2 1 3.69 0.71
-3 -2 -2 708.21 8.18
3 2 2 690.61 9.32
3 2 3 55.04 2.52
-3 -2 -3 52.64 2.44
3 2 4 465.73 6.95
-3 -2 -4 449.43 7.77
-3 -2 -5 33.04 2.29
3 2 5 38.51 1.86
3 2 6 363.6 5.31
-3 -2 -6 322.92 7.86
-3 -2 -7 519.95 10.71
-3 -2 -8 451.26 10.6
-3 -2 -8 481.03 11.1
-3 -2 -8 462.01 10.42
-3 -2 -9 58.52 4.05
-3 -2 -9 58.47 4.04
-3 -2 -9 56.04 3.76
-3 -2 -10 180.48 7.26
-3 -2 -10 181.91 6.89
-3 -2 -10 181.19 7.41
-3 -2 -11 3.61 1.1
-3 -2 -11 3.51 0.98
-3 -2 -12 58.38 4.11
-3 -2 -12 62.93 3.94
-3 -2 -13 11.17 1.73
-3 -2 -13 10.53 1.55
-3 -2 -14 110.27 4.94
-3 -2 -14 111.27 4.54
-3 -2 -15 447.4 7.8
-3 -2 -15 433.97 8.61
-3 -2 -16 425.74 6.99
3 3 -15 7.33 0.78
3 3 -14 17.91 1.38
3 3 -14 15.73 1.22
3 3 -13 45.53 2.33
3 3 -13 42.05 2.17
-3 -3 12 185.61 5.09
3 3 -12 186.53 4.75
-3 -3 11 27.46 2.06
3 3 -11 28.33 1.87
-3 -3 10 189.6 5.7
3 3 -10 203.42 4.99
-3 -3 9 209.33 6
3 3 -9 218.48 5.63
3 3 -9 226.33 5.37
-3 -3 8 76.27 3.51
3 3 -8 75.99 3.32
-3 -3 7 58.42 2.98
3 3 -7 57.41 3.51
3 3 -7 53.86 2.88
3 3 -6 2.37 0.75
-3 -3 6 2 0.54
3 3 -5 49.5 3.14
3 3 -4 7.1 1.16
3 3 -3 221.84 6.31
3 3 -2 101.95 4.09
3 3 -1 8.96 1.18
3 3 0 132.28 4.43
3 3 1 2.47 0.6
3 3 2 2 0.57
3 3 3 325.97 6.37
3 3 4 518.86 7.69
-3 -3 -5 311.98 6.77
3 3 5 308.65 5.7
-3 -3 -6 0.5 0.32
3 3 6 1.4 0.4
-3 -3 -7 9.68 1.44
-3 -3 -7 10.85 1.66
-3 -3 -8 10.86 1.66
-3 -3 -8 12.21 1.84
-3 -3 -9 6.55 1.38
-3 -3 -9 8.66 1.59
-3 -3 -9 6.28 1.33
-3 -3 -10 91.97 5.02
-3 -3 -10 85.04 4.96
-3 -3 -11 32.11 2.97
-3 -3 -11 26.9 2.78
-3 -3 -12 37.18 3.09
-3 -3 -12 41.15 3.32
-3 -3 -13 102.38 4.81
-3 -3 -13 102.39 4.92
-3 -3 -14 24.39 2.13
-3 -3 -14 24.28 2.2
-3 -3 -15 37.23 2.35
-3 -3 -15 36.14 2.18
-3 -3 -16 11.19 1.02
3 4 -14 35.92 1.59
3 4 -14 35.73 1.61
3 4 -13 67.19 2.46
3 4 -13 65.54 2.49
-3 -4 12 21.74 1.62
3 4 -12 23.91 1.59
3 4 -12 22.51 1.57
-3 -4 11 329 6.57
3 4 -11 335.99 6.32
3 4 -10 256.21 6.17
3 4 -10 270.09 6.02
-3 -4 9 119.46 4.44
3 4 -9 129.77 4.59
3 4 -9 135.19 4.47
-3 -4 8 83.69 3.67
3 4 -8 83.55 3.91
3 4 -8 83.38 3.69
-3 -4 7 0.65 0.35
3 4 -7 1 0.54
3 4 -7 0.75 0.42
-3 -4 6 78.63 3.53
3 4 -6 81.58 3.87
3 4 -6 72.8 3.74
3 4 -6 78.91 3.68
-3 -4 5 33.79 2.26
3 4 -5 32.65 2.45
-3 -4 4 20.53 1.76
3 4 -4 22.32 2.01
3 4 -3 1102.02 13.79
3 4 -2 448.9 8.64
3 4 -1 467.14 8.68
3 4 0 129.38 4.49
3 4 1 81.84 3.45
3 4 2 278.82 6.2
3 4 3 0.25 0.24
3 4 4 1.97 0.54
3 4 5 594.65 8.44
-3 -4 -5 577.21 11.76
-3 -4 -6 4.3 1.08
3 4 6 0.57 0.37
-3 -4 -7 129.73 6.05
3 4 7 133.03 4.04
-3 -4 -8 263.42 8.92
-3 -4 -9 40.35 3.56
-3 -4 -10 73.92 4.78
-3 -4 -11 55.22 4.04
-3 -4 -12 1.7 0.75
-3 -4 -13 4.42 1.06
-3 -4 -14 13.12 1.56
-3 -4 -15 190.98 5.04
-3 -4 -16 297.99 5.06
3 5 -13 0.97 0.32
3 5 -12 1 0.35
-3 -5 11 16.48 1.28
3 5 -11 16.89 1.34
-3 -5 10 409.83 7.03
3 5 -10 435.39 7.8
3 5 -10 431.2 7.47
-3 -5 9 146.38 4.58
3 5 -9 161.14 5.18
3 5 -9 161.96 4.98
-3 -5 8 119.76 4.26
3 5 -8 125.23 4.98
3 5 -8 121.81 4.62
-3 -5 7 4.8 0.91
3 5 -7 5.29 1.11
3 5 -7 5.36 1.06
-3 -5 6 2.58 0.65
3 5 -6 30.13 2.49
-3 -5 5 295.5 6.78
3 5 -5 297.55 7.71
-3 -5 4 20.4 1.81
3 5 -4 23.13 1.98
3 5 -4 20.13 2.03
-3 -5 3 0.44 0.34
3 5 -3 0.59 0.5
3 5 -3 0.31 0.32
-3 -5 2 91.76 3.93
3 5 -2 92.19 3.88
3 5 -2 101.79 4.44
-3 -5 1 95.47 4.03
3 5 -1 104.82 4.09
-3 -5 0 14.44 1.62
3 5 0 17.91 1.64
-3 -5 -1 25.5 2.22
3 5 1 25.59 1.98
-3 -5 -2 27.57 2.37
3 5 2 29.33 2.05
-3 -5 -3 6.64 1.21
3 5 3 7.39 1.04
-3 -5 -4 19.59 2.23
-3 -5 -4 22.84 2.34
3 5 4 23.54 1.81
-3 -5 -5 53.36 3.8
-3 -5 -5 59 3.94
3 5 5 58.28 2.83
-3 -5 -6 436.06 11.25
3 5 6 470.59 8.21
-3 -5 -7 7.12 1.52
3 5 7 8.42 1.18
-3 -5 -8 97.27 5.6
-3 -5 -9 1.64 0.82
-3 -5 -10 4.05 1.18
-3 -5 -11 8.22 1.56
-3 -5 -12 81.14 4.46
-3 -5 -13 98.64 4.45
-3 -5 -14 55.27 2.86
-3 -5 -15 24.39 1.53
3 6 -12 1 0.27
3 6 -11 7.39 0.77
3 6 -10 67.13 2.74
3 6 -10 64.26 2.56
-3 -6 9 202.4 4.41
3 6 -9 195.53 5.29
-3 -6 8 6.03 0.86
3 6 -8 4.56 0.92
3 6 -8 3.49 0.79
-3 -6 7 62.56 2.89
3 6 -7 60.55 3.56
3 6 -7 59.35 3.32
-3 -6 6 348.61 6.85
3 6 -6 321.24 8.11
-3 -6 5 1.06 0.44
3 6 -5 1.37 0.56
-3 -6 4 29.24 2.09
3 6 -4 26.36 2.38
-3 -6 3 222.25 5.86
3 6 -3 221.37 6.93
-3 -6 2 138.18 4.74
3 6 -2 135.42 4.43
3 6 -2 132.93 5.38
-3 -6 1 489.47 9.19
3 6 -1 512.56 8.78
3 6 -1 495.2 10.37
-3 -6 0 94.46 4.15
3 6 0 107.29 3.98
3 6 0 99.02 4.96
-3 -6 -1 90.33 4.21
3 6 1 102.52 3.91
3 6 1 96.82 4.88
-3 -6 -2 185.95 6.25
3 6 2 207.43 5.56
3 6 2 191.7 6.88
3 6 3 0.59 0.36
-3 -6 -3 0.96 0.57
3 6 3 -0.07 0.33
-3 -6 -4 201.55 7.03
3 6 4 207.17 7.17
-3 -6 -5 347.86 9.52
3 6 5 351.87 9.4
-3 -6 -6 1121.56 17.54
3 6 6 1121.38 17.02
-3 -6 -7 66.8 4.55
-3 -6 -7 70.62 4.51
3 6 7 72.12 4.3
-3 -6 -8 5.24 1.3
3 6 8 5.82 1.23
-3 -6 -9 83.33 4.94
-3 -6 -9 91.58 5.01
3 6 9 100.69 4.85
3 6 10 0.3 0.47
-3 -6 -10 0.02 0.38
-3 -6 -10 0.48 0.49
-3 -6 -11 7.18 1.32
-3 -6 -11 11.76 1.74
-3 -6 -12 12.58 1.56
-3 -6 -12 11.81 1.43
-3 -6 -13 2.44 0.58
3 7 -10 4 0.52
3 7 -9 2.85 0.55
3 7 -9 3.46 0.57
3 7 -8 85.44 3.25
3 7 -8 81.91 3.07
3 7 -7 119.12 4.35
3 7 -7 115.86 4.06
3 7 -6 379.95 8.4
3 7 -6 382.41 8
3 7 -5 415.11 8.79
3 7 -4 42.78 2.93
3 7 -3 35.33 2.73
3 7 -2 3.21 0.86
3 7 -1 63.13 3.71
3 7 0 37.35 2.9
3 7 1 6.49 1.32
3 7 2 4.82 1.15
3 7 3 0.31 0.46
3 7 4 40.55 3.22
3 7 5 1.08 0.53
-3 -7 -5 4.32 1
-3 -7 -6 8.73 1.42
3 7 6 9.02 1.5
-3 -7 -7 151.88 5.7
3 7 7 151.63 5.89
-3 -7 -8 69.3 3.75
3 7 8 75.11 3.99
-3 -7 -9 5.38 1.03
3 7 9 6.81 1.15
-3 -7 -10 60.23 2.99
3 7 10 61.24 3.07
-3 -7 -11 31.13 1.87
3 8 -8 25.55 1.26
3 8 -8 24.94 1.19
3 8 -7 5.77 0.73
3 8 -7 5.49 0.69
3 8 -6 0.51 0.32
3 8 -6 0.18 0.24
3 8 -5 22.45 1.77
3 8 -5 22.38 1.69
3 8 -4 42.34 2.49
3 8 -3 79.48 3.56
3 8 -2 21.25 1.92
3 8 -1 100.9 4.24
3 8 0 41.29 2.75
3 8 1 27.71 2.27
3 8 2 22.15 2.05
3 8 3 0.36 0.35
3 8 4 16.65 1.87
3 8 5 3.64 0.88
3 8 6 7.1 1.16
3 8 7 516.29 9.28
3 8 8 616.58 9.39
3 8 9 127.08 3.8
3 9 -4 376.64 5.43
3 9 -4 373.87 5.16
3 9 -3 128.93 3.48
3 9 -3 128.01 3.31
3 9 -2 169.8 4.12
3 9 -1 28.27 1.76
3 9 0 68.55 2.82
3 9 1 0.03 0.21
3 9 2 6.34 0.88
3 9 3 11.23 1.17
3 9 4 0.44 0.26
3 9 5 0.56 0.32
3 9 6 4.27 0.65
3 9 7 3.17 0.51
-4 6 7 39.54 2.04
-4 6 6 40 2.22
-4 6 5 11.36 1.26
-4 6 4 9.64 1.2
-4 6 3 41.58 2.51
-4 6 2 86.73 3.63
-4 6 2 80.21 3.42
-4 6 1 167.87 5.04
-4 6 1 156.14 4.74
-4 6 0 24.57 1.92
-4 6 0 25 1.85
-4 6 -1 1.45 0.47
-4 6 -1 1.61 0.46
-4 6 -2 143.1 4.44
-4 6 -2 126.19 3.78
-4 6 -3 12.94 1.3
-4 6 -3 13.5 1.18
-4 5 10 9.96 0.9
-4 5 10 9.35 1.02
-4 5 9 5.93 0.92
-4 5 9 5.53 0.73
-4 5 8 31.48 2.28
-4 5 8 30.38 1.79
-4 5 7 48.29 3
-4 5 7 44.76 2.24
-4 5 6 31.41 2.52
-4 5 6 30.16 1.87
-4 5 5 14.14 1.75
-4 5 5 15.17 1.34
-4 5 4 197.22 6.56
-4 5 3 84.84 4.38
-4 5 2 13.57 1.74
-4 5 1 1.01 0.58
-4 5 0 31.87 2.63
-4 5 -1 69.88 3.79
-4 5 -1 71.85 3.89
-4 5 -2 0.74 0.39
-4 5 -2 0.66 0.4
-4 5 -2 0.32 0.39
-4 5 -3 11.58 1.28
-4 5 -3 10.11 1.41
-4 5 -3 10.49 1.38
-4 5 -4 32.32 2.11
-4 5 -4 30.18 2.33
-4 5 -4 29.6 2.2
-4 5 -5 15.74 1.45
-4 5 -5 16.76 1.66
-4 5 -5 16.54 1.57
-4 5 -6 1.32 0.43
-4 5 -7 7.77 0.92
-4 5 -8 4.95 0.68
-4 5 -9 49.85 1.8
-4 4 12 3.49 0.52
-4 4 11 4.94 0.91
-4 4 11 3.76 0.61
-4 4 10 361.05 8.49
-4 4 10 361.06 6.37
-4 4 9 237.14 7.44
-4 4 9 213.25 5.11
-4 4 8 439.39 10.7
-4 4 8 431.09 7.49
-4 4 7 79.09 4.72
-4 4 7 80.28 3.23
-4 4 6 115.24 5.8
-4 4 6 115.15 3.91
-4 4 5 78.01 4.84
-4 4 5 63.86 2.85
-4 4 4 146.64 6.16
-4 4 4 156.79 4.39
-4 4 3 159.09 6.4
-4 4 2 7.06 1.15
-4 4 2 0.17 0.55
-4 4 1 166.17 6.46
-4 4 1 173.79 4.48
-4 4 0 1126.06 13.9
-4 4 0 1103.72 16.42
-4 4 0 1099.46 11.01
-4 4 -1 726.32 11.33
-4 4 -1 734.89 13.17
-4 4 -2 62.99 3.45
-4 4 -2 60.06 3.7
-4 4 -2 57.44 3.79
-4 4 -2 66.6 3.03
-4 4 -3 104.91 4.49
-4 4 -3 107.79 4.88
-4 4 -3 111.48 5.09
-4 4 -3 100.9 3.76
-4 4 -4 12.66 1.61
-4 4 -4 11.51 1.6
-4 4 -4 11.64 1.61
-4 4 -4 13.9 1.41
-4 4 -5 0.23 0.34
-4 4 -5 0.03 0.3
-4 4 -5 0.4 0.33
-4 4 -5 0.62 0.39
-4 4 -6 186.56 5.99
-4 4 -6 192.62 6.03
-4 4 -6 186.2 6.01
-4 4 -6 176.44 4.62
-4 4 -7 220.39 6.32
-4 4 -8 114.98 4.32
-4 4 -9 12.82 1.35
-4 4 -10 39.55 2.1
-4 4 -11 2.75 0.48
-4 3 13 2.75 0.56
-4 3 13 2.27 0.43
-4 3 12 2.76 0.72
-4 3 12 2.68 0.54
-4 3 11 4.33 1
-4 3 11 4.99 0.78
-4 3 10 118.02 5.47
-4 3 10 111.33 3.75
-4 3 9 134.7 6.18
-4 3 9 149.96 4.52
-4 3 8 0.29 0.58
-4 3 8 1.66 0.54
-4 3 7 0.45 0.57
-4 3 7 1.56 0.57
-4 3 6 17.49 2.41
-4 3 6 21.57 1.79
-4 3 5 171.21 7.42
-4 3 5 182.38 5.06
-4 3 4 2.29 0.92
-4 3 4 3.51 0.71
-4 3 3 27.91 2.94
-4 3 3 26.79 1.85
-4 3 3 32.1 2.13
-4 3 2 62.99 3.97
-4 3 2 64.98 2.95
-4 3 1 42.09 2.75
-4 3 1 42.77 2.38
-4 3 1 40.02 3.12
-4 3 0 5.54 1.02
-4 3 0 4.92 1.12
-4 3 0 4.6 0.81
-4 3 -1 40.45 2.86
-4 3 -1 43.62 2.41
-4 3 -1 41.87 3.13
-4 3 -2 64.81 3.66
-4 3 -2 72.15 4
-4 3 -2 60.97 2.98
-4 3 -2 71.68 3.06
-4 3 -3 204.37 6.67
-4 3 -3 206.45 5.52
-4 3 -3 215.93 5.28
-4 3 -3 205.15 6.63
-4 3 -3 200.97 7.07
-4 3 -4 10.41 1.55
-4 3 -4 8.36 1.14
-4 3 -4 11.17 1.55
-4 3 -4 11.2 1.63
-4 3 -5 271.23 7.97
-4 3 -5 267.19 7.52
-4 3 -5 267.01 7.85
-4 3 -5 270.52 6.22
-4 3 -6 120.17 5.38
-4 3 -6 115.04 4.87
-4 3 -6 120.85 5.15
-4 3 -6 127.46 4.16
-4 3 -7 9.88 1.55
-4 3 -7 7.87 1
-4 3 -8 11.63 1.65
-4 3 -9 4.05 0.95
-4 3 -10 1.33 0.53
-4 3 -11 87.92 3.5
-4 3 -12 86.33 2.95
-4 2 13 10.66 1.24
-4 2 13 8.95 0.89
-4 2 12 24.43 2.19
-4 2 12 24.64 1.63
-4 2 11 4.59 1.09
-4 2 11 3.41 0.68
-4 2 10 107.5 5.5
-4 2 10 117.49 3.99
-4 2 9 208.71 8.03
-4 2 9 233.59 5.86
-4 2 8 731.9 15.32
-4 2 8 800.18 11.02
-4 2 7 590.08 13.77
-4 2 7 623.76 9.83
-4 2 6 1426.08 20.99
-4 2 6 1431.09 15.06
-4 2 6 1383.02 13.96
-4 2 5 2.07 0.83
-4 2 5 1.13 0.7
-4 2 5 0.47 0.38
-4 2 4 159.05 6.83
-4 2 4 159.69 6.92
-4 2 4 161.44 5.13
-4 2 4 160.2 4.64
-4 2 3 74.08 4.56
-4 2 3 75.65 4.55
-4 2 3 76.11 3.4
-4 2 3 80.4 3.29
4 -2 -2 51.03 3.61
-4 2 2 65.1 4.23
-4 2 2 58.19 3.81
-4 2 2 57.17 2.92
-4 2 2 59.72 2.85
-4 2 1 254.01 6.55
-4 2 1 257.87 7.41
-4 2 1 262.03 6.01
-4 2 0 453.85 8.97
-4 2 0 473.79 9.93
-4 2 0 467.03 8.19
-4 2 -1 1170.85 14.83
-4 2 -1 1210.09 15.58
-4 2 -1 1209.41 15.67
-4 2 -1 1171.07 13.37
-4 2 -2 1104.02 14.85
-4 2 -2 1098.05 14.74
-4 2 -2 1129.61 15.29
-4 2 -2 1107.13 13.33
-4 2 -3 393.37 9.23
-4 2 -3 405.71 8.82
-4 2 -3 390.32 9.45
-4 2 -3 419.12 9.56
-4 2 -3 397.55 8.1
-4 2 -3 393.17 7.43
-4 2 -4 6.11 1.2
-4 2 -4 5.71 1.05
-4 2 -4 7.03 1.26
-4 2 -4 7.66 1.37
-4 2 -4 7.02 1.01
-4 2 -4 6.43 1.06
-4 2 -5 305.94 8.64
-4 2 -5 305.4 7.74
-4 2 -5 302.24 8.16
-4 2 -5 309.07 8.77
-4 2 -5 314.47 6.65
-4 2 -5 304.36 7.28
-4 2 -6 1030.63 15.94
-4 2 -6 1009.35 15.94
-4 2 -6 1021.88 14.02
-4 2 -6 1036.52 14.98
-4 2 -6 1067.71 11.96
-4 2 -6 1033.64 13.39
-4 2 -7 39.26 3.15
-4 2 -7 37.3 3.11
-4 2 -7 40.61 2.96
-4 2 -7 38.84 2.56
-4 2 -8 30.54 2.77
-4 2 -8 29.8 2.78
-4 2 -9 724.3 13.25
-4 2 -9 790.35 13.62
-4 2 -10 25.7 2.37
-4 2 -10 26.09 2.4
-4 2 -11 0.24 0.27
-4 2 -11 0.62 0.42
-4 2 -12 5.23 0.87
-4 2 -13 26.88 1.62
4 -1 -14 27.81 1.53
4 -1 -13 77.42 2.9
-4 1 13 75.22 2.57
4 -1 -12 1.52 0.46
-4 1 12 1.13 0.4
4 -1 -11 8.3 1.06
-4 1 11 8.28 1.45
-4 1 11 8.1 1.03
4 -1 -10 22.54 1.71
-4 1 10 22.47 2.5
-4 1 10 22.19 1.8
4 -1 -9 226.81 5.35
-4 1 9 219.93 5.86
-4 1 8 181.68 7.36
-4 1 8 196.69 5.77
-4 1 7 373.62 10.54
-4 1 7 409.86 8.59
4 -1 -6 105.29 5.97
-4 1 6 113.82 5.7
-4 1 6 105.17 6.03
-4 1 6 118.89 4.65
-4 1 6 124.32 4.01
-4 1 5 16.99 2.14
-4 1 5 14.34 2.16
4 -1 -5 13.83 2.11
-4 1 5 15.11 1.68
-4 1 5 18.68 1.59
-4 1 4 0.28 0.4
-4 1 4 0.61 0.46
4 -1 -4 0.32 0.41
-4 1 4 0.81 0.58
-4 1 4 1.02 0.43
-4 1 3 4.16 1.02
4 -1 -3 3.32 0.97
-4 1 3 3.78 0.86
-4 1 3 5.03 0.83
4 -1 -2 1.24 0.63
-4 1 2 0.63 0.43
-4 1 2 -0.07 0.27
-4 1 1 15.15 1.52
4 -1 -1 13.52 1.77
-4 1 1 13.97 1.44
-4 1 0 8.83 1.2
4 -1 0 9.83 1.43
-4 1 0 8 1.13
-4 1 -1 32.31 2.35
-4 1 -1 34.05 2.43
-4 1 -1 30.67 2.28
-4 1 -2 6.36 1.11
-4 1 -2 5.23 1
-4 1 -2 5.95 1.06
-4 1 -3 0.37 0.38
-4 1 -3 1.15 0.57
-4 1 -3 0.03 0.24
-4 1 -3 0.16 0.25
-4 1 -4 2.47 0.78
-4 1 -4 1.74 0.65
-4 1 -4 1.88 0.62
-4 1 -4 2.2 0.72
-4 1 -4 1.43 0.58
-4 1 -5 163.98 6.07
-4 1 -5 167.46 6.41
-4 1 -5 159 5.58
-4 1 -5 167.53 6.24
-4 1 -5 163.19 5.78
-4 1 -6 2.05 0.78
-4 1 -6 2.89 0.91
-4 1 -6 2.28 0.72
-4 1 -6 3.25 0.94
-4 1 -6 1.77 0.65
-4 1 -7 451.92 11.04
-4 1 -7 435.73 10.5
-4 1 -7 435.43 9.65
-4 1 -8 442.49 10.67
-4 1 -8 460.32 9.86
-4 1 -8 457.62 11.25
-4 1 -9 33.67 3.09
-4 1 -9 29.79 2.77
-4 1 -9 33.73 2.59
-4 1 -10 2.05 0.83
-4 1 -10 1.2 0.6
-4 1 -10 2.04 0.67
-4 1 -11 0.63 0.53
-4 1 -11 -0.03 0.31
-4 1 -12 11.78 1.56
-4 1 -12 11.75 1.41
-4 1 -13 15.71 1.59
-4 1 -13 14.86 1.32
-4 1 -14 46.11 2.29
4 0 -14 10.48 1.04
4 0 -13 83.32 3.12
4 0 -12 9.4 1.1
-4 0 12 10.46 1.06
4 0 -11 77.78 3.22
-4 0 11 81.81 3.25
-4 0 10 124.85 3.91
-4 0 10 120.18 4.29
-4 0 9 1005.57 11.39
-4 0 9 958.7 12.92
-4 0 8 337.46 6.75
-4 0 8 337.77 8.01
4 0 -7 472.49 12.87
-4 0 7 461.6 9.46
-4 0 6 1216.55 15.27
-4 0 6 1213.42 11.98
4 0 -5 397.15 11.17
-4 0 5 405.56 8.8
-4 0 5 428.46 7.16
4 0 -4 379.61 10.57
-4 0 4 392.35 6.93
4 0 -3 308.88 9.19
4 0 -2 49.24 3.53
4 0 -1 966.72 14.84
4 0 0 274.22 7.56
4 0 1 115.03 4.63
-4 0 -2 491.26 8.56
-4 0 -3 459.53 9.86
-4 0 -3 465.44 8.59
-4 0 -4 135.9 5.51
-4 0 -4 130.14 4.92
-4 0 -4 129.64 4.64
-4 0 -4 139.95 5.06
-4 0 -4 124.56 5.06
-4 0 -5 46.23 3.07
-4 0 -5 44.83 3.32
-4 0 -5 46.32 2.78
-4 0 -5 47.42 3.09
-4 0 -5 42.19 3.03
-4 0 -6 2.33 0.82
-4 0 -6 3.37 0.99
-4 0 -6 3.75 0.93
-4 0 -6 3.68 0.85
-4 0 -6 3.09 0.87
-4 0 -7 294.96 9.06
-4 0 -7 292.62 8.2
-4 0 -7 303.97 8.55
-4 0 -7 280.93 8.88
-4 0 -8 1221.08 18.96
-4 0 -8 1213.66 16.96
-4 0 -9 616.55 13.63
-4 0 -9 594.23 11.88
-4 0 -10 1.49 0.69
-4 0 -10 0.33 0.39
-4 0 -11 169.48 6.8
-4 0 -11 178.27 5.96
-4 0 -12 21.88 2.3
-4 0 -12 21.51 1.9
-4 0 -13 29.32 2.41
-4 0 -13 30.31 1.93
-4 0 -14 11.27 1.31
-4 0 -15 2.84 0.53
4 1 -15 162.79 3.59
4 1 -14 2.86 0.57
4 1 -13 2.58 0.6
4 1 -12 8.95 1.11
-4 -1 11 214.25 5.36
-4 -1 11 217 5.19
-4 -1 10 73.24 3.31
-4 -1 10 74.14 3.44
-4 -1 9 158.93 5.05
-4 -1 9 150.51 5.24
-4 -1 8 380.2 7.82
-4 -1 8 377.11 8.6
4 1 -7 460.49 12.38
-4 -1 7 453.21 8.29
-4 -1 7 445.46 9.48
4 1 -6 45.05 3.84
-4 -1 6 44.31 2.52
-4 -1 6 43.54 2.13
4 1 -5 478.67 12.12
-4 -1 5 482.14 8.14
-4 -1 5 471.91 7.12
4 1 -4 271.56 8.81
4 1 -3 1.95 0.8
4 1 -2 0.24 0.3
4 1 -1 0.46 0.46
4 1 0 305.85 7.95
4 1 1 64.42 3.49
4 1 2 388.28 7.96
4 1 3 0.54 0.36
-4 -1 -4 17.32 1.94
-4 -1 -4 16.42 1.84
-4 -1 -5 27.14 2.54
-4 -1 -5 31.2 2.63
-4 -1 -6 124.87 5.66
-4 -1 -6 112.76 5.23
-4 -1 -7 6.65 1.36
-4 -1 -7 5.91 1.28
-4 -1 -8 0.14 0.34
-4 -1 -8 1.43 0.66
-4 -1 -9 160.84 6.97
-4 -1 -10 241.59 8.53
-4 -1 -11 59.97 4.16
-4 -1 -12 3.81 0.99
-4 -1 -13 7.33 1.26
-4 -1 -14 6.53 1.04
-4 -1 -14 6.61 0.89
-4 -1 -15 1.73 0.46
4 2 -15 102.27 2.69
4 2 -14 41.59 2.02
4 2 -13 6.87 0.91
-4 -2 12 99.24 3.53
4 2 -12 104.93 3.71
-4 -2 11 1.87 0.57
-4 -2 10 185.09 5.62
-4 -2 10 201.06 5.54
-4 -2 9 41.02 2.72
-4 -2 9 43.12 2.79
-4 -2 8 1008.57 13.18
-4 -2 8 993.41 14.1
4 2 -7 1552.87 21.72
-4 -2 7 1593.34 16
4 2 -6 47.99 3.8
-4 -2 6 52.28 2.86
4 2 -5 35.58 3.19
-4 -2 5 37.3 2.39
4 2 -4 568.32 12.46
-4 -2 4 573.02 9.43
4 2 -3 627.23 12.78
4 2 -2 71.32 4.14
4 2 -1 137.31 5.5
4 2 0 553.03 10.65
4 2 1 931.16 13.13
4 2 2 0.64 0.4
4 2 3 217.92 5.84
-4 -2 -4 221.98 6.32
4 2 4 197.22 5.23
-4 -2 -5 35.79 2.81
-4 -2 -5 34.69 2.65
-4 -2 -6 3.26 0.89
-4 -2 -6 3.79 1.01
-4 -2 -6 3.27 0.91
-4 -2 -7 27.77 2.73
-4 -2 -7 34.62 2.85
-4 -2 -7 27.64 2.67
-4 -2 -8 80.47 4.39
-4 -2 -8 85.86 4.89
-4 -2 -8 79.06 4.7
-4 -2 -9 303.26 8.63
-4 -2 -9 306.24 9.43
-4 -2 -10 351.05 9.04
-4 -2 -10 333.14 9.8
-4 -2 -11 359.57 8.77
-4 -2 -11 339.15 9.62
-4 -2 -12 31.3 2.41
-4 -2 -12 30.32 2.71
-4 -2 -13 20.81 2.03
-4 -2 -14 75.97 3.37
-4 -2 -15 15.95 1.25
-4 -2 -15 16.31 1.22
4 3 -14 3.68 0.55
4 3 -13 83.03 2.86
-4 -3 12 1.93 0.56
-4 -3 11 59.66 2.86
-4 -3 10 248.99 6.37
-4 -3 9 175.27 5.55
-4 -3 9 183.04 5.55
-4 -3 8 0.88 0.46
4 3 -7 505.99 11.84
-4 -3 7 515.16 9.41
4 3 -6 145.93 6.35
-4 -3 6 155.78 5.1
4 3 -5 127.54 5.86
-4 -3 5 128.34 4.63
4 3 -4 7.31 1.4
-4 -3 4 8.12 1.18
4 3 -3 166.46 6.41
-4 -3 3 161.12 5.25
4 3 -2 239.6 7.43
-4 -3 2 238.57 6.39
-4 -3 1 0.26 0.25
4 3 -1 2.58 0.76
4 3 0 85.47 4.2
4 3 1 26.55 2.26
4 3 2 235.68 6.48
-4 -3 -2 215.66 6.48
4 3 3 7.14 1.13
-4 -3 -3 5.47 1.04
-4 -3 -4 419.04 9.65
4 3 4 424.53 7.88
-4 -3 -5 361.38 9.37
4 3 5 379.56 7.13
-4 -3 -6 0.35 0.44
-4 -3 -7 4.37 1.07
-4 -3 -7 4.27 1.05
-4 -3 -8 58.9 4.01
-4 -3 -8 70.09 4.27
-4 -3 -9 21.64 2.44
-4 -3 -9 20.99 2.38
-4 -3 -10 -0.04 0.31
-4 -3 -10 0.78 0.44
-4 -3 -11 31.16 2.76
-4 -3 -11 31.48 2.74
-4 -3 -12 25.51 2.31
-4 -3 -12 26.02 2.3
-4 -3 -13 0.25 0.33
-4 -3 -13 0.1 0.25
-4 -3 -14 2.31 0.53
-4 -3 -15 7.75 0.85
4 4 -13 5.12 0.62
-4 -4 12 34.03 1.82
4 4 -12 38.71 1.9
-4 -4 11 8.39 1.03
-4 -4 10 55.82 2.89
-4 -4 9 11.55 1.38
-4 -4 8 27.03 2.14
4 4 -8 28.78 1.86
-4 -4 7 297.52 7.1
-4 -4 6 471.22 8.97
-4 -4 5 293.94 7.14
4 4 -5 288.85 8.29
-4 -4 4 12.19 1.47
4 4 -4 11.41 1.66
-4 -4 3 49.25 2.98
4 4 -3 51.93 3.46
-4 -4 2 28.64 2.32
4 4 -2 32.95 2.72
-4 -4 1 78.18 3.86
4 4 -1 80.33 4.12
4 4 0 6.48 1.19
-4 -4 0 5.27 1.03
-4 -4 -1 739.44 12.35
4 4 1 788.13 12.38
-4 -4 -2 129.06 5.27
4 4 2 139.45 4.98
-4 -4 -3 62.77 3.78
4 4 3 67.88 3.38
-4 -4 -4 71.62 4.2
4 4 4 68.83 3.27
-4 -4 -5 3.88 1.04
4 4 5 4.95 0.86
-4 -4 -6 199.51 7.48
-4 -4 -6 216.67 7.84
-4 -4 -7 21.48 2.53
-4 -4 -8 79.97 4.88
-4 -4 -9 115.6 5.8
-4 -4 -10 134.81 6.09
-4 -4 -11 74.02 4.29
-4 -4 -12 148.33 5.57
-4 -4 -13 26.25 2.16
-4 -4 -14 0.29 0.22
4 5 -12 36.96 1.44
-4 -5 11 3.53 0.57
-4 -5 10 40.03 2.14
-4 -5 9 5.92 0.93
-4 -5 8 289.35 6.59
4 5 -8 298.64 6.03
-4 -5 7 398.74 7.9
4 5 -7 392.32 7.34
-4 -5 6 13.02 1.52
4 5 -6 12.01 1.4
-4 -5 5 11.6 1.46
-4 -5 4 1.68 0.6
-4 -5 3 57.97 3.32
4 5 -3 62.19 3.64
-4 -5 2 0.8 0.46
4 5 -2 0.55 0.4
-4 -5 1 50.26 3.19
4 5 -1 52.48 3.25
-4 -5 0 47.3 3.14
4 5 0 50.04 3.12
-4 -5 -1 13.88 1.74
4 5 1 15.17 1.7
-4 -5 -2 66.14 3.92
4 5 2 71.73 3.6
-4 -5 -3 0.79 0.48
4 5 3 1.32 0.53
-4 -5 -4 13.99 1.92
4 5 4 14.02 1.52
-4 -5 -5 92.06 5.03
-4 -5 -6 174.84 7.09
-4 -5 -7 187.45 7.45
-4 -5 -8 15.55 2.15
-4 -5 -9 15.56 2.13
-4 -5 -9 15.58 2.15
-4 -5 -10 3.28 0.94
-4 -5 -10 3.05 0.95
-4 -5 -11 7.77 1.37
-4 -5 -12 4.19 0.93
-4 -5 -13 0.88 0.42
-4 -5 -14 0.12 0.16
-4 -6 10 4.63 0.59
-4 -6 9 133.59 3.54
-4 -6 8 101 3.47
4 6 -8 109.82 3.36
-4 -6 7 62.71 2.9
4 6 -7 57.7 2.68
-4 -6 6 33.89 2.21
4 6 -6 30.37 2.15
-4 -6 5 18.11 1.68
4 6 -5 16.13 1.67
-4 -6 4 63.92 3.25
4 6 -4 54.02 3.1
-4 -6 3 5.08 0.99
-4 -6 2 17.15 1.78
-4 -6 1 193.96 6.15
-4 -6 0 121.27 5.02
-4 -6 -1 136.58 5.45
-4 -6 -2 22.46 2.27
-4 -6 -3 161.31 6.27
-4 -6 -4 22.44 2.4
-4 -6 -5 8.53 1.53
-4 -6 -6 7.03 1.37
-4 -6 -7 96.43 5.03
-4 -6 -8 21.47 2.34
-4 -6 -9 4.77 1.09
-4 -6 -10 105.3 4.65
-4 -6 -11 24.22 2.02
-4 -6 -12 44.85 2.39
-4 -6 -13 6.43 0.75
4 7 -8 296.17 4.46
4 7 -7 26.76 1.53
4 7 -7 26.88 1.43
-4 -7 6 0.35 0.25
4 7 -6 0.38 0.29
4 7 -6 0.19 0.25
4 7 -5 45.73 2.52
4 7 -5 46.78 2.38
-4 -7 4 31.79 2.01
4 7 -4 27.62 2.06
4 7 -4 29.21 2.02
-4 -7 3 60.88 2.9
4 7 -3 52.87 2.83
-4 -7 2 13.04 1.41
4 7 -2 13.82 1.51
-4 -7 1 7.29 1.11
4 7 -1 5.38 0.97
-4 -7 0 73.43 3.56
4 7 0 69.68 3.47
-4 -7 -1 34.07 2.5
4 7 1 28.62 2.25
-4 -7 -2 4.51 0.96
4 7 2 4.12 0.86
-4 -7 -3 11.62 1.55
4 7 3 9.12 1.26
-4 -7 -4 4.09 0.95
-4 -7 -5 -0.34 0.5
-4 -7 -6 13.33 1.68
-4 -7 -7 38.94 2.77
-4 -7 -8 217.14 6.23
-4 -7 -9 30.44 2.16
-4 -7 -10 7.86 1
4 8 -6 0.4 0.2
4 8 -5 26.21 1.44
4 8 -5 25.39 1.32
4 8 -4 116.31 3.34
4 8 -4 118.83 3.2
4 8 -3 1.24 0.42
4 8 -3 1.34 0.41
4 8 -2 17.96 1.44
4 8 -1 75.92 3.06
4 8 0 26.22 1.86
4 8 1 126.2 4.13
4 8 2 40.59 2.34
4 8 3 99.41 3.65
4 8 4 106.6 3.73
4 8 5 22.81 1.67
4 8 6 28.53 1.79
4 8 7 71.91 2.6
-5 5 5 6.66 0.78
-5 5 4 21.05 1.45
-5 5 4 19.8 1.54
-5 5 3 68.99 2.72
-5 5 3 67.42 2.91
-5 5 2 72.93 2.87
-5 5 2 67 2.96
-5 5 1 62.19 2.65
-5 5 1 59.82 2.76
-5 5 0 7.25 0.9
-5 5 0 6.34 0.91
-5 5 -1 2.31 0.51
-5 5 -1 1.61 0.46
-5 5 -2 1.46 0.42
-5 5 -2 1.31 0.42
-5 5 -3 9.43 0.96
-5 4 8 8.02 0.89
-5 4 8 9.94 0.88
-5 4 7 14.17 1.32
-5 4 7 14.95 1.12
-5 4 6 20.64 1.7
-5 4 6 19.25 1.28
-5 4 5 50.14 2.77
-5 4 5 47.69 2.03
-5 4 4 26.29 2.07
-5 4 3 31.21 2.28
-5 4 2 16.43 1.67
-5 4 1 104.15 4.12
-5 4 0 72.76 3.43
-5 4 0 72.53 3.76
-5 4 -1 47.2 2.7
-5 4 -1 46.08 2.92
-5 4 -1 53.28 2.05
-5 4 -2 9.93 1.22
-5 4 -2 11.36 1.41
-5 4 -3 1.01 0.42
-5 4 -3 0.98 0.45
-5 4 -4 369.07 7.25
-5 4 -5 0.55 0.34
-5 4 -6 103.69 3.27
-5 4 -7 25.88 1.51
-5 4 -8 2.05 0.4
-5 3 10 2.83 0.49
-5 3 9 0.61 0.31
-5 3 9 0.42 0.21
-5 3 8 56.3 2.88
-5 3 8 61.06 2.48
-5 3 7 0.66 0.37
-5 3 7 0.32 0.23
-5 3 6 17.64 1.8
-5 3 6 19.23 1.47
-5 3 5 74.34 3.8
-5 3 5 69.82 2.79
-5 3 4 40.93 2.86
-5 3 4 41.13 2.13
-5 3 3 12.82 1.62
-5 3 3 12.35 1.15
-5 3 2 210.2 6.43
-5 3 2 204.69 5.06
-5 3 1 136.89 5.11
-5 3 1 134.65 4.06
-5 3 0 66.44 3.49
-5 3 0 66.01 2.85
-5 3 -1 23.2 2.04
-5 3 -1 23.54 2.33
-5 3 -1 25.45 1.75
-5 3 -2 3.32 0.86
-5 3 -2 2.64 0.79
-5 3 -2 3.07 0.64
-5 3 -3 35.24 2.49
-5 3 -3 35.8 2.69
-5 3 -3 38.78 2.05
-5 3 -4 3.58 0.83
-5 3 -4 3.7 0.87
-5 3 -4 4.21 0.66
-5 3 -5 1.98 0.63
-5 3 -5 1.49 0.57
-5 3 -6 12.72 1.43
-5 3 -7 7.5 1.04
-5 3 -8 9.74 1.1
-5 3 -9 3.58 0.61
-5 3 -10 0.65 0.23
-5 2 11 61.39 2.21
-5 2 10 23.97 1.5
-5 2 9 57.27 2.5
-5 2 8 160.44 4.41
-5 2 7 64.28 2.89
-5 2 6 307.81 6.43
-5 2 5 98.99 3.71
-5 2 5 93.81 3.58
-5 2 4 161.85 4.68
-5 2 4 166.21 4.81
-5 2 3 59.11 2.81
-5 2 3 60.51 2.94
-5 2 2 194.34 4.93
-5 2 2 184.24 5.15
-5 2 1 202.8 5.46
-5 2 0 0.09 0.25
-5 2 -1 54.57 3.21
-5 2 -1 48.27 3.35
-5 2 -1 51 2.79
-5 2 -2 999.23 13.79
-5 2 -2 975.15 12.1
-5 2 -3 516.01 9.98
-5 2 -3 520.61 8.85
-5 2 -3 508.95 10.43
-5 2 -4 9.66 1.4
-5 2 -4 8.91 1.38
-5 2 -4 8.92 1.16
-5 2 -5 22.93 2.13
-5 2 -5 23.63 1.85
-5 2 -5 23.92 2.16
-5 2 -6 67.84 3.63
-5 2 -6 76.04 3.18
-5 2 -7 37.59 2.64
-5 2 -7 47.43 2.34
-5 2 -8 28.03 2.16
-5 2 -9 58 2.82
-5 2 -10 80.89 2.95
-5 2 -11 1.56 0.36
-5 1 12 13.92 0.98
-5 1 11 2.15 0.47
-5 1 10 18.52 1.42
-5 1 9 12.63 1.28
-5 1 8 35.81 2.24
-5 1 7 140.62 4.66
-5 1 6 7.29 1.2
-5 1 6 1.82 0.66
-5 1 5 8.14 1.22
-5 1 5 9.83 1.39
-5 1 4 20.74 1.75
-5 1 4 20.93 1.95
-5 1 3 299.21 7.32
-5 1 3 308.42 6.74
-5 1 2 3.1 0.79
-5 1 2 3.56 0.78
-5 1 1 25.27 2.05
-5 1 1 26.46 2.05
-5 1 0 81.6 3.68
-5 1 -1 99.4 4.28
-5 1 -1 92.62 4.49
-5 1 -1 92.3 4.07
-5 1 -2 78.63 3.85
-5 1 -2 74.62 3.98
-5 1 -2 78.25 3.84
-5 1 -3 16.22 1.82
-5 1 -3 13.04 1.66
-5 1 -3 16.56 1.8
-5 1 -4 5.2 1.09
-5 1 -4 5.29 1.02
-5 1 -4 6.8 1.2
-5 1 -5 176.98 6.05
-5 1 -5 177.47 5.8
-5 1 -5 183.99 6.01
-5 1 -6 6.82 1.19
-5 1 -6 8.53 1.28
-5 1 -7 52.15 3.21
-5 1 -7 58.77 3.23
-5 1 -8 30.93 2.38
-5 1 -8 35.4 2.37
-5 1 -9 0.86 0.41
-5 1 -9 0.9 0.39
-5 1 -10 0.62 0.34
-5 1 -10 0.52 0.25
-5 1 -11 1.25 0.38
5 0 -12 27.04 1.42
-5 0 12 27.43 1.37
5 0 -11 1.54 0.41
-5 0 11 1.61 0.42
5 0 -10 65.79 2.58
-5 0 10 62.24 2.7
5 0 -9 10.56 1.09
-5 0 9 8.94 1.14
-5 0 8 161.24 5.21
-5 0 7 1.76 0.68
-5 0 6 369.04 8.56
-5 0 6 362.63 6.78
-5 0 5 379.89 8.8
-5 0 5 394.3 7.16
-5 0 4 1460.15 17.29
-5 0 4 1467.98 14.19
-5 0 3 3.99 0.8
-5 0 3 4.05 0.94
5 0 -2 33.6 3.17
-5 0 2 35.82 2.67
-5 0 2 37.02 2.41
5 0 -1 162.69 6.67
-5 0 1 161.04 5.2
-5 0 0 15.39 1.66
-5 0 -1 234.02 6.67
-5 0 -2 448.1 8.86
-5 0 -2 432.52 9.4
-5 0 -3 757.61 11.73
-5 0 -3 751.24 11.45
-5 0 -4 1111.1 14.43
-5 0 -4 1123.74 13.98
-5 0 -5 322.8 7.89
-5 0 -5 331.19 8.77
-5 0 -6 7.46 1.22
-5 0 -6 8.3 1.41
-5 0 -7 49.77 3.07
-5 0 -7 54.01 3.5
-5 0 -8 266.24 6.88
-5 0 -8 290.74 7.85
-5 0 -9 0.22 0.26
-5 0 -9 -0.13 0.38
-5 0 -10 6.35 1.03
-5 0 -11 549.96 8.35
-5 0 -12 8.89 0.86
5 1 -13 53.8 1.91
5 1 -12 9.95 0.94
-5 -1 12 9.89 0.79
5 1 -11 26.78 1.66
-5 -1 11 27.12 1.58
-5 -1 10 0.44 0.22
-5 -1 10 0.59 0.38
-5 -1 9 27.4 1.77
-5 -1 9 25.2 2.02
-5 -1 8 3.9 0.76
-5 -1 8 3.76 0.88
-5 -1 7 131.25 4.32
-5 -1 7 135.86 5.21
-5 -1 6 134.52 4.38
-5 -1 6 125.92 5.24
-5 -1 6 134.62 3.91
-5 -1 5 441.48 7.81
-5 -1 5 421.17 7.14
-5 -1 4 114.48 3.83
5 1 -3 91.01 5.5
-5 -1 3 93.35 3.58
5 1 -2 12.76 2
-5 -1 2 12.2 1.36
5 1 -1 39.28 3.31
-5 -1 1 39.35 2.57
5 1 0 14.84 1.96
-5 -1 0 13.07 1.52
5 1 1 0.69 0.49
-5 -1 -1 0.87 0.51
-5 -1 -2 3.67 0.93
-5 -1 -3 17.7 2.02
-5 -1 -4 64.88 3.93
-5 -1 -5 3.18 0.95
-5 -1 -6 1.5 0.64
-5 -1 -7 218.87 7.43
-5 -1 -8 28.91 2.82
-5 -1 -8 32.1 2.79
-5 -1 -9 85.67 4.68
-5 -1 -9 93.04 4.56
-5 -1 -10 159.32 6.03
-5 -1 -10 177.95 5.97
-5 -1 -11 20.12 1.83
-5 -1 -12 2.32 0.59
-5 -1 -13 0.36 0.26
5 2 -13 46.44 1.8
5 2 -12 8.63 0.89
-5 -2 11 49.41 2.14
-5 -2 11 51.1 2
-5 -2 10 15.69 1.34
-5 -2 10 13.58 1.28
-5 -2 9 53.95 2.75
-5 -2 9 51.96 2.88
-5 -2 8 46.78 2.69
-5 -2 8 45.19 2.96
-5 -2 7 388.31 7.82
-5 -2 7 370.7 8.83
-5 -2 6 308.29 6.92
-5 -2 5 91.5 3.79
-5 -2 4 744.55 10.95
5 2 -3 467.25 12.16
-5 -2 3 479.26 8.88
-5 -2 3 488.55 7.72
5 2 -2 895.67 16.3
-5 -2 2 875.81 12
-5 -2 2 872.79 11.18
5 2 -1 503.48 11.82
-5 -2 1 494.27 9.23
-5 -2 1 501.16 8.93
-5 -2 0 5.94 1.03
5 2 0 5.65 1.2
-5 -2 0 6.72 1.13
5 2 1 261.2 7.77
-5 -2 -1 260.15 6.89
-5 -2 -1 260.57 7.19
-5 -2 -2 85.43 3.99
5 2 2 87.56 4.24
-5 -2 -2 79.72 4.1
-5 -2 -3 53.69 3.25
-5 -2 -3 49.49 3.35
-5 -2 -4 506.58 10.15
-5 -2 -4 486.51 10.87
-5 -2 -5 266.84 7.48
-5 -2 -5 259.24 8.12
-5 -2 -6 224.72 6.95
-5 -2 -6 208.82 7.37
-5 -2 -7 39.88 2.92
-5 -2 -8 8.71 1.35
-5 -2 -9 35.05 2.92
-5 -2 -9 37.49 2.7
-5 -2 -10 538.08 9.56
-5 -2 -10 529.76 10.78
-5 -2 -11 383.45 8.43
-5 -2 -12 1.71 0.55
-5 -2 -13 221.62 4.8
5 3 -12 2.2 0.44
-5 -3 11 15.26 1.18
-5 -3 10 11.7 1.18
-5 -3 10 12.47 1.12
-5 -3 9 110.2 3.99
-5 -3 9 111.41 3.97
-5 -3 8 56.91 3.01
-5 -3 8 51.39 3.02
-5 -3 7 65.08 3.25
-5 -3 6 362.21 7.81
-5 -3 5 300.21 7.22
-5 -3 4 36.18 2.49
-5 -3 3 383.07 8.33
-5 -3 2 266.32 7.05
5 3 -1 80.45 4.64
-5 -3 1 78.55 3.86
5 3 0 25.23 2.53
-5 -3 0 26.9 2.31
-5 -3 -1 3.14 0.82
5 3 1 4.1 1
-5 -3 -1 6.33 1.08
-5 -3 -2 122.12 5.09
-5 -3 -2 125.4 5.05
-5 -3 -3 0.99 0.54
5 3 3 1 0.52
-5 -3 -3 1.17 0.59
-5 -3 -4 107.99 4.98
-5 -3 -4 102.71 4.93
-5 -3 -5 9.38 1.53
-5 -3 -5 8.28 1.44
-5 -3 -6 1.22 0.58
-5 -3 -7 1.58 0.6
-5 -3 -8 30.07 2.66
-5 -3 -9 40.47 3.02
-5 -3 -10 28.06 2.37
-5 -3 -11 31.04 2.26
-5 -3 -12 111.92 3.72
-5 -3 -12 113.5 4.14
-5 -3 -13 53.84 2.41
5 4 -12 19.26 1.06
-5 -4 11 0.8 0.31
-5 -4 10 102.12 3.28
-5 -4 9 1.08 0.38
-5 -4 8 111.05 4.07
-5 -4 8 96.59 3.82
-5 -4 7 36.08 2.35
-5 -4 6 563.36 9.57
-5 -4 5 756.09 11.37
-5 -4 4 46.27 2.88
-5 -4 3 19.89 1.95
-5 -4 2 425.93 9.18
-5 -4 1 667.85 11.67
-5 -4 0 83.04 4.19
-5 -4 -1 22.89 2.24
-5 -4 -2 266.74 7.84
-5 -4 -3 319.93 8.83
-5 -4 -3 333.19 8.14
-5 -4 -4 25.02 2.51
-5 -4 -4 19.56 2.07
-5 -4 -5 64.65 4.07
-5 -4 -5 66.89 3.96
-5 -4 -6 1.1 0.6
-5 -4 -7 15.46 2.01
-5 -4 -8 15.02 1.95
-5 -4 -9 4.73 1.07
-5 -4 -10 17.22 1.86
-5 -4 -11 91.36 3.88
-5 -4 -12 192.29 4.86
-5 -4 -12 186.81 5
-5 -4 -13 343.17 5.58
-5 -5 10 26.85 1.45
-5 -5 9 6.15 0.84
-5 -5 8 36.83 2.16
-5 -5 7 109.76 3.88
-5 -5 6 1.93 0.59
-5 -5 5 467.01 8.68
-5 -5 4 203.21 5.86
-5 -5 3 80.05 3.82
-5 -5 2 4.64 0.97
-5 -5 1 104.24 4.64
-5 -5 0 192.71 6.36
-5 -5 -1 24.02 2.34
-5 -5 -2 5.14 1.06
-5 -5 -3 18.02 2.08
-5 -5 -4 147.7 6.01
-5 -5 -5 8.53 1.52
-5 -5 -6 95.27 4.89
-5 -5 -6 90.12 4.25
-5 -5 -7 94.76 4.79
-5 -5 -8 0.63 0.53
-5 -5 -9 0.62 0.38
-5 -5 -10 18.56 1.82
-5 -5 -11 3.76 0.74
-5 -5 -11 3.3 0.67
-5 -5 -12 6.13 0.8
-5 -5 -12 5.92 0.75
-5 -6 9 2.98 0.47
-5 -6 8 4.81 0.68
-5 -6 7 2.85 0.6
-5 -6 6 17.23 1.45
-5 -6 5 225.78 5.46
-5 -6 4 259.71 6.13
-5 -6 3 183.98 5.39
-5 -6 2 7.44 1.13
-5 -6 1 0.59 0.38
-5 -6 0 11.16 1.48
-5 -6 -1 224.11 6.75
-5 -6 -2 53.37 3.38
-5 -6 -3 142.9 5.56
-5 -6 -4 84.68 4.33
-5 -6 -5 34.78 2.8
-5 -6 -6 0.93 0.65
-5 -6 -7 0.62 0.47
-5 -6 -8 39.43 2.73
-5 -6 -9 4.68 0.9
-5 -6 -10 12.96 1.33
-5 -6 -11 37.6 1.88
-5 -7 6 114.94 3.05
-5 -7 5 301.9 5.36
-5 -7 4 1.19 0.4
-5 -7 3 90.27 3.29
-5 -7 2 5.45 0.85
-5 -7 1 44.54 2.53
-5 -7 0 1.09 0.45
-5 -7 -1 24.23 1.99
-5 -7 -2 38.25 2.54
-5 -7 -3 23.49 2.01
-5 -7 -4 28.38 2.22
-5 -7 -5 -0.24 0.41
-5 -7 -6 23.99 1.94
-5 -7 -7 9.9 1.19
-5 -7 -8 33.88 2
-5 -7 -9 80.67 2.7
-5 -8 1 1.82 0.38
-5 -8 0 16.46 1.17
-5 -8 -1 16.86 1.23
-5 -8 -2 10.79 1
-5 -8 -3 7.6 0.84
-5 -8 -4 3.41 0.56
-6 3 4 13.79 1.2
-6 3 3 0.33 0.26
-6 3 2 1.76 0.5
-6 3 1 26.42 1.8
-6 3 0 22.5 1.64
-6 3 -1 57.95 2.56
-6 3 -1 67.31 2.12
-6 3 -2 11.41 0.87
-6 3 -2 6.28 0.84
-6 3 -3 4.76 0.57
-6 2 8 33.69 1.42
-6 2 7 21.68 1.24
-6 2 6 0.7 0.28
-6 2 5 23.07 1.36
-6 2 4 0.89 0.38
-6 2 4 0.12 0.15
-6 2 3 32.13 2.16
-6 2 3 43.35 2.18
-6 2 2 3.49 0.74
-6 2 2 14.13 1.33
-6 2 1 36.2 2.34
-6 2 1 44.23 2.19
-6 2 0 49.59 2.74
-6 2 0 54.6 2.4
-6 2 -1 83.05 3.46
-6 2 -1 92.19 3.07
-6 2 -2 24.75 1.85
-6 2 -2 26.72 1.64
-6 2 -3 1.29 0.47
-6 2 -3 1.62 0.43
-6 2 -4 16.2 1.17
-6 2 -5 14.89 1.04
-6 2 -6 306.25 4.14
-6 1 9 0.34 0.2
-6 1 8 16.05 1.14
-6 1 7 7.59 0.85
-6 1 6 176.91 4.24
-6 1 5 68.76 2.73
-6 1 4 0.48 0.31
-6 1 4 8.64 1.19
-6 1 3 31.54 1.89
-6 1 3 37.87 2.16
-6 1 2 71.83 2.78
-6 1 2 71.26 2.95
-6 1 1 2.19 0.62
-6 1 0 88 3.4
-6 1 -1 92.4 3.74
-6 1 -1 92.98 3.56
-6 1 -2 46.01 2.59
-6 1 -2 46.17 2.51
-6 1 -3 79.76 3.34
-6 1 -3 74.94 3.16
-6 1 -4 39 2.21
-6 1 -5 1.67 0.47
-6 1 -6 2.56 0.53
-6 1 -7 11.37 1.01
-6 1 -8 12.5 0.91
-6 0 10 180.98 3.25
-6 0 9 5.19 0.66
-6 0 8 12.49 1.11
-6 0 7 95.31 3.28
-6 0 6 21.39 1.7
-6 0 5 6.69 1.05
-6 0 5 1.37 0.51
-6 0 4 69.41 3.31
-6 0 4 68.4 2.82
-6 0 3 131.78 4.6
-6 0 3 121.55 3.88
-6 0 2 85.37 3.65
-6 0 2 91.93 3.47
-6 0 1 13.36 1.43
-6 0 1 13.91 1.41
-6 0 0 125.93 4.31
-6 0 -1 165.23 5.11
-6 0 -2 0.83 0.39
-6 0 -3 2.22 0.64
-6 0 -4 610.57 9.97
-6 0 -5 150.33 4.9
-6 0 -6 5.94 0.96
-6 0 -7 16.66 1.49
-6 0 -8 180.64 4.49
-6 0 -9 75.22 2.55
-6 -1 10 28.13 1.32
-6 -1 9 2.41 0.5
-6 -1 8 29.92 1.81
-6 -1 7 7.86 1.08
-6 -1 6 0.65 0.43
-6 -1 5 38.65 2.63
-6 -1 5 40.4 2.03
-6 -1 4 48.3 3.04
-6 -1 4 50.07 2.37
-6 -1 3 3.91 0.72
-6 -1 3 3.26 0.84
-6 -1 2 0.21 0.3
-6 -1 2 0.34 0.33
-6 -1 1 251.14 6.86
-6 -1 1 244.68 5.93
-6 -1 0 4.32 0.91
-6 -1 0 3.39 0.77
-6 -1 -1 26.91 2.14
-6 -1 -1 23.3 1.99
-6 -1 -2 48.84 2.94
-6 -1 -3 121.09 4.76
-6 -1 -4 154.67 5.4
-6 -1 -5 1.27 0.61
-6 -1 -6 21.2 1.98
-6 -1 -7 44.62 2.75
-6 -1 -8 11.02 1.26
-6 -1 -9 22.75 1.68
-6 -1 -10 12.93 1.11
6 2 -10 77.8 2.1
-6 -2 10 79.84 2.09
-6 -2 9 4.81 0.67
-6 -2 8 153.74 3.4
-6 -2 8 146.53 4.16
-6 -2 7 1.02 0.35
-6 -2 7 1.46 0.51
-6 -2 6 92.39 3.21
-6 -2 6 90.41 3.95
-6 -2 5 103.92 3.51
-6 -2 5 96.71 4.29
-6 -2 4 53.62 2.55
-6 -2 3 70.63 2.96
-6 -2 3 69.36 2.69
-6 -2 2 759.69 9.43
-6 -2 1 4.11 0.76
-6 -2 0 21.42 1.8
-6 -2 -1 98.66 4.04
-6 -2 -2 0.12 0.46
-6 -2 -3 152.63 5.37
-6 -2 -4 249.28 7.07
-6 -2 -5 276.94 7.5
-6 -2 -6 681.7 11.56
-6 -2 -7 126.9 4.87
-6 -2 -8 13.13 1.5
-6 -2 -9 7.15 1.02
-6 -2 -10 23.71 1.66
-6 -2 -11 32.29 1.59
6 3 -10 7.98 0.69
-6 -3 9 0.19 0.16
-6 -3 9 0.28 0.22
-6 -3 8 0.12 0.18
-6 -3 8 1.15 0.4
-6 -3 7 36.66 2
-6 -3 7 35.18 2.22
-6 -3 6 1.41 0.47
-6 -3 6 3.13 0.77
-6 -3 5 64.09 2.87
-6 -3 4 29.43 2
-6 -3 3 236.03 5.84
-6 -3 2 23.15 1.88
-6 -3 1 82.89 3.6
-6 -3 0 9.48 1.26
-6 -3 0 9.53 1.12
-6 -3 -1 82.91 3.71
-6 -3 -1 80.46 3.47
-6 -3 -2 49.54 2.9
-6 -3 -2 46.18 2.74
-6 -3 -3 0.13 0.28
-6 -3 -3 0.3 0.4
-6 -3 -4 4.34 0.89
-6 -3 -4 3.69 0.83
-6 -3 -5 1.8 0.61
-6 -3 -5 1.88 0.67
-6 -3 -6 146.81 4.78
-6 -3 -6 141.98 5.21
-6 -3 -7 0.54 0.36
-6 -3 -7 0.14 0.3
-6 -3 -8 8.02 0.99
-6 -3 -8 8.92 1.24
-6 -3 -9 83.92 3.49
-6 -3 -10 41.2 2.19
-6 -3 -11 9.51 0.88
-6 -4 9 16.14 0.99
-6 -4 8 21.12 1.35
-6 -4 8 18.38 1.24
-6 -4 7 15.89 1.3
-6 -4 7 16.03 1.4
-6 -4 6 0.54 0.29
-6 -4 6 1.19 0.45
-6 -4 5 148.91 4.32
-6 -4 4 174.19 4.88
-6 -4 3 10.38 1.25
-6 -4 2 135.42 4.62
-6 -4 1 134.76 4.72
-6 -4 0 659.7 10.66
-6 -4 -1 313.99 7.5
-6 -4 -2 -0.05 0.39
-6 -4 -3 36.88 2.63
-6 -4 -3 36.7 2.31
-6 -4 -4 21.93 2.01
-6 -4 -4 23.58 1.91
-6 -4 -5 14.06 1.61
-6 -4 -5 13.67 1.52
-6 -4 -6 309.8 7.22
-6 -4 -6 309.3 7.12
-6 -4 -7 109.73 4.13
-6 -4 -7 105.69 4.1
-6 -4 -8 173 4.8
-6 -4 -8 157.53 4.74
-6 -4 -9 19.54 1.45
-6 -4 -9 18.54 1.49
-6 -4 -10 15.5 1.22
-6 -5 8 34.24 1.53
-6 -5 7 30.91 1.66
-6 -5 7 28.52 1.5
-6 -5 6 32.17 1.83
-6 -5 6 28.34 1.79
-6 -5 5 11 1.12
-6 -5 4 191.67 4.87
-6 -5 3 148.88 4.49
-6 -5 2 13.38 1.41
-6 -5 1 261.36 6.34
-6 -5 0 153.84 4.99
-6 -5 -1 121.66 4.55
-6 -5 -2 58.08 3.2
-6 -5 -3 18.79 1.82
-6 -5 -4 16.17 1.68
-6 -5 -5 0.74 0.34
-6 -5 -6 42.71 2.61
-6 -5 -7 14.42 1.45
-6 -5 -8 6.79 0.92
-6 -5 -8 6.31 0.77
-6 -5 -9 0.13 0.17
-6 -6 6 47.25 1.89
-6 -6 5 15.36 1.18
-6 -6 4 194.18 4.34
-6 -6 3 263.37 5.38
-6 -6 2 33.86 2.02
-6 -6 1 1.28 0.46
-6 -6 0 126.79 4.16
-6 -6 -1 304.18 6.62
-6 -6 -2 180.82 5.19
-6 -6 -3 128.56 4.38
-6 -6 -4 169.38 4.97
-6 -6 -5 50.82 2.65
-6 -6 -6 10.7 1.18
-6 -6 -7 25.12 1.66
-6 -6 -8 13.67 1.1
-6 -7 3 226.26 4.03
-6 -7 2 154.89 3.53
-6 -7 1 34.39 1.75
-6 -7 0 3.04 0.54
-6 -7 -1 92.36 3.03
-6 -7 -2 155.6 3.99
-6 -7 -3 54.64 2.34
-6 -7 -4 6.13 0.78
-6 -7 -5 20.6 1.34
-7 1 0 31.92 1.44
-7 1 -1 11.48 0.87
-7 1 -2 2.64 0.47
-7 1 -3 19.88 1.01
-7 0 4 3.53 0.45
-7 0 2 15.3 1.1
-7 0 1 13.64 1.08
-7 0 0 5.19 0.71
-7 0 -1 19.6 1.25
-7 0 -2 116.75 3
-7 0 -3 9.36 0.85
-7 0 -4 3.5 0.51
-7 0 -5 8.91 0.73
-7 -1 6 0.83 0.26
-7 -1 5 14.6 1.01
-7 -1 4 160.89 3.52
-7 -1 3 179.34 3.86
-7 -1 2 31.85 1.65
-7 -1 2 33.26 1.56
-7 -1 1 0.71 0.3
-7 -1 1 2.94 0.56
-7 -1 0 79.89 2.58
-7 -1 -1 1.79 0.45
-7 -1 -2 8.72 0.9
-7 -1 -3 27.62 1.57
-7 -1 -4 2.04 0.43
-7 -1 -5 48.94 1.95
-7 -1 -6 23.53 1.27
-7 -2 6 0.65 0.26
-7 -2 5 17.65 1.23
-7 -2 4 2.87 0.56
-7 -2 3 13.36 1.21
-7 -2 2 4.26 0.58
-7 -2 2 2.92 0.6
-7 -2 1 97.19 3.25
-7 -2 1 100.91 2.66
-7 -2 0 24.28 1.59
-7 -2 0 24.78 1.39
-7 -2 -1 0.64 0.29
-7 -2 -2 46.87 2.05
-7 -2 -3 88.04 2.81
-7 -2 -4 7.15 0.81
-7 -2 -5 -0.1 0.19
-7 -2 -6 174.8 3.65
-7 -2 -7 13.59 0.93
-7 -3 6 15.97 1.04
-7 -3 5 7.43 0.82
-7 -3 4 8.12 0.93
-7 -3 3 1.92 0.51
-7 -3 2 108.69 3.65
-7 -3 1 50.05 2.51
-7 -3 0 41.97 2.25
-7 -3 -1 96.94 3.27
-7 -3 -2 0.39 0.24
-7 -3 -3 30.35 1.54
-7 -3 -4 6.47 0.73
-7 -3 -5 53.94 2.02
-7 -3 -6 51.83 1.86
-7 -4 5 17.42 1.14
-7 -4 4 9.54 0.95
-7 -4 3 82.37 2.35
-7 -4 3 89.66 3.11
-7 -4 2 0.31 0.21
-7 -4 2 0.48 0.26
-7 -4 1 0.34 0.21
-7 -4 0 190.73 3.87
-7 -4 -1 33.97 1.65
-7 -4 -2 3.73 0.55
-7 -4 -3 23.7 1.3
-7 -5 3 24.16 1.43
-7 -5 2 0.14 0.15
-7 -5 2 0.18 0.27
-7 -5 1 55.39 1.97
-7 -5 0 3.27 0.51
-7 -5 -1 14.95 1.07
-7 -5 -2 2.8 0.47
-7 -5 -3 34.35 1.54
