#------------------------------------------------------------------------------
#$Date: 2019-11-23 17:05:59 +0200 (Sat, 23 Nov 2019) $
#$Revision: 234121 $
#$URL: file:///home/coder/svn-repositories/cod/cif/1/55/33/1553335.cif $
#------------------------------------------------------------------------------
#
# This file is available in the Crystallography Open Database (COD),
# http://www.crystallography.net/
#
# All data on this site have been placed in the public domain by the
# contributors.
#
data_1553335
loop_
_publ_author_name
'Cai, Runlin'
'Wu, Yingnan'
'Chen, Senhua'
'Cui, Hui'
'Liu, Zhaoming'
'Li, Chunyuan'
'She, Zhigang'
_publ_section_title
;
 Peniisocoumarins A-J: Isocoumarins from Penicillium commune QQF-3, an
 Endophytic Fungus of the Mangrove Plant Kandelia candel.
;
_journal_issue                   6
_journal_name_full               'Journal of natural products'
_journal_page_first              1376
_journal_page_last               1383
_journal_paper_doi               10.1021/acs.jnatprod.7b01018
_journal_volume                  81
_journal_year                    2018
_chemical_absolute_configuration ad
_chemical_formula_moiety         'C13 H13 Cl O6, H2 O'
_chemical_formula_sum            'C13 H15 Cl O7'
_chemical_formula_weight         318.70
_space_group_crystal_system      triclinic
_space_group_IT_number           1
_space_group_name_Hall           'P 1'
_space_group_name_H-M_alt        'P 1'
_atom_sites_solution_hydrogens   mixed
_atom_sites_solution_primary     direct
_audit_creation_date             2017-10-14
_audit_creation_method
;
Olex2 1.2
(compiled 2017.03.02 svn.r3394 for OlexSys, GUI svn.r5381)
;
_cell_angle_alpha                99.395(7)
_cell_angle_beta                 94.679(8)
_cell_angle_gamma                105.645(7)
_cell_formula_units_Z            1
_cell_length_a                   5.0238(4)
_cell_length_b                   5.5679(4)
_cell_length_c                   12.8812(14)
_cell_measurement_reflns_used    3843
_cell_measurement_temperature    293(2)
_cell_measurement_theta_max      74.6370
_cell_measurement_theta_min      7.0350
_cell_volume                     339.31(5)
_computing_molecular_graphics    'Olex2 (Dolomanov et al., 2009)'
_computing_publication_material  'Olex2 (Dolomanov et al., 2009)'
_computing_structure_refinement  'XL (Sheldrick, 2008)'
_computing_structure_solution    'XS (Sheldrick, 2008)'
_diffrn_ambient_temperature      293(2)
_diffrn_measured_fraction_theta_full 0.999
_diffrn_measured_fraction_theta_max 0.978
_diffrn_measurement_device_type  'multiwire proportional'
_diffrn_measurement_method       'phi and omega scans'
_diffrn_radiation_monochromator  graphite
_diffrn_radiation_type           CuK\a
_diffrn_radiation_wavelength     1.54178
_diffrn_reflns_av_R_equivalents  0.0895
_diffrn_reflns_av_unetI/netI     0.0554
_diffrn_reflns_Laue_measured_fraction_full 0.999
_diffrn_reflns_Laue_measured_fraction_max 0.978
_diffrn_reflns_limit_h_max       6
_diffrn_reflns_limit_h_min       -6
_diffrn_reflns_limit_k_max       6
_diffrn_reflns_limit_k_min       -6
_diffrn_reflns_limit_l_max       15
_diffrn_reflns_limit_l_min       -15
_diffrn_reflns_number            9364
_diffrn_reflns_point_group_measured_fraction_full 0.925
_diffrn_reflns_point_group_measured_fraction_max 0.893
_diffrn_reflns_theta_full        67.679
_diffrn_reflns_theta_max         75.008
_diffrn_reflns_theta_min         3.509
_exptl_absorpt_coefficient_mu    2.814
_exptl_absorpt_correction_type   none
_exptl_crystal_colour            colourless
_exptl_crystal_density_diffrn    1.560
_exptl_crystal_description       block
_exptl_crystal_F_000             166
_exptl_crystal_size_max          0.300
_exptl_crystal_size_mid          0.150
_exptl_crystal_size_min          0.100
_refine_diff_density_max         0.978
_refine_diff_density_min         -0.748
_refine_diff_density_rms         0.137
_refine_ls_abs_structure_details
;
 Flack x determined using 985 quotients [(I+)-(I-)]/[(I+)+(I-)]
 (Parsons, Flack and Wagner, Acta Cryst. B69 (2013) 249-259).
;
_refine_ls_abs_structure_Flack   0.06(2)
_refine_ls_extinction_method     none
_refine_ls_goodness_of_fit_ref   1.097
_refine_ls_hydrogen_treatment    mixed
_refine_ls_matrix_type           full
_refine_ls_number_parameters     205
_refine_ls_number_reflns         2489
_refine_ls_number_restraints     3
_refine_ls_restrained_S_all      1.096
_refine_ls_R_factor_all          0.0798
_refine_ls_R_factor_gt           0.0779
_refine_ls_shift/su_max          0.000
_refine_ls_shift/su_mean         0.000
_refine_ls_structure_factor_coef Fsqd
_refine_ls_weighting_details
'w=1/[\s^2^(Fo^2^)+(0.1645P)^2^+0.1983P] where P=(Fo^2^+2Fc^2^)/3'
_refine_ls_weighting_scheme      calc
_refine_ls_wR_factor_gt          0.2170
_refine_ls_wR_factor_ref         0.2196
_reflns_Friedel_coverage         0.825
_reflns_Friedel_fraction_full    0.850
_reflns_Friedel_fraction_max     0.807
_reflns_number_gt                2366
_reflns_number_total             2489
_reflns_threshold_expression     'I > 2\s(I)'
_iucr_refine_instructions_details
;

    aa.res created by SHELXL-2014/7

TITL aa in P1 #1
REM reset to P1 #1
CELL 1.54178 5.0238 5.5679 12.8812 99.395 94.679 105.645
ZERR 1 0.0004 0.0004 0.0014 0.007 0.008 0.007
LATT -1
SFAC C H Cl O
UNIT 13 15 1 7
 
L.S. 20
PLAN  40
BOND
fmap 2
acta
REM <olex2.extras>
REM <HklSrc "%.\\aa.hkl">
REM </olex2.extras>
 
WGHT    0.164500    0.198300
FVAR       0.42015
CL1   3   -0.396778   -0.667599   -0.096825    11.00000    0.02532    0.03619 =
         0.04191    0.00537    0.00598    0.01317
O2    4    0.197197   -0.307298    0.100899    11.00000    0.02591    0.02222 =
         0.03497    0.00369    0.00565    0.01792
O3    4    0.335222   -0.382818    0.256013    11.00000    0.02990    0.02716 =
         0.03734    0.00544    0.00512    0.02263
O1    4    0.216891   -0.163774    0.431251    11.00000    0.03278    0.03559 =
         0.02941    0.00674    0.00409    0.02551
AFIX 147
H1    2    0.295933   -0.249320    0.394079    11.00000   -1.50000
AFIX   0
C2    1    0.060979   -0.100669    0.259494    11.00000    0.02272    0.01879 =
         0.03487    0.00463    0.00340    0.01468
C3    1   -0.225033    0.185121    0.245240    11.00000    0.01924    0.01907 =
         0.03382    0.00657    0.00802    0.01237
O4    4   -0.362956    0.298752    0.181497    11.00000    0.04122    0.03195 =
         0.02585    0.00511    0.00448    0.02857
AFIX 147
H4    2   -0.442341    0.385675    0.217781    11.00000   -1.50000
AFIX   0
C5    1   -0.086229    0.021103    0.195370    11.00000    0.02270    0.02313 =
         0.02959    0.00484    0.00242    0.01436
C6    1    0.204002   -0.269048    0.205855    11.00000    0.02836    0.01932 =
         0.02763    0.00177    0.00175    0.01286
C7    1    0.049659   -0.189716    0.038060    11.00000    0.02406    0.02433 =
         0.03410    0.00612    0.00029    0.01564
C8    1   -0.089518   -0.033623    0.083644    11.00000    0.02347    0.02096 =
         0.03747    0.00538    0.00170    0.01417
AFIX  43
H8    2   -0.189985    0.039885    0.040911    11.00000   -1.20000
AFIX   0
C9    1   -0.067246    0.108552    0.417750    11.00000    0.02502    0.02303 =
         0.02794    0.00324    0.00379    0.01393
AFIX  43
H9    2   -0.065061    0.136872    0.491036    11.00000   -1.20000
AFIX   0
 
O10   4   -0.651964    0.927360    0.656763    11.00000    0.03831    0.04466 =
         0.03483    0.00066    0.00401    0.02383
C11   1    0.070079   -0.263593   -0.074212    11.00000    0.02235    0.02310 =
         0.03822    0.00631    0.00679    0.01179
AFIX  23
H11A  2    0.263962   -0.204607   -0.085078    11.00000   -1.20000
H11B  2   -0.033755   -0.177811   -0.114514    11.00000   -1.20000
AFIX   0
C12   1   -0.211078    0.228804    0.354291    11.00000    0.02258    0.02036 =
         0.03405    0.00314    0.00707    0.01456
O14   4   -0.354034    0.392356    0.395051    11.00000    0.02902    0.03257 =
         0.03009    0.00461    0.00722    0.02262
O15   4   -0.090109   -0.878596   -0.276803    11.00000    0.03741    0.03795 =
         0.04361   -0.00797    0.00077    0.02276
C16   1   -0.337651    0.458447    0.506722    11.00000    0.03905    0.02894 =
         0.03784    0.00368    0.00724    0.02066
AFIX 137
H16A  2   -0.437644    0.580950    0.524251    11.00000   -1.50000
H16B  2   -0.145817    0.529989    0.537175    11.00000   -1.50000
H16C  2   -0.418381    0.309235    0.534490    11.00000   -1.50000
AFIX   0
C17   1    0.070760   -0.052795    0.368366    11.00000    0.02436    0.02364 =
         0.03073    0.00503    0.00001    0.01440
C18   1   -0.020641   -0.613672   -0.236078    11.00000    0.03441    0.02969 =
         0.03306   -0.00041    0.00211    0.01480
AFIX  23
H18A  2   -0.145624   -0.542547   -0.274307    11.00000   -1.20000
H18B  2    0.167470   -0.534116   -0.248993    11.00000   -1.20000
AFIX   0
C19   1   -0.038037   -0.549381   -0.118415    11.00000    0.01539    0.02662 =
         0.03844    0.00699    0.00483    0.01052
AFIX  13
H19   2    0.074238   -0.635290   -0.080643    11.00000   -1.20000
AFIX   0
 
H10A  2   -0.681059    0.900461    0.588246    11.00000    0.01331
H10B  2   -0.757596    0.992777    0.683977    11.00000    0.03746
H15   2   -0.273775   -0.968714   -0.284644    11.00000    0.03695
HKLF 4
 
REM  aa in P1 #1
REM R1 =  0.0779 for    2366 Fo > 4sig(Fo)  and  0.0798 for all    2489 data
REM    205 parameters refined using      3 restraints
 
END  
     
WGHT      0.1599      0.2654 

REM Highest difference peak  0.978,  deepest hole -0.748,  1-sigma level  0.137
Q1    1  -0.3672 -0.6103 -0.0171  11.00000  0.05    0.98
Q2    1  -0.4257 -0.7267 -0.1758  11.00000  0.05    0.80
Q3    1  -0.5414 -0.7822 -0.0619  11.00000  0.05    0.71
Q4    1  -0.2410 -0.5636 -0.1040  11.00000  0.05    0.66
Q5    1   0.0810 -0.3742  0.1174  11.00000  0.05    0.63
Q6    1  -0.0468 -0.3610 -0.0361  11.00000  0.05    0.55
Q7    1  -0.7298  0.8929  0.5169  11.00000  0.05    0.55
Q8    1  -0.4331  0.2355  0.1080  11.00000  0.05    0.49
Q9    1  -0.4373 -0.7649 -0.2424  11.00000  0.05    0.47
Q10   1  -0.1479 -0.5267  0.0433  11.00000  0.05    0.46
Q11   1   0.3581 -0.1241  0.1658  11.00000  0.05    0.45
Q12   1   0.3287 -0.2080  0.0525  11.00000  0.05    0.44
Q13   1  -0.1295 -0.0534  0.1024  11.00000  0.05    0.43
Q14   1  -0.1846  0.0627  0.5765  11.00000  0.05    0.43
Q15   1   0.0949 -0.2633  0.4789  11.00000  0.05    0.43
Q16   1  -0.3727  0.3621  0.3127  11.00000  0.05    0.42
Q17   1  -0.1643 -0.9294 -0.3645  11.00000  0.05    0.42
Q18   1  -0.1635  0.3455  0.0412  11.00000  0.05    0.42
Q19   1  -0.2732  0.3876  0.1238  11.00000  0.05    0.41
Q20   1  -0.4447 -0.4286  0.0476  11.00000  0.05    0.41
Q21   1  -0.0201  0.1796  0.5188  11.00000  0.05    0.40
Q22   1  -0.4994  0.2839  0.4417  11.00000  0.05    0.39
Q23   1   0.0075 -0.8195 -0.3612  11.00000  0.05    0.37
Q24   1  -0.2667  0.5169  0.5951  11.00000  0.05    0.36
Q25   1   0.0953 -0.5353 -0.3007  11.00000  0.05    0.36
Q26   1  -0.1949 -0.0050  0.4772  11.00000  0.05    0.35
Q27   1  -0.1826  0.5151  0.3687  11.00000  0.05    0.35
Q28   1   0.1731 -0.2113 -0.0835  11.00000  0.05    0.34
Q29   1   0.1004 -0.5427 -0.2375  11.00000  0.05    0.34
Q30   1   0.0029 -0.4634  0.0478  11.00000  0.05    0.33
Q31   1  -0.8831  0.7899  0.5869  11.00000  0.05    0.33
Q32   1  -0.7250  0.8198  0.5850  11.00000  0.05    0.33
Q33   1  -0.3352  0.0780  0.2948  11.00000  0.05    0.32
Q34   1   0.3507 -0.3435  0.3319  11.00000  0.05    0.32
Q35   1  -0.2762 -0.6564 -0.2845  11.00000  0.05    0.32
Q36   1  -0.4877  1.0587  0.6397  11.00000  0.05    0.31
Q37   1  -0.5897  0.9263  0.5803  11.00000  0.05    0.31
Q38   1  -0.0965 -0.6344 -0.3149  11.00000  0.05    0.31
Q39   1  -0.4006  0.3038  0.2590  11.00000  0.05    0.31
Q40   1  -0.0401 -0.5890 -0.1749  11.00000  0.05    0.31

  REM The information below was added by Olex2.
  REM
  REM R1 = 0.0779 for 2366 Fo > 4sig(Fo) and 0.0798 for all 9364 data
  REM n/a parameters refined using n/a restraints
  REM Highest difference peak 0.98, deepest hole -0.75
  REM Mean Shift 0, Max Shift 0.000.

  REM +++ Tabular Listing of Refinement Information +++
  REM R1_all = 0.0798
  REM R1_gt = 0.0779
  REM wR_ref = 0.2196
  REM GOOF = 1.097
  REM Shift_max = 0.000
  REM Shift_mean = 0
  REM Reflections_all = 9364
  REM Reflections_gt = 2366
  REM Parameters = n/a
  REM Hole = -0.75
  REM Peak = 0.98
  REM Flack = 0.06(2)

  
;
_cod_data_source_file            np7b01018_si_006.cif
_cod_data_source_block           aa
_cod_database_code               1553335
_shelx_shelxl_version_number     2014/7
_shelx_space_group_comment
;
The symmetry employed for this shelxl refinement is uniquely defined
by the following loop, which should always be used as a source of
symmetry information in preference to the above space-group names.
They are only intended as comments.
;
_olex2_refinement_description
;
1. Fixed Uiso
 At 1.2 times of:
  All C(H) groups, All C(H,H) groups
 At 1.5 times of:
  All C(H,H,H) groups, All O(H) groups
2.a Ternary CH refined with riding coordinates:
 C19(H19)
2.b Secondary CH2 refined with riding coordinates:
 C11(H11A,H11B), C18(H18A,H18B)
2.c Aromatic/amide H refined with riding coordinates:
 C8(H8), C9(H9)
2.d Idealised Me refined as rotating group:
 C16(H16A,H16B,H16C)
2.e Idealised tetrahedral OH refined as rotating group:
 O1(H1), O4(H4)
;
_olex2_submission_special_instructions 'No special instructions were received'
loop_
_space_group_symop_operation_xyz
'x, y, z'
loop_
_atom_site_label
_atom_site_type_symbol
_atom_site_fract_x
_atom_site_fract_y
_atom_site_fract_z
_atom_site_U_iso_or_equiv
_atom_site_adp_type
_atom_site_occupancy
_atom_site_site_symmetry_order
_atom_site_calc_flag
_atom_site_refinement_flags_posn
Cl1 Cl -0.3968(3) -0.6676(3) -0.09682(17) 0.0338(5) Uani 1 1 d .
O2 O 0.1972(10) -0.3073(9) 0.1009(4) 0.0256(11) Uani 1 1 d .
O3 O 0.3352(10) -0.3828(9) 0.2560(5) 0.0286(12) Uani 1 1 d .
O1 O 0.2169(11) -0.1638(10) 0.4313(4) 0.0294(12) Uani 1 1 d .
H1 H 0.2959 -0.2493 0.3941 0.044 Uiso 1 1 calc GR
C2 C 0.0610(14) -0.1007(12) 0.2595(6) 0.0238(14) Uani 1 1 d .
C3 C -0.2250(14) 0.1851(12) 0.2452(6) 0.0222(14) Uani 1 1 d .
O4 O -0.3630(11) 0.2988(9) 0.1815(4) 0.0295(12) Uani 1 1 d .
H4 H -0.4423 0.3857 0.2178 0.044 Uiso 1 1 calc GR
C5 C -0.0862(14) 0.0211(13) 0.1954(6) 0.0237(14) Uani 1 1 d .
C6 C 0.2040(15) -0.2690(12) 0.2059(6) 0.0243(15) Uani 1 1 d .
C7 C 0.0497(13) -0.1897(13) 0.0381(6) 0.0259(15) Uani 1 1 d .
C8 C -0.0895(14) -0.0336(13) 0.0836(7) 0.0259(15) Uani 1 1 d .
H8 H -0.1900 0.0399 0.0409 0.031 Uiso 1 1 calc R
C9 C -0.0672(14) 0.1086(13) 0.4178(6) 0.0241(14) Uani 1 1 d .
H9 H -0.0651 0.1369 0.4910 0.029 Uiso 1 1 calc R
O10 O -0.6520(13) 0.9274(12) 0.6568(6) 0.0378(13) Uani 1 1 d .
C11 C 0.0701(14) -0.2636(13) -0.0742(7) 0.0266(15) Uani 1 1 d .
H11A H 0.2640 -0.2046 -0.0851 0.032 Uiso 1 1 calc R
H11B H -0.0338 -0.1778 -0.1145 0.032 Uiso 1 1 calc R
C12 C -0.2111(14) 0.2288(12) 0.3543(6) 0.0240(14) Uani 1 1 d .
O14 O -0.3540(10) 0.3924(9) 0.3951(4) 0.0278(12) Uani 1 1 d .
O15 O -0.0901(12) -0.8786(11) -0.2768(5) 0.0394(15) Uani 1 1 d .
C16 C -0.3377(17) 0.4584(14) 0.5067(7) 0.0333(17) Uani 1 1 d .
H16A H -0.4376 0.5810 0.5243 0.050 Uiso 1 1 calc GR
H16B H -0.1458 0.5300 0.5372 0.050 Uiso 1 1 calc GR
H16C H -0.4184 0.3092 0.5345 0.050 Uiso 1 1 calc GR
C17 C 0.0708(14) -0.0528(13) 0.3684(6) 0.0250(15) Uani 1 1 d .
C18 C -0.0206(16) -0.6137(14) -0.2361(7) 0.0322(16) Uani 1 1 d .
H18A H -0.1456 -0.5425 -0.2743 0.039 Uiso 1 1 calc R
H18B H 0.1675 -0.5341 -0.2490 0.039 Uiso 1 1 calc R
C19 C -0.0380(13) -0.5494(12) -0.1184(6) 0.0258(15) Uani 1 1 d .
H19 H 0.0742 -0.6353 -0.0806 0.031 Uiso 1 1 calc R
H10A H -0.681(17) 0.900(16) 0.588(8) 0.013(17) Uiso 1 1 d .
H10B H -0.76(2) 0.99(2) 0.684(9) 0.04(3) Uiso 1 1 d .
H15 H -0.27(2) -0.97(2) -0.285(9) 0.04(3) Uiso 1 1 d .
loop_
_atom_site_aniso_label
_atom_site_aniso_U_11
_atom_site_aniso_U_22
_atom_site_aniso_U_33
_atom_site_aniso_U_23
_atom_site_aniso_U_13
_atom_site_aniso_U_12
Cl1 0.0253(7) 0.0362(8) 0.0419(11) 0.0054(7) 0.0060(6) 0.0132(6)
O2 0.026(2) 0.022(2) 0.035(3) 0.004(2) 0.006(2) 0.0179(19)
O3 0.030(3) 0.027(2) 0.037(3) 0.005(2) 0.005(2) 0.023(2)
O1 0.033(3) 0.036(3) 0.029(3) 0.007(2) 0.004(2) 0.026(2)
C2 0.023(3) 0.019(3) 0.035(4) 0.005(3) 0.003(3) 0.015(2)
C3 0.019(3) 0.019(3) 0.034(4) 0.007(3) 0.008(3) 0.012(2)
O4 0.041(3) 0.032(3) 0.026(3) 0.005(2) 0.004(2) 0.029(2)
C5 0.023(3) 0.023(3) 0.030(4) 0.005(3) 0.002(3) 0.014(3)
C6 0.028(3) 0.019(3) 0.028(4) 0.002(3) 0.002(3) 0.013(3)
C7 0.024(3) 0.024(3) 0.034(4) 0.006(3) 0.000(3) 0.016(3)
C8 0.023(3) 0.021(3) 0.037(4) 0.005(3) 0.002(3) 0.014(3)
C9 0.025(3) 0.023(3) 0.028(4) 0.003(3) 0.004(3) 0.014(3)
O10 0.038(3) 0.045(3) 0.035(4) 0.001(3) 0.004(3) 0.024(3)
C11 0.022(3) 0.023(3) 0.038(4) 0.006(3) 0.007(3) 0.012(2)
C12 0.023(3) 0.020(3) 0.034(4) 0.003(3) 0.007(3) 0.015(2)
O14 0.029(3) 0.033(3) 0.030(3) 0.005(2) 0.007(2) 0.023(2)
O15 0.037(3) 0.038(3) 0.044(4) -0.008(3) 0.001(3) 0.023(3)
C16 0.039(4) 0.029(4) 0.038(5) 0.004(3) 0.007(3) 0.021(3)
C17 0.024(3) 0.024(3) 0.031(4) 0.005(3) 0.000(3) 0.014(3)
C18 0.034(4) 0.030(3) 0.033(4) 0.000(3) 0.002(3) 0.015(3)
C19 0.015(3) 0.027(3) 0.038(4) 0.007(3) 0.005(3) 0.011(2)
loop_
_atom_type_symbol
_atom_type_description
_atom_type_scat_dispersion_real
_atom_type_scat_dispersion_imag
_atom_type_scat_source
C C 0.0181 0.0091 'International Tables Vol C Tables 4.2.6.8 and 6.1.1.4'
H H 0.0000 0.0000 'International Tables Vol C Tables 4.2.6.8 and 6.1.1.4'
Cl Cl 0.3639 0.7018 'International Tables Vol C Tables 4.2.6.8 and 6.1.1.4'
O O 0.0492 0.0322 'International Tables Vol C Tables 4.2.6.8 and 6.1.1.4'
loop_
_geom_angle_atom_site_label_1
_geom_angle_atom_site_label_2
_geom_angle_atom_site_label_3
_geom_angle
C6 O2 C7 121.5(6)
C5 C2 C6 117.5(7)
C17 C2 C5 120.5(6)
C17 C2 C6 121.9(6)
O4 C3 C5 117.0(6)
O4 C3 C12 123.6(6)
C12 C3 C5 119.3(6)
C3 C5 C2 118.6(7)
C3 C5 C8 122.9(6)
C8 C5 C2 118.5(6)
O2 C6 C2 120.8(6)
O3 C6 O2 117.9(6)
O3 C6 C2 121.3(7)
O2 C7 C11 111.3(6)
C8 C7 O2 120.2(7)
C8 C7 C11 128.5(7)
C7 C8 C5 121.5(6)
C17 C9 C12 118.3(7)
C7 C11 C19 114.7(6)
C3 C12 C9 122.2(6)
O14 C12 C3 114.7(6)
O14 C12 C9 123.1(7)
C12 O14 C16 118.2(6)
O1 C17 C2 121.2(6)
O1 C17 C9 117.9(7)
C2 C17 C9 120.9(6)
O15 C18 C19 113.6(6)
C11 C19 Cl1 109.9(5)
C18 C19 Cl1 108.6(5)
C18 C19 C11 112.3(6)
loop_
_geom_bond_atom_site_label_1
_geom_bond_atom_site_label_2
_geom_bond_distance
Cl1 C19 1.806(6)
O2 C6 1.330(10)
O2 C7 1.404(7)
O3 C6 1.242(8)
O1 C17 1.374(8)
C2 C5 1.429(8)
C2 C6 1.451(10)
C2 C17 1.378(11)
C3 O4 1.367(8)
C3 C5 1.399(9)
C3 C12 1.379(11)
C5 C8 1.419(11)
C7 C8 1.348(10)
C7 C11 1.457(12)
C9 C12 1.408(9)
C9 C17 1.383(10)
C11 C19 1.529(10)
C12 O14 1.371(8)
O14 C16 1.415(11)
O15 C18 1.419(10)
C18 C19 1.515(12)
loop_
_refln_index_h
_refln_index_k
_refln_index_l
_refln_F_squared_meas
_refln_F_squared_sigma
0 0 1 100.33 0.57
0 0 -1 92.94 0.59
0 0 -2 30.63 0.32
0 0 2 32.87 0.36
0 0 3 2.12 0.11
0 0 3 2.11 0.11
0 0 -3 3.33 0.13
0 0 3 3.78 0.2
0 0 3 2.24 0.11
0 0 3 4 0.2
0 0 3 2.22 0.11
0 0 4 152.22 1.43
0 0 -4 127.83 0.92
0 0 4 172.1 1.43
0 0 4 140.66 1.45
0 0 5 12.99 0.22
0 0 5 12.98 0.22
0 0 5 13.65 0.22
0 0 5 22.1 0.59
0 0 -5 24.57 0.48
0 0 5 18.9 0.58
0 0 -5 29.98 0.83
0 0 5 13.89 0.22
0 0 5 16.96 0.6
0 0 -6 175 2.13
0 0 -6 252.04 2.76
0 0 6 169.63 1.96
0 0 6 196.77 2.24
0 0 6 233.16 2.12
0 0 7 25.75 0.89
0 0 -7 34.54 1.31
0 0 7 32.57 0.88
0 0 -7 19.25 0.97
0 0 -7 21.95 0.88
0 0 -8 17 0.92
0 0 8 19.15 0.86
0 0 -8 19.74 1.18
0 0 -9 1.6 0.68
0 0 9 0.81 0.27
0 0 9 1.07 0.27
0 0 10 4.33 0.54
0 0 10 4.67 0.58
0 0 -10 5.15 1.08
0 0 10 4.05 0.73
0 0 10 5.41 0.56
0 0 10 4.01 0.59
0 0 -11 14.2 1.75
0 0 11 11.12 0.99
0 0 11 10.13 1.1
0 0 11 13.82 0.91
0 0 -12 8.35 1.54
0 0 12 8.73 0.91
0 0 12 11.55 0.86
0 0 12 8.08 1.02
0 0 13 9.88 0.79
0 0 13 6.18 0.78
0 0 14 2.32 0.39
0 0 15 6.24 0.53
0 -1 15 1.54 0.33
0 -1 15 1.54 0.29
0 -1 14 5.93 0.59
0 -1 14 5.64 0.67
0 -1 13 2.84 0.45
0 -1 13 3.1 0.59
0 -1 12 7.97 1.01
0 -1 12 7.48 0.68
0 -1 12 6.8 0.81
0 1 -12 6.08 1.3
0 -1 11 1.51 0.54
0 -1 11 1.14 0.34
0 -1 11 0.98 0.36
0 -1 11 1.32 0.31
0 1 -11 1.68 0.69
0 -1 10 14.56 0.89
0 1 -10 16.02 1.31
0 -1 10 13.29 0.86
0 -1 10 16.38 0.9
0 -1 10 13.3 1.2
0 -1 10 15.35 1.12
0 -1 10 13.1 0.98
0 1 -10 15.14 1.1
0 1 -9 0.04 0.26
0 -1 9 0.16 0.18
0 -1 9 0.08 0.13
0 1 -9 0.42 0.49
0 1 -9 0.07 0.28
0 1 -8 25.88 1.14
0 1 -8 22.75 1.32
0 1 -7 36.37 1.24
0 -1 7 25.23 0.83
0 1 -7 32.96 1.33
0 1 -7 55.84 2.01
0 -1 7 47.16 1.3
0 1 -6 66.36 1.42
0 1 -6 72.25 1.74
0 -1 6 35.96 1.07
0 -1 6 84.45 1.65
0 1 -6 57.01 1.12
0 -1 6 38 0.92
0 -1 5 26.08 0.79
0 1 -5 29.53 0.76
0 -1 5 50.46 1.2
0 -1 5 21.91 0.62
0 -1 5 27.08 0.8
0 -1 5 27.76 0.79
0 1 -5 35.44 0.93
0 1 -5 62.46 1.65
0 -1 5 32.39 0.72
0 1 -5 42.38 1.21
0 -1 4 36.06 0.97
0 -1 4 25.39 0.55
0 -1 4 17.02 0.61
0 1 -4 27.5 0.91
0 -1 4 23.73 0.49
0 -1 4 20.13 0.68
0 -1 4 25.35 0.89
0 -1 4 21.29 0.68
0 1 -4 42.2 1.22
0 1 -4 21.64 0.69
0 1 -4 20.12 0.6
0 -1 4 19.78 0.51
0 -1 3 81.19 1.4
0 -1 3 100.52 0.9
0 -1 3 94.33 1.38
0 -1 3 86.14 1.46
0 -1 2 281.22 1.18
0 -1 2 275.78 1.11
0 1 -1 130.89 1.24
0 -1 1 143.05 0.97
0 -1 0 13.32 0.49
0 1 0 14.52 0.24
0 -1 -1 5.31 0.25
0 1 1 5.8 0.26
0 1 1 3.98 0.3
0 1 1 5.62 0.28
0 -1 -1 8.42 0.32
0 -1 -1 8.67 0.35
0 1 1 5.37 0.21
0 1 1 5.26 0.19
0 1 2 26.59 0.53
0 -1 -2 29.94 0.7
0 1 2 29.08 0.55
0 1 2 30.23 0.53
0 -1 -2 23.71 0.74
0 -1 -2 36.26 0.64
0 1 2 17.22 0.56
0 1 2 28.29 0.55
0 -1 -2 30.09 0.61
0 -1 -2 22.45 0.55
0 -1 -2 35.37 0.78
0 1 3 101.38 1.13
0 -1 -3 63.47 0.99
0 -1 -3 68.22 0.86
0 -1 -3 87.07 1.29
0 1 3 87.18 1.12
0 -1 -3 93.01 1.39
0 1 3 57.85 1.02
0 -1 -3 69.76 0.91
0 1 3 63.71 0.76
0 1 3 65.16 0.8
0 -1 -4 15.93 0.41
0 -1 -4 17.82 0.42
0 -1 -4 24.04 0.66
0 1 4 28.51 0.74
0 1 4 32.46 0.74
0 -1 -4 32.74 0.91
0 -1 -5 90.31 1.53
0 -1 -5 119.36 1.96
0 1 5 132.38 1.71
0 1 5 104.86 1.6
0 -1 -6 14.92 0.81
0 -1 -6 13.55 0.63
0 1 7 17.44 0.79
0 -1 -7 18.82 1.02
0 -1 -7 20.2 1.33
0 1 8 24.72 1.04
0 -1 -8 26.06 1.36
0 -1 -9 2.63 0.57
0 1 9 2.37 0.53
0 1 9 3.56 0.45
0 1 9 2.99 0.51
0 -1 -9 2.1 0.52
0 -1 -9 3.12 0.74
0 1 9 3.71 0.5
0 1 9 2.95 0.56
0 -1 -10 6.96 0.97
0 -1 -10 10.85 1.14
0 1 10 8.17 0.92
0 1 10 10.24 0.84
0 1 10 9.29 0.88
0 1 10 10.12 0.77
0 1 11 5.32 0.69
0 -1 -11 8.32 1.44
0 1 11 6.95 0.68
0 1 12 3.73 0.58
0 1 12 6.26 0.65
0 1 13 0.46 0.24
0 1 14 11.1 0.74
0 1 15 0.98 0.22
0 -2 15 2.27 0.3
0 -2 15 4.37 0.48
0 -2 14 1 0.36
0 -2 14 0.77 0.24
0 -2 13 5.75 0.75
0 -2 13 4.84 0.58
0 -2 13 4.55 0.5
0 -2 12 0.1 0.32
0 2 -12 -0.08 0.48
0 -2 12 0.08 0.19
0 2 -12 0.5 0.5
0 -2 12 0.05 0.22
0 -2 11 3.55 0.49
0 -2 11 3.64 0.48
0 2 -11 1.62 0.59
0 2 -11 2.51 0.76
0 -2 11 3.77 0.71
0 -2 11 3.08 0.43
0 -2 11 3.56 0.52
0 -2 11 3.68 0.65
0 -2 10 3.66 0.55
0 2 -10 2.28 0.59
0 -2 10 2.35 0.39
0 -2 10 3.28 0.62
0 -2 10 3.01 0.47
0 2 -10 3.15 0.73
0 -2 10 2.03 0.51
0 -2 10 3.37 0.5
0 -2 10 2.9 0.65
0 -2 9 2.93 0.53
0 -2 9 3.59 0.55
0 -2 9 2.2 0.45
0 -2 9 2.08 0.45
0 -2 9 2.1 0.44
0 -2 9 3.11 0.6
0 2 -9 2.58 0.48
0 2 -9 1.83 0.52
0 -2 9 2.92 0.44
0 -2 9 1.9 0.31
0 2 -8 21.21 1.3
0 2 -8 23.1 1.16
0 -2 7 60.52 1.79
0 -2 7 37.92 1.36
0 2 -7 53.71 1.89
0 2 -7 49.32 1.36
0 2 -7 56.25 1.66
0 -2 7 38.5 1.35
0 -2 7 37.77 1.33
0 -2 6 1.43 0.31
0 -2 6 0.54 0.24
0 -2 6 0.67 0.24
0 -2 6 0.64 0.27
0 2 -6 0.55 0.27
0 2 -6 0.55 0.24
0 2 -6 0.42 0.28
0 2 -6 0.33 0.18
0 -2 5 4.15 0.45
0 -2 5 4.26 0.44
0 -2 5 4.11 0.45
0 2 -5 5.94 0.49
0 -2 5 6.88 0.6
0 -2 5 7.2 0.62
0 2 -5 5.12 0.42
0 2 -5 6.05 0.6
0 2 -5 6.24 0.51
0 -2 4 36.42 0.99
0 2 -4 54.08 1.3
0 2 -4 60.19 1.37
0 -2 4 55.99 1.56
0 -2 4 67.07 1.73
0 -2 4 56.24 1.76
0 2 -4 58.42 1.38
0 -2 4 42.62 1.25
0 -2 4 40.83 1.23
0 -2 4 41.19 1.3
0 2 -4 52.66 1.73
0 -2 3 10.47 0.73
0 2 -3 17.16 0.86
0 2 -3 15.04 0.69
0 -2 3 15.09 0.71
0 -2 3 18.73 0.88
0 2 -3 17.09 0.75
0 -2 3 18.67 0.87
0 -2 3 19.77 1.05
0 -2 3 14.32 0.49
0 -2 3 14.83 0.72
0 -2 2 92.9 1.79
0 2 -2 88.13 1.16
0 -2 2 99.29 1.72
0 2 -2 134.13 2.02
0 -2 2 114.38 2.43
0 2 -2 122.33 2.3
0 -2 2 91.48 1.88
0 -2 2 65.88 1.95
0 2 -2 124.74 1.89
0 -2 2 93.31 1.26
0 -2 2 102.03 1.93
0 -2 1 16.7 0.92
0 -2 1 17.59 0.77
0 -2 1 11.33 0.78
0 -2 1 20.17 0.77
0 2 -1 16.18 0.61
0 -2 1 14.06 0.53
0 2 -1 14.27 0.68
0 2 -1 16.16 0.62
0 2 -1 10.53 0.66
0 -2 1 13.85 0.73
0 2 -1 14.9 0.72
0 2 -1 13.64 0.49
0 -2 1 15.67 0.55
0 2 0 69.22 1.48
0 -2 0 71.34 1.5
0 -2 0 64.71 1.68
0 2 0 115.76 1.61
0 -2 0 74.89 1.16
0 2 0 94.03 1.32
0 -2 0 94.6 1.4
0 -2 0 98.19 2.05
0 2 0 95.51 1.77
0 2 0 88.9 1.75
0 -2 0 127.74 1.87
0 2 0 110.84 1.54
0 -2 0 116.93 1.81
0 2 1 133.58 1.71
0 -2 -1 117.87 2.14
0 -2 -1 120.99 1.69
0 2 1 94.96 1.09
0 2 1 132.82 1.68
0 2 1 93.4 1.8
0 -2 -1 81.83 1.69
0 -2 -1 93.52 1.29
0 -2 -1 160.51 2.04
0 -2 -1 159.66 2.07
0 2 1 97.86 1.92
0 -2 -1 92.32 1.7
0 2 1 112.66 1.54
0 2 2 62.92 0.96
0 -2 -2 56.29 1.23
0 2 2 55.26 1.06
0 -2 -2 56.38 1.5
0 -2 -2 51.62 1.03
0 -2 -2 60.16 1.52
0 2 2 42.96 1.26
0 2 2 52.7 1.14
0 2 2 42.57 1.29
0 2 2 55.24 1.11
0 -2 -2 64.78 1.33
0 -2 -2 65.94 1.31
0 -2 -2 51.77 1.34
0 2 3 6.15 0.51
0 -2 -3 11.87 0.63
0 -2 -3 9.28 0.52
0 -2 -3 10.45 0.65
0 2 3 7.48 0.5
0 -2 -3 8.62 0.52
0 -2 -3 10.58 0.54
0 2 3 10.37 0.44
0 2 3 7.4 0.55
0 2 3 4.75 0.32
0 -2 -3 11.14 0.72
0 2 4 55.55 1.52
0 -2 -4 74.5 1.86
0 -2 -4 77.34 1.62
0 -2 -4 63.24 1.49
0 -2 -4 70.51 1.72
0 2 4 82.42 1.37
0 -2 -5 0.97 0.28
0 -2 -5 0.66 0.29
0 -2 -5 1.07 0.36
0 -2 -5 1.12 0.27
0 2 5 0.74 0.19
0 -2 -6 18 1.16
0 2 6 17.74 0.77
0 -2 -6 16.75 0.94
0 -2 -6 15.25 1.03
0 2 7 17.25 0.86
0 -2 -7 15.2 1.07
0 -2 -7 15.16 1.11
0 -2 -7 16.69 1.03
0 2 7 12.7 0.93
0 2 7 13.57 0.98
0 -2 -8 47.28 2.13
0 2 8 43.52 1.84
0 2 8 48.59 1.56
0 -2 -8 45.41 1.99
0 -2 -9 10.13 1.05
0 -2 -9 13.37 1.34
0 2 9 11.19 1.01
0 2 9 9.85 0.77
0 2 10 11.38 1.03
0 2 10 11.76 0.87
0 2 11 1.09 0.32
0 2 11 1.06 0.4
0 2 12 2.89 0.44
0 2 12 1.91 0.46
0 2 13 4.88 0.53
0 2 13 5.13 0.5
0 3 -15 0.24 0.28
0 -3 15 1.16 0.25
0 -3 14 8.43 0.69
0 3 -13 1.64 0.57
0 -3 13 2.1 0.39
0 -3 13 2.02 0.45
0 -3 12 0.85 0.37
0 -3 12 0.92 0.31
0 -3 12 0.57 0.29
0 3 -12 0 0.41
0 -3 12 0.8 0.31
0 -3 11 65.62 1.89
0 -3 11 60.48 1.81
0 -3 11 60.72 2.41
0 -3 11 63.01 2.1
0 -3 10 90.59 2.19
0 3 -10 61.18 2.94
0 -3 10 92.17 2.63
0 3 -10 59.17 2.56
0 -3 10 96.28 2.3
0 -3 10 103.97 2.62
0 -3 10 82.39 2.86
0 3 -10 79.52 2.92
0 3 -9 0.97 0.62
0 3 -9 1.07 0.46
0 -3 9 1.79 0.54
0 -3 9 2.61 0.54
0 -3 9 1.85 0.44
0 -3 9 2.6 0.52
0 -3 9 2.3 0.44
0 3 -9 1.12 0.52
0 3 -8 2.77 0.7
0 -3 8 4 0.68
0 3 -8 2.85 0.55
0 -3 8 2.11 0.43
0 -3 8 3.94 0.76
0 -3 8 4.75 0.64
0 3 -8 2.58 0.68
0 -3 8 5.05 0.74
0 -3 8 4.25 0.59
0 -3 8 3.83 0.57
0 -3 7 4.45 0.62
0 -3 7 3.91 0.53
0 3 -7 4.41 0.48
0 3 -7 5.88 0.74
0 -3 7 6.1 0.62
0 -3 7 6.92 0.73
0 3 -7 5.14 0.55
0 -3 7 4.74 0.59
0 -3 7 5.59 0.86
0 -3 6 11.33 0.85
0 3 -6 18.64 1
0 -3 6 15.62 1.01
0 -3 6 10.99 0.89
0 3 -6 18.06 1.18
0 -3 6 15.35 1.01
0 -3 6 11.28 0.87
0 3 -6 16.95 0.88
0 3 -5 33.45 1.21
0 -3 5 34.75 1.46
0 3 -5 39.3 1.39
0 -3 5 27.33 1.31
0 3 -5 34.52 1.56
0 -3 5 39.37 1.52
0 -3 5 26.77 1.33
0 -3 5 27.19 1.35
0 -3 5 40.5 1.76
0 -3 4 88.02 2.49
0 -3 4 70.79 2.08
0 3 -4 91.66 2
0 3 -4 88.29 2.43
0 -3 4 73.99 2.15
0 -3 4 86.37 2.16
0 3 -4 107.31 2.29
0 -3 4 72.92 2.04
0 -3 4 72.45 2.15
0 -3 3 5.34 0.59
0 -3 3 5.19 0.57
0 3 -3 2.04 0.28
0 3 -3 2.45 0.46
0 3 -3 3.94 0.46
0 -3 3 5.53 0.63
0 -3 3 4.64 0.41
0 -3 3 4.06 0.51
0 -3 3 3.32 0.58
0 -3 3 5.61 0.57
0 -3 3 5.44 0.72
0 3 -3 4.27 0.52
0 3 -2 21.16 1.15
0 -3 2 20.6 0.85
0 -3 2 9.3 0.92
0 3 -2 24.28 1.1
0 3 -2 33.04 1.34
0 -3 2 20.57 1.27
0 -3 2 24.3 1.13
0 -3 2 14.1 0.85
0 3 -2 23.04 0.76
0 -3 2 21.95 1.14
0 -3 2 17.02 0.97
0 -3 1 8.4 0.57
0 -3 1 6.07 0.61
0 3 -1 7.45 0.66
0 3 -1 7.21 0.46
0 3 -1 8.64 0.74
0 -3 1 10.07 0.72
0 -3 1 6.94 0.79
0 -3 1 4.09 0.63
0 -3 1 9.77 0.73
0 3 -1 5.69 0.59
0 3 0 30.83 1.28
0 -3 0 14.73 1.16
0 -3 0 30.8 1.26
0 -3 0 13.48 1.1
0 -3 0 30.41 1.23
0 -3 0 23.86 0.99
0 3 0 28.96 0.92
0 -3 0 17.32 0.97
0 -3 0 22.35 1.3
0 3 0 25.73 1.24
0 -3 -1 73.22 1.94
0 -3 -1 96.85 2.6
0 -3 -1 136.46 2.57
0 -3 -1 73.06 2.3
0 3 1 125.43 2.65
0 -3 -1 73.44 2.48
0 -3 -1 104.48 2.12
0 3 1 132.01 2.75
0 -3 -1 130.29 2.55
0 3 1 130.33 2.05
0 -3 -2 15.92 0.92
0 -3 -2 14.8 0.9
0 -3 -2 13.14 1.03
0 3 2 12.54 0.89
0 -3 -2 9.31 0.73
0 3 2 16.05 1
0 -3 -2 9.19 0.88
0 -3 -2 13.7 0.83
0 -3 -3 65.02 2.22
0 -3 -3 66.89 1.91
0 3 3 55.54 1.88
0 3 3 58.63 1.88
0 -3 -3 48.6 1.64
0 -3 -3 58.26 2.09
0 -3 -4 6.27 0.82
0 3 4 4.56 0.59
0 -3 -4 7.37 0.74
0 -3 -4 5.84 0.77
0 -3 -4 5.59 0.64
0 -3 -5 3.12 0.64
0 3 5 3.14 0.54
0 -3 -5 2.58 0.49
0 3 5 5 0.58
0 3 5 4.6 0.61
0 3 5 3.32 0.61
0 -3 -5 2.88 0.62
0 -3 -5 3.37 0.59
0 3 6 9.47 0.89
0 3 6 12.66 0.97
0 -3 -6 10.01 1.08
0 -3 -6 11.16 1.15
0 3 6 12.71 0.99
0 -3 -6 9.82 0.93
0 3 6 9.94 0.99
0 -3 -6 12.43 1.1
0 3 7 32.73 1.61
0 3 7 36.72 1.63
0 3 7 17.38 1.13
0 -3 -7 35.1 2.11
0 -3 -7 25.75 1.76
0 -3 -7 24.46 1.5
0 -3 -7 34.32 1.88
0 3 8 0.7 0.38
0 -3 -8 0.64 0.48
0 3 9 11.82 1.01
0 3 10 1.71 0.5
0 3 11 2.18 0.46
0 3 12 2.92 0.42
0 4 -14 1.46 0.37
0 -4 14 1.8 0.28
0 4 -13 0.29 0.28
0 4 -13 0.42 0.33
0 -4 13 0.88 0.26
0 -4 13 0.83 0.2
0 -4 12 5.3 0.5
0 4 -12 4.62 0.73
0 -4 12 5.9 0.55
0 -4 12 5.71 0.56
0 -4 12 5.71 0.65
0 4 -11 1.39 0.52
0 4 -11 0.55 0.44
0 -4 11 0.43 0.24
0 -4 11 0.97 0.29
0 -4 11 0.51 0.29
0 -4 11 0.55 0.27
0 -4 11 0.55 0.34
0 -4 10 9.86 0.73
0 4 -10 6.23 0.9
0 4 -10 5 0.75
0 -4 10 10.77 0.91
0 4 -10 5.8 0.99
0 -4 10 10.17 0.88
0 -4 10 9.1 0.71
0 -4 10 9.33 1
0 -4 9 0.54 0.41
0 4 -9 0.58 0.48
0 4 -9 0.62 0.5
0 4 -9 0.7 0.47
0 -4 9 0.94 0.37
0 -4 9 0.78 0.32
0 -4 9 0.99 0.38
0 -4 9 1.11 0.32
0 4 -9 0.73 0.41
0 4 -8 0.41 0.38
0 4 -8 0.67 0.52
0 4 -8 1.5 0.78
0 4 -8 0.71 0.49
0 -4 8 1.41 0.52
0 -4 8 1.53 0.38
0 -4 8 1.47 0.44
0 -4 8 1.38 0.38
0 -4 8 1.84 0.47
0 -4 7 3.54 0.7
0 -4 7 2.87 0.47
0 -4 7 3.34 0.51
0 -4 7 2.18 0.47
0 -4 7 2.9 0.65
0 4 -7 3.01 0.61
0 4 -7 3.72 0.81
0 4 -7 4.55 0.59
0 4 -7 3.32 0.75
0 -4 7 2.2 0.64
0 4 -7 3.33 0.48
0 -4 7 1.78 0.46
0 -4 7 2.12 0.49
0 4 -6 24.68 1.56
0 -4 6 34.45 1.46
0 -4 6 32.66 1.92
0 4 -6 30.28 1.35
0 4 -6 38.4 1.63
0 -4 6 36.98 1.61
0 4 -6 32.37 2.13
0 -4 6 30.66 1.27
0 -4 6 22.71 1.32
0 -4 6 23.22 1.36
0 -4 6 24.02 1.37
0 -4 6 37.04 1.95
0 4 -6 27.27 1.95
0 4 -5 12.98 0.92
0 -4 5 7.25 1.04
0 -4 5 9.54 0.89
0 -4 5 11.71 0.89
0 4 -5 11.19 1.26
0 -4 5 12.04 1.1
0 4 -5 10.5 0.97
0 -4 5 9.91 1.18
0 4 -5 12.12 1.29
0 -4 5 13.11 0.96
0 -4 5 8.22 0.83
0 -4 5 9.76 0.91
0 -4 5 11.39 1.15
0 4 -5 10.03 0.9
0 -4 5 10.11 0.9
0 4 -5 12.53 1.35
0 4 -5 15.25 1.07
0 -4 5 10.8 0.79
0 4 -4 20.1 1.66
0 -4 4 21.22 1.32
0 -4 4 12.84 1.32
0 -4 4 22.96 1.44
0 -4 4 16.2 1.56
0 4 -4 17.92 1.56
0 4 -4 17.94 1.47
0 4 -4 21.52 1.19
0 -4 4 14 1.1
0 4 -4 17.93 1.17
0 -4 4 21.14 1.18
0 4 -4 23.09 1.31
0 4 -4 18.31 1.07
0 -4 4 22.54 1.22
0 4 -4 14.75 1.13
0 -4 4 21.16 1.3
0 -4 4 19.54 1.01
0 -4 4 22 1.52
0 -4 4 21.12 1.29
0 4 -3 14.4 1.05
0 4 -3 8.53 1.03
0 -4 3 9.39 0.83
0 -4 3 11.97 1.07
0 -4 3 12.06 0.99
0 -4 3 6.71 1.14
0 4 -3 10.17 1.17
0 -4 3 9.49 1.02
0 -4 3 10.1 0.84
0 4 -3 10.96 0.87
0 -4 3 6.44 0.74
0 4 -3 9.89 0.9
0 4 -3 7.69 0.82
0 -4 3 11.37 0.96
0 -4 3 6.48 0.95
0 -4 3 9.53 0.72
0 4 -3 11.43 1.2
0 4 -3 9.39 0.8
0 -4 3 11.67 0.95
0 -4 2 0.61 0.3
0 -4 2 0.55 0.47
0 4 -2 1.47 0.56
0 4 -2 2.79 0.54
0 4 -2 1.65 0.46
0 -4 2 1.17 0.37
0 -4 2 0.7 0.34
0 -4 2 0.72 0.36
0 -4 2 0.97 0.6
0 -4 2 1.21 0.4
0 4 -2 2.24 0.44
0 -4 2 0.95 0.5
0 4 -2 2.29 0.48
0 -4 2 1.17 0.4
0 -4 2 0.96 0.37
0 4 -2 2.13 0.61
0 -4 2 0.97 0.32
0 -4 1 1.25 0.43
0 -4 1 1.35 0.4
0 -4 1 0.93 0.5
0 4 -1 0.92 0.38
0 4 -1 0.43 0.34
0 4 -1 0.66 0.37
0 4 -1 0.63 0.34
0 4 -1 0.4 0.43
0 -4 1 0.9 0.47
0 -4 1 1.31 0.4
0 -4 1 1.04 0.4
0 -4 1 0.93 0.57
0 4 -1 0.78 0.48
0 -4 1 0.43 0.34
0 -4 1 0.74 0.33
0 -4 1 0.65 0.27
0 -4 1 0.75 0.53
0 4 -1 0.63 0.25
0 4 0 10.13 0.9
0 4 0 9.36 0.89
0 -4 0 6.44 0.79
0 4 0 8.75 0.7
0 -4 0 2.56 0.47
0 -4 0 6.95 0.79
0 4 0 8.36 0.9
0 -4 0 6.18 0.68
0 -4 0 3.8 0.61
0 4 0 8.1 1.03
0 -4 0 2.81 0.73
0 4 0 6.72 0.78
0 -4 0 4.25 0.83
0 -4 0 7.03 0.79
0 -4 0 4.66 0.64
0 -4 0 6.28 0.86
0 4 0 6.97 0.95
0 4 1 22.51 1.34
0 4 1 23.5 1.48
0 4 1 18.44 1.23
0 -4 -1 20.42 1.39
0 -4 -1 13.44 1.28
0 -4 -1 23.15 1.34
0 -4 -1 18.4 1.39
0 -4 -1 12.86 1.03
0 -4 -1 22.01 1.35
0 4 1 22.56 1.35
0 4 1 20.69 1.57
0 4 1 21.2 1.13
0 -4 -1 21.16 1.4
0 -4 -1 15.99 1.09
0 4 1 19.66 1.5
0 4 2 25.59 1.44
0 -4 -2 13.33 1.06
0 -4 -2 17.06 1.15
0 -4 -2 26.97 1.52
0 4 2 27.87 1.62
0 4 2 22.76 1.23
0 -4 -2 17.5 1.51
0 4 2 23.59 1.38
0 4 2 21.51 1.34
0 -4 -2 21.68 1.55
0 -4 -3 3.93 0.86
0 4 3 4.18 0.58
0 -4 -3 5.94 0.82
0 -4 -3 5.29 0.91
0 4 3 3.8 0.7
0 4 3 2.84 0.58
0 -4 -3 3.28 0.86
0 4 3 3.65 0.62
0 -4 -3 3.14 0.61
0 -4 -3 4.15 0.65
0 -4 -4 2.05 0.79
0 4 4 2.79 0.52
0 4 4 4.02 0.67
0 -4 -4 2.76 0.57
0 4 4 4.55 0.53
0 -4 -4 3.33 0.76
0 4 4 3.19 0.55
0 -4 -4 2.59 0.74
0 -4 -5 0.51 0.6
0 4 5 0.72 0.37
0 4 5 0.81 0.39
0 -4 -5 1.73 0.74
0 4 5 1.15 0.33
0 4 5 0.86 0.4
0 -4 -6 5.6 1.03
0 4 6 6.55 0.8
0 4 7 55.51 1.84
0 4 8 47.07 1.63
0 4 9 0.55 0.29
0 4 10 0.53 0.24
0 5 -12 0.95 0.29
0 -5 12 0.66 0.17
0 -5 12 0.95 0.19
0 5 -12 0.72 0.27
0 -5 12 0.67 0.21
0 5 -12 0.78 0.29
0 5 -11 5.55 0.61
0 -5 11 10.12 0.73
0 5 -11 5.24 0.69
0 -5 11 10.24 0.59
0 -5 11 8.42 0.49
0 -5 11 10.29 0.62
0 5 -11 5.98 0.69
0 -5 10 3.28 0.38
0 -5 10 4.42 0.49
0 5 -10 2.15 0.42
0 -5 10 4.7 0.49
0 -5 10 3.51 0.36
0 5 -10 3.02 0.58
0 -5 10 4.25 0.57
0 5 -10 2.66 0.52
0 5 -9 2.46 0.51
0 5 -9 3.48 0.62
0 -5 9 2.88 0.38
0 -5 9 3.18 0.47
0 5 -9 2.85 0.6
0 -5 9 2.84 0.54
0 -5 9 2.41 0.35
0 -5 9 3.5 0.5
0 5 -8 0.28 0.37
0 -5 8 0.3 0.22
0 5 -8 0.2 0.29
0 -5 8 0.65 0.33
0 -5 8 0.41 0.26
0 -5 8 0.51 0.32
0 5 -8 0.23 0.37
0 -5 8 0.44 0.4
0 5 -7 6.8 0.97
0 -5 7 9.18 0.86
0 -5 7 6.69 0.6
0 5 -7 5.65 0.85
0 -5 7 4.84 0.88
0 -5 7 9.05 0.9
0 5 -7 6.27 0.88
0 -5 7 6.67 0.58
0 -5 6 2.71 0.56
0 5 -6 3.45 0.76
0 5 -6 2.41 0.45
0 5 -6 3.26 0.7
0 -5 6 2.81 0.62
0 -5 6 2.45 0.4
0 5 -6 2.57 0.45
0 -5 6 2.35 0.42
0 5 -6 2.59 0.46
0 -5 6 3.29 0.59
0 5 -6 3.21 0.69
0 -5 5 10.68 0.72
0 5 -5 9.65 1.13
0 5 -5 8.5 0.75
0 -5 5 5.18 0.78
0 -5 5 10.08 0.76
0 5 -5 8.69 0.77
0 5 -5 8.1 0.79
0 -5 5 8.77 0.81
0 -5 5 11.26 1.13
0 -5 5 13.05 1.09
0 5 -5 9.05 0.86
0 5 -5 6.75 0.91
0 5 -5 9.37 1.14
0 -5 4 10.73 1.02
0 -5 4 10.5 1.11
0 5 -4 8.92 1.13
0 -5 4 8.03 0.79
0 5 -4 9.33 1.14
0 5 -4 8.99 0.86
0 5 -4 9.15 0.88
0 -5 4 9.44 0.68
0 -5 4 9.17 0.74
0 -5 4 7.33 0.97
0 5 -4 8.69 0.79
0 5 -4 5.51 0.8
0 5 -4 9.53 0.81
0 -5 3 7.08 0.97
0 -5 3 7.75 0.71
0 5 -3 9.77 0.93
0 5 -3 10.05 0.94
0 -5 3 9.74 1.16
0 -5 3 7.64 0.75
0 -5 3 11.39 1.06
0 -5 3 9.74 0.68
0 5 -3 9.64 0.86
0 5 -3 9.04 1.14
0 5 -3 9.64 1.13
0 5 -3 10.29 0.87
0 -5 2 1.76 0.57
0 -5 2 0.47 0.49
0 -5 2 0.75 0.48
0 -5 2 1.5 0.5
0 5 -2 1.68 0.57
0 -5 2 1.05 0.59
0 5 -2 2.51 0.48
0 5 -2 1.79 0.51
0 5 -2 1.02 0.51
0 5 -2 2.37 0.53
0 5 -2 1.95 0.51
0 -5 2 1.93 0.52
0 -5 1 5.6 0.67
0 -5 1 7.15 0.93
0 -5 1 5.36 0.69
0 5 -1 7.87 1.01
0 5 -1 10.21 0.93
0 5 -1 9.87 0.95
0 -5 1 6.21 1.04
0 5 -1 9.83 0.98
0 5 -1 10.75 0.92
0 5 -1 8.52 1.11
0 5 -1 8.75 0.7
0 5 0 3.42 0.67
0 -5 0 2.2 0.74
0 5 0 3.68 0.6
0 5 0 5.19 0.75
0 5 0 3.36 0.61
0 -5 0 2.62 0.5
0 5 0 2.14 0.54
0 5 0 4.62 0.54
0 5 0 3.86 0.62
0 -5 0 2.54 0.68
0 5 1 4.97 0.71
0 5 1 5.33 0.6
0 5 1 4.28 0.64
0 -5 -1 3.26 0.55
0 5 1 2.42 0.57
0 5 1 3.87 0.65
0 -5 -1 2.2 0.77
0 5 1 4.47 0.66
0 -5 -1 2.87 0.71
0 5 2 0.86 0.32
0 5 2 0.36 0.31
0 -5 -2 0.34 0.53
0 5 2 1.08 0.41
0 5 2 0.93 0.42
0 -5 -2 0.45 0.45
0 5 3 0.03 0.31
0 5 3 0.02 0.26
0 -5 -3 0.03 0.39
0 5 4 6.86 0.76
0 5 4 8.62 0.85
0 -5 -5 2.29 0.55
0 5 5 3.23 0.49
0 5 5 3.4 0.53
0 -5 -6 2.28 0.51
0 5 6 5.19 0.54
0 -5 -7 0.29 0.37
0 6 -9 1.03 0.22
0 -6 9 1.55 0.22
0 6 -9 1.14 0.26
0 -6 9 1.49 0.21
0 -6 9 1.62 0.27
0 6 -9 1.21 0.28
0 6 -8 1.26 0.28
0 6 -8 1.65 0.31
0 -6 8 2.15 0.23
0 6 -8 1.18 0.31
0 -6 8 2.72 0.3
0 -6 8 2.65 0.37
0 6 -8 1.24 0.29
0 -6 8 3.34 0.35
0 -6 8 2.18 0.22
0 6 -7 4.32 0.52
0 -6 7 5.67 0.49
0 6 -7 4.46 0.53
0 -6 7 4.52 0.32
0 -6 7 5.01 0.44
0 -6 7 4.24 0.3
0 -6 7 4.28 0.52
0 -6 6 3.5 0.41
0 -6 6 2.89 0.27
0 6 -6 3 0.48
0 -6 6 2.49 0.26
0 -6 6 2.29 0.46
0 6 -6 2.91 0.48
0 -6 6 4.04 0.46
0 6 -6 1.83 0.34
0 -6 5 2.01 0.5
0 -6 5 4 0.51
0 6 -5 2.7 0.36
0 -6 5 3.58 0.46
0 6 -5 3.26 0.5
0 6 -5 3.02 0.35
0 -6 5 2.79 0.28
0 6 -5 3.62 0.55
0 6 -4 0.38 0.22
0 -6 4 0.53 0.29
0 -6 4 0.6 0.25
0 6 -4 0.37 0.24
0 -6 4 0.49 0.18
0 6 -4 0.64 0.22
0 6 -4 0.42 0.29
0 -6 4 0.43 0.26
0 6 -3 3.16 0.48
0 -6 3 2.86 0.5
0 6 -3 3.57 0.46
0 -6 3 2.66 0.46
0 6 -3 2.97 0.51
0 6 -3 3.86 0.46
0 6 -2 1.31 0.33
0 6 -2 2.27 0.41
0 -6 2 2.29 0.46
0 -6 2 1.49 0.4
0 -6 2 2.61 0.53
0 6 -2 1.47 0.37
0 6 -2 2.68 0.41
0 -6 1 4.58 0.54
0 6 -1 6.68 0.6
0 -6 1 5.75 0.71
0 6 -1 4.14 0.54
0 6 -1 3.99 0.49
0 -6 1 4.94 0.63
0 6 -1 6.07 0.6
0 6 0 0.49 0.21
0 6 0 0.59 0.25
0 -6 0 0.74 0.29
0 -6 0 0.87 0.35
0 -6 0 0.44 0.34
0 6 0 0.42 0.23
0 6 1 0.98 0.28
0 -6 -1 0.51 0.29
0 6 1 0.99 0.29
0 -6 -1 0.56 0.26
0 -6 -1 0.35 0.29
0 -6 -1 0.49 0.35
0 -6 -2 0.92 0.35
0 -6 -2 0.65 0.26
0 6 2 1.42 0.29
0 -6 -2 0.57 0.35
0 -6 -2 0.59 0.34
0 -6 -3 0.42 0.31
0 6 3 0.71 0.22
0 -6 -3 0.28 0.28
0 6 3 0.59 0.22
0 -6 -3 0.27 0.22
0 -6 -3 0.42 0.29
0 -6 -4 -0.16 0.22
0 -6 -4 0.08 0.2
1 -6 -5 0.07 0.29
1 -6 -5 0.2 0.23
1 -6 -4 4.31 0.53
1 -6 -4 6.15 0.69
1 -6 -4 5.66 0.72
1 -6 -3 10.3 0.95
1 -6 -3 8.4 0.73
1 -6 -3 8.07 0.91
1 -6 -2 0.92 0.43
-1 6 2 1.11 0.28
-1 6 2 1.16 0.31
1 -6 -2 0.7 0.39
-1 6 2 1.4 0.32
1 -6 -2 0.5 0.32
-1 6 2 1.14 0.27
1 -6 -1 2.21 0.37
-1 6 1 3.63 0.51
-1 6 1 3.93 0.52
1 -6 -1 2.95 0.6
1 -6 -1 2.92 0.54
-1 6 1 3.54 0.48
1 -6 -1 2.48 0.56
-1 6 1 2.92 0.44
-1 6 0 1.7 0.37
1 -6 0 1.88 0.51
-1 6 0 2.03 0.41
-1 6 0 2.29 0.41
1 -6 0 1.88 0.45
1 -6 0 1.13 0.45
1 -6 0 1.55 0.35
-1 6 0 1.16 0.37
-1 6 -1 1.46 0.39
1 -6 1 1.52 0.5
1 -6 1 2.27 0.42
-1 6 -1 1.42 0.41
1 -6 1 1.3 0.44
-1 6 -1 1.66 0.36
-1 6 -1 2.33 0.41
1 -6 1 2.42 0.52
1 -6 2 50.41 1.85
1 -6 2 44.87 1.53
-1 6 -2 47.66 1.59
-1 6 -2 47.07 1.86
1 -6 2 44.82 1.88
1 -6 2 38.48 1.68
-1 6 -2 47.43 1.91
-1 6 -2 53.31 1.65
1 -6 3 61.93 1.79
-1 6 -3 54.48 1.64
1 -6 3 62.49 2.15
1 -6 3 53.56 1.88
1 -6 3 71.54 2.16
-1 6 -3 61.06 1.71
-1 6 -3 60.78 2.12
-1 6 -3 63.29 2.23
-1 6 -4 3.36 0.58
1 -6 4 3.63 0.56
-1 6 -4 3.15 0.4
1 -6 4 5.07 0.61
1 -6 4 3.25 0.47
-1 6 -4 1.99 0.39
-1 6 -4 3.43 0.59
1 -6 4 4.95 0.55
1 -6 5 0.52 0.33
1 -6 5 1.48 0.33
1 -6 5 1.13 0.31
1 -6 5 0.88 0.3
-1 6 -5 0.62 0.32
-1 6 -5 0.28 0.21
-1 6 -5 0.6 0.26
-1 6 -5 0.65 0.3
1 -6 5 1.42 0.37
1 -6 6 0.85 0.36
-1 6 -6 1.72 0.38
-1 6 -6 1.37 0.37
1 -6 6 1.77 0.37
1 -6 6 1.26 0.31
-1 6 -6 1.3 0.35
1 -6 6 1.43 0.34
-1 6 -6 0.29 0.18
-1 6 -7 1.69 0.3
1 -6 7 4.49 0.54
-1 6 -7 3.35 0.47
-1 6 -7 3.22 0.47
1 -6 7 5.11 0.49
-1 6 -7 2.49 0.39
1 -6 7 6.16 0.57
-1 6 -7 3.35 0.49
1 -6 7 3.41 0.45
-1 6 -8 2.11 0.36
-1 6 -8 1.6 0.27
1 -6 8 2.41 0.32
1 -6 8 3.1 0.34
-1 6 -8 2.12 0.36
-1 6 -8 2.77 0.41
1 -6 8 3.21 0.37
1 -6 8 2.41 0.35
-1 6 -8 2.65 0.36
-1 6 -9 3.29 0.32
-1 6 -9 5.64 0.49
1 -6 9 11.36 0.59
1 -6 9 8.22 0.53
-1 6 -9 6.32 0.55
1 -6 9 10.28 0.53
-1 6 -9 5.58 0.52
1 -6 10 0.33 0.12
-1 6 -10 0.13 0.14
1 -6 10 0.62 0.14
-1 6 -10 0.33 0.17
-1 5 8 3.1 0.34
1 -5 -8 3.75 0.65
1 -5 -7 1.23 0.44
-1 5 7 1.28 0.27
1 -5 -6 1.49 0.52
-1 5 6 2.26 0.37
1 -5 -5 1.94 0.59
-1 5 5 2.8 0.53
-1 5 5 3.09 0.56
-1 5 4 5.51 0.69
-1 5 4 8.23 0.88
1 -5 -3 -0.02 0.46
1 -5 -3 0.04 0.38
-1 5 3 0.04 0.29
-1 5 3 -0.05 0.28
-1 5 3 0.01 0.23
1 -5 -3 0.32 0.56
-1 5 3 0.05 0.25
-1 5 2 1.33 0.45
-1 5 2 1.24 0.46
1 -5 -2 0.5 0.5
1 -5 -2 0.88 0.67
-1 5 2 1.86 0.5
1 -5 -2 0.64 0.39
-1 5 2 0.72 0.37
-1 5 1 7.82 0.86
1 -5 -1 3.85 0.84
1 -5 -1 3.02 0.93
-1 5 1 7.24 0.78
-1 5 1 6.81 0.87
-1 5 1 5.68 0.7
-1 5 1 6.08 0.86
-1 5 1 7.12 0.86
1 -5 -1 4.48 0.69
-1 5 0 2.96 0.56
-1 5 0 3.18 0.53
1 -5 0 1.22 0.57
-1 5 0 2.14 0.56
-1 5 0 2.01 0.55
-1 5 0 2.78 0.52
1 -5 0 1.7 0.63
1 -5 0 1.93 0.53
-1 5 0 1.47 0.49
1 -5 0 1.58 0.7
1 -5 1 13.69 1.35
1 -5 1 8.28 1.08
1 -5 1 14.8 1.16
-1 5 -1 14.49 1.28
1 -5 1 7.4 1.02
-1 5 -1 17.16 1.14
-1 5 -1 18.58 1.16
-1 5 -1 17.96 1.44
1 -5 1 11.49 1.34
-1 5 -1 10.03 1
-1 5 -1 18.6 1.22
1 -5 2 0.73 0.45
-1 5 -2 0.68 0.31
-1 5 -2 0.64 0.31
1 -5 2 0.9 0.44
-1 5 -2 0.6 0.39
-1 5 -2 0.63 0.41
1 -5 2 0.59 0.5
-1 5 -2 0.67 0.33
1 -5 2 0.58 0.52
-1 5 -2 0.49 0.26
-1 5 -2 0.17 0.3
-1 5 -2 0.23 0.26
-1 5 -3 7.61 0.96
1 -5 3 3.97 0.83
-1 5 -3 6.92 0.92
1 -5 3 2.45 0.78
-1 5 -3 6.01 0.66
-1 5 -3 6.65 0.72
1 -5 3 3.38 0.76
-1 5 -3 6.8 0.68
-1 5 -3 5.75 0.68
-1 5 -3 5.66 0.81
1 -5 3 4.72 0.7
1 -5 4 4.13 0.86
-1 5 -4 7 0.67
-1 5 -4 7.68 0.98
1 -5 4 3.06 0.77
-1 5 -4 7.2 0.93
-1 5 -4 5.17 0.78
-1 5 -4 5.24 0.72
-1 5 -4 6.05 0.66
-1 5 -4 8.28 0.99
-1 5 -4 7.47 0.76
1 -5 4 5.11 0.86
1 -5 4 5.08 0.73
-1 5 -5 1.39 0.49
1 -5 5 0.7 0.44
-1 5 -5 1.77 0.53
-1 5 -5 1.72 0.54
1 -5 5 0.73 0.44
-1 5 -5 1.62 0.45
-1 5 -5 1.6 0.47
1 -5 5 0.7 0.39
-1 5 -5 0.71 0.4
1 -5 5 0.79 0.47
1 -5 6 0.72 0.38
-1 5 -6 0.29 0.34
1 -5 6 1.14 0.41
1 -5 6 1.12 0.44
-1 5 -6 0.4 0.35
1 -5 6 0.86 0.29
-1 5 -6 0.63 0.4
-1 5 -6 0.63 0.41
1 -5 6 0.85 0.41
-1 5 -6 0.65 0.38
1 -5 7 14.87 1.06
1 -5 7 15.13 1.19
1 -5 7 12.82 1.19
-1 5 -7 16.41 1.28
-1 5 -7 12.85 1.09
1 -5 7 15.5 0.77
-1 5 -7 14.85 1.26
1 -5 7 12.51 0.73
1 -5 7 18.23 1.18
-1 5 -7 7.97 0.85
1 -5 7 19.06 1.29
-1 5 -7 13.69 1.17
-1 5 -7 15.27 1.35
-1 5 -8 1.26 0.42
1 -5 8 1.92 0.46
1 -5 8 1.72 0.32
-1 5 -8 1.03 0.42
1 -5 8 2.4 0.55
-1 5 -8 1.4 0.53
-1 5 -8 1.19 0.47
1 -5 8 2.95 0.55
1 -5 8 3 0.51
1 -5 8 2.23 0.32
-1 5 -8 1.45 0.45
-1 5 -9 7.54 0.9
1 -5 9 7.4 0.66
-1 5 -9 6.19 0.73
1 -5 9 6.84 0.74
1 -5 9 7.21 0.68
-1 5 -9 7.6 0.9
1 -5 9 5.22 0.43
-1 5 -9 6.46 0.73
1 -5 9 8.03 0.76
1 -5 10 0.52 0.18
-1 5 -10 1.31 0.39
-1 5 -10 0.99 0.33
-1 5 -10 1 0.38
1 -5 10 1.34 0.32
-1 5 -10 1.34 0.44
1 -5 10 1.17 0.32
1 -5 10 1.11 0.31
-1 5 -11 2.75 0.46
1 -5 11 2.75 0.38
1 -5 11 3.33 0.41
-1 5 -11 2.43 0.43
-1 5 -11 2.6 0.48
1 -5 11 3.77 0.43
1 -5 12 0.14 0.14
-1 5 -12 -0.02 0.18
1 -5 12 0.05 0.12
-1 5 -12 0.25 0.21
-1 5 -12 0.19 0.21
1 -5 12 0.01 0.12
-1 4 11 5.35 0.47
-1 4 10 5.95 0.56
-1 4 9 0.11 0.27
-1 4 8 1.04 0.38
-1 4 8 1.01 0.32
1 -4 -7 -0.14 0.52
-1 4 7 0.23 0.32
-1 4 7 0.29 0.22
-1 4 7 -0.05 0.29
1 -4 -6 16.75 1.78
-1 4 6 16.96 1.04
-1 4 6 21.45 1.2
-1 4 6 17.23 1.24
-1 4 6 18.76 1.36
-1 4 5 12.06 1.1
1 -4 -5 12.19 1.58
1 -4 -5 16.43 1.61
-1 4 5 20.25 1.17
-1 4 5 19.07 1.09
-1 4 5 14.31 1.14
-1 4 4 22.39 1.44
-1 4 4 20.9 1.4
1 -4 -4 19.45 1.84
-1 4 4 23.59 1.17
-1 4 4 23.78 1.3
1 -4 -4 25.68 1.55
-1 4 3 1.23 0.44
1 -4 -3 0.62 0.45
-1 4 3 1.55 0.45
-1 4 3 1.28 0.51
1 -4 -3 1.65 0.5
1 -4 -3 0.9 0.67
-1 4 3 1.18 0.46
-1 4 3 1.81 0.52
-1 4 2 9.39 1
1 -4 -2 4.09 0.69
-1 4 2 9.69 0.89
-1 4 2 7.68 0.74
1 -4 -2 8.75 0.83
-1 4 2 9.01 1.01
-1 4 2 8.18 0.88
-1 4 2 8.15 0.88
-1 4 2 7.64 0.82
1 -4 -2 6.46 1.08
1 -4 -2 6.36 0.81
1 -4 -1 4.68 0.81
1 -4 -1 11.13 0.85
-1 4 1 7.79 0.94
1 -4 -1 8.54 0.89
-1 4 1 9.39 0.74
-1 4 1 9.17 0.99
1 -4 -1 10.65 0.91
-1 4 1 8.89 0.87
-1 4 1 9.57 0.86
1 -4 -1 11.03 0.92
-1 4 1 8.19 0.8
1 -4 -1 10.83 0.91
-1 4 1 5.89 0.75
1 -4 -1 7.98 1.17
-1 4 0 10.81 0.92
-1 4 0 10.18 0.84
1 -4 0 5.14 0.88
1 -4 0 9.78 0.89
-1 4 0 14.97 1.27
-1 4 0 14.4 1.04
1 -4 0 8.55 1.21
-1 4 0 13.63 0.97
-1 4 0 12.78 0.95
1 -4 0 13.27 0.88
-1 4 0 12.16 1.15
1 -4 0 13.2 1.01
1 -4 0 13.09 1
1 -4 0 13.16 1
1 -4 1 63.92 2.09
1 -4 1 43.54 2.36
-1 4 -1 56.33 2.5
1 -4 1 32.1 1.36
-1 4 -1 58.41 1.87
-1 4 -1 62.15 1.98
1 -4 1 49.2 1.89
-1 4 -1 60.54 2.5
1 -4 1 59.17 1.68
1 -4 1 66.2 2.14
-1 4 -1 52.69 1.94
1 -4 1 59.23 2.07
1 -4 2 32.11 1.34
-1 4 -2 74.7 2.13
1 -4 2 43.59 2.27
-1 4 -2 54.58 2.03
1 -4 2 40.78 2.07
1 -4 2 64.73 2.16
1 -4 2 41.43 2.17
-1 4 -2 68.67 2.66
-1 4 -2 67.51 1.94
-1 4 -2 66.7 2.67
1 -4 2 58.87 1.63
1 -4 2 51.04 1.91
1 -4 2 46.95 1.47
1 -4 2 62.93 2.07
1 -4 2 63.36 2.12
-1 4 -3 20.84 1.5
-1 4 -3 22.15 1.17
-1 4 -3 20.99 1.52
-1 4 -3 19.61 1.31
1 -4 3 14.54 1.32
1 -4 3 14.77 1.07
1 -4 3 14.64 1.27
-1 4 -3 21.4 1.09
1 -4 3 14.38 0.83
1 -4 3 10.71 0.82
-1 4 -3 18.8 1.47
1 -4 3 9.82 1.15
1 -4 3 14.27 1.21
1 -4 3 18.28 1.19
1 -4 3 18.26 1.18
1 -4 3 18.04 1.17
1 -4 3 15.31 1.16
1 -4 4 15.96 1.14
1 -4 4 14.28 1.35
1 -4 4 14.11 1.3
1 -4 4 9.57 1.24
1 -4 4 14.51 1.11
-1 4 -4 16.36 1.33
1 -4 4 10.38 0.83
-1 4 -4 18.38 1.43
-1 4 -4 16.39 0.94
1 -4 4 15.35 1.17
1 -4 4 13.14 0.84
1 -4 4 12.86 1.11
-1 4 -4 16.93 1.4
-1 4 -4 19.64 1.08
-1 4 -4 18.04 1.23
1 -4 4 15.43 1.17
1 -4 4 16.02 1.14
1 -4 5 15.19 1.4
1 -4 5 17.17 1.39
-1 4 -5 13.39 1.38
1 -4 5 11.63 1.16
1 -4 5 13.72 0.78
1 -4 5 16.93 1.26
1 -4 5 17.77 1.51
1 -4 5 18.69 1.29
-1 4 -5 15.87 0.98
-1 4 -5 13.42 0.85
-1 4 -5 14.63 1.24
1 -4 5 19.33 1.29
1 -4 5 18.22 1.26
1 -4 5 13.64 0.98
-1 4 -5 11.3 1.25
-1 4 -5 13.5 1.35
1 -4 6 16.88 1.24
-1 4 -6 17.2 1.41
-1 4 -6 14.83 1.53
1 -4 6 16.17 1.24
1 -4 6 17.08 1.36
1 -4 6 18.13 1.45
-1 4 -6 13.53 1.37
1 -4 6 19.01 1.47
1 -4 6 16.05 1.2
1 -4 6 16.96 0.91
1 -4 6 19.25 1.47
-1 4 -6 19.54 1.66
1 -4 6 15.35 0.86
1 -4 6 23.38 1.4
1 -4 7 11.85 1.26
1 -4 7 13.4 1.13
-1 4 -7 9.16 1.15
1 -4 7 9.71 1.12
1 -4 7 15.51 1.22
-1 4 -7 9.94 1.1
1 -4 7 12.7 1.18
-1 4 -7 11.05 1.27
1 -4 7 11.41 0.76
1 -4 7 12.42 1.14
1 -4 7 12.17 1.13
-1 4 -7 10.65 1.13
1 -4 7 11.24 1.1
1 -4 7 17.53 1.21
1 -4 7 10.42 0.74
1 -4 8 0.3 0.29
1 -4 8 0.3 0.24
1 -4 8 0.67 0.32
1 -4 8 0.31 0.36
-1 4 -8 0.77 0.47
1 -4 8 0.59 0.38
1 -4 8 0.2 0.18
-1 4 -8 1.18 0.48
-1 4 -8 0.26 0.34
1 -4 8 0.34 0.28
1 -4 9 6.49 0.7
1 -4 9 8.86 0.87
-1 4 -9 5.82 0.99
1 -4 9 6.07 0.72
-1 4 -9 6.73 0.86
1 -4 9 6.46 0.84
1 -4 9 4.17 0.58
-1 4 -9 5.31 0.8
1 -4 9 5.71 0.57
1 -4 9 8.71 0.83
-1 4 -10 11.38 1.3
-1 4 -10 11.02 1.07
1 -4 10 13.7 1.04
1 -4 10 11.42 1.01
1 -4 10 9.48 0.71
1 -4 10 14.68 1
1 -4 10 15.14 1.03
-1 4 -10 10.89 1.17
-1 4 -11 1.66 0.52
1 -4 11 3.19 0.52
1 -4 11 3.59 0.5
1 -4 11 1.9 0.34
-1 4 -11 1.6 0.56
1 -4 11 3.7 0.55
-1 4 -12 2.36 0.57
-1 4 -12 2.23 0.48
1 -4 12 2.6 0.4
1 -4 12 2.83 0.44
1 -4 12 1.9 0.37
-1 4 -13 2.35 0.5
1 -4 13 3.11 0.36
-1 4 -13 2.76 0.54
-1 4 -14 0.46 0.27
-1 3 12 11.17 0.78
-1 3 11 8.08 0.7
-1 3 11 4.88 0.65
-1 3 10 0.69 0.3
-1 3 10 0.66 0.37
-1 3 10 0.6 0.33
-1 3 9 5.62 0.66
1 -3 -9 6.34 1.19
-1 3 9 5.74 0.67
1 -3 -8 114.34 4.31
-1 3 8 123.22 3.05
-1 3 8 115.26 2.79
1 -3 -8 123.81 4.23
-1 3 8 109.17 2.54
-1 3 7 79.31 2.36
1 -3 -7 96.17 2.96
-1 3 7 86.28 2.36
-1 3 7 62.99 2.32
1 -3 -7 103.6 3.82
1 -3 -7 105.8 3.65
-1 3 7 50.26 1.73
1 -3 -6 16.72 1.26
1 -3 -6 15.6 1.52
1 -3 -6 18.08 1.44
-1 3 6 9.54 0.9
-1 3 6 14.4 1
-1 3 6 17.64 1.06
-1 3 6 11.57 1.04
-1 3 6 14 0.88
-1 3 5 4.17 0.42
1 -3 -5 6.8 0.78
-1 3 5 8.21 0.71
1 -3 -5 12.14 1.13
-1 3 5 5.26 0.75
1 -3 -5 10.85 1.12
1 -3 -5 9.53 0.84
1 -3 -4 53.63 1.81
1 -3 -4 53.17 2.18
1 -3 -4 51.78 2.25
1 -3 -3 3.33 0.69
-1 3 3 3.21 0.5
1 -3 -3 2.94 0.43
1 -3 -3 2.8 0.49
1 -3 -3 3.12 0.65
-1 3 3 2.13 0.27
1 -3 -2 35.67 1.46
1 -3 -2 43.37 1.94
1 -3 -2 45.88 1.5
-1 3 2 33.61 1.34
-1 3 2 39.42 1.34
1 -3 -2 35.56 1.43
1 -3 -2 45.09 1.45
1 -3 -2 46.65 2.06
1 -3 -2 46.84 1.49
1 -3 -1 159.59 2.75
1 -3 -1 157.55 2.71
1 -3 -1 139.79 3.58
-1 3 1 139.63 2.64
1 -3 -1 113.35 2.51
1 -3 -1 93.52 1.85
1 -3 -1 98.85 1.87
-1 3 1 137.54 2.56
1 -3 -1 158.3 2.68
-1 3 1 118.82 2.42
-1 3 0 106.09 2.21
1 -3 0 81.62 2.93
1 -3 0 66.85 1.53
1 -3 0 81.47 2.13
-1 3 0 91.91 2.25
-1 3 0 97.9 2.06
1 -3 0 70.72 1.69
1 -3 0 109.47 2.24
1 -3 0 108.16 2.27
1 -3 0 108.68 2.28
1 -3 1 4.06 0.4
-1 3 -1 5.71 0.55
-1 3 -1 6.08 0.53
1 -3 1 5.37 0.55
1 -3 1 5.07 0.48
-1 3 -1 6.05 0.65
1 -3 1 4.92 0.65
1 -3 1 4.88 0.87
1 -3 1 5.44 0.54
1 -3 1 4.9 0.54
1 -3 2 18.07 1.37
1 -3 2 20.11 1.05
-1 3 -2 26.66 1.28
1 -3 2 19.62 1.07
1 -3 2 20.74 1.02
-1 3 -2 24.9 0.99
-1 3 -2 26.54 1.08
1 -3 2 19.01 0.92
1 -3 2 17.6 0.77
1 -3 2 21.99 1.05
-1 3 -3 57.06 1.56
1 -3 3 45.55 1.29
1 -3 3 54.6 1.68
-1 3 -3 61.82 2.03
1 -3 3 49.26 2.05
1 -3 3 51.25 1.63
-1 3 -3 52.2 1.41
1 -3 3 46.01 1.14
1 -3 3 50.24 1.66
1 -3 3 44.76 1.66
1 -3 3 48.31 1.48
-1 3 -4 133.82 2.93
1 -3 4 116.99 2.79
1 -3 4 103.28 2.07
-1 3 -4 98.39 1.96
1 -3 4 110.44 2.47
1 -3 4 115.73 2.55
-1 3 -4 122.44 2.28
1 -3 4 116.06 2.4
1 -3 4 113.07 2.54
1 -3 5 49.38 1.63
1 -3 5 49.19 1.67
1 -3 5 42.37 1.63
-1 3 -5 48.73 1.45
1 -3 5 40.94 1.58
1 -3 5 42.95 1.93
1 -3 5 41.63 1.62
-1 3 -6 24.35 1.42
1 -3 6 16.73 1.12
1 -3 6 17.7 1.12
1 -3 6 15.85 1.08
1 -3 6 16.61 1.23
1 -3 6 22.33 1.16
-1 3 -6 14.77 1.02
1 -3 6 19.96 0.99
1 -3 7 14.73 1.09
1 -3 7 16.47 1.1
1 -3 7 16.42 1.15
1 -3 7 13.18 1.03
-1 3 -7 16.81 1.23
1 -3 7 12.88 1.15
1 -3 7 16.08 0.91
-1 3 -7 11.36 0.99
1 -3 7 18.77 1.13
1 -3 7 14.09 1.05
1 -3 8 4.98 0.73
1 -3 8 4.31 0.64
1 -3 8 5.43 0.67
1 -3 8 3.97 0.71
1 -3 8 2.95 0.52
1 -3 8 4.45 0.74
1 -3 8 5.74 0.73
1 -3 8 4.53 0.65
1 -3 8 3.19 0.47
-1 3 -8 3.37 0.78
1 -3 8 3.84 0.64
-1 3 -8 3.48 0.63
1 -3 8 5.86 0.68
1 -3 8 4.27 0.63
-1 3 -8 2.8 0.63
1 -3 9 13.83 1.04
1 -3 9 15.5 1.12
-1 3 -9 8.52 1.22
-1 3 -9 11.73 1.11
1 -3 9 15.34 1.13
-1 3 -9 12.76 1.14
1 -3 9 11.42 0.8
1 -3 9 11.15 1.09
1 -3 9 8.42 0.79
1 -3 9 12.25 0.82
1 -3 9 16.61 1.1
1 -3 10 5.28 0.71
-1 3 -10 2.9 0.65
1 -3 10 5.12 0.54
1 -3 10 3.64 0.52
-1 3 -10 2.75 0.67
1 -3 10 6.52 0.7
1 -3 10 5.66 0.64
1 -3 10 5.36 0.63
-1 3 -10 2.02 0.71
1 -3 10 6.37 0.73
-1 3 -11 1.35 0.6
1 -3 11 1.41 0.41
1 -3 11 2.35 0.45
-1 3 -11 1.27 0.62
1 -3 11 1.98 0.44
1 -3 11 1.62 0.33
1 -3 11 1.28 0.32
-1 3 -11 1.77 0.56
1 -3 11 1.76 0.38
1 -3 12 6.01 0.7
1 -3 12 6 0.69
-1 3 -12 5.06 0.89
1 -3 12 5.67 0.54
1 -3 12 6.14 0.68
1 -3 13 0.94 0.24
1 -3 13 0.91 0.27
1 -3 13 1.26 0.34
-1 3 -14 0.27 0.3
1 -3 14 0.29 0.16
-1 2 14 7.8 0.57
-1 2 13 1.01 0.32
-1 2 13 1.33 0.35
-1 2 12 3.85 0.53
-1 2 12 2.83 0.54
-1 2 11 1.22 0.45
-1 2 11 0.93 0.4
-1 2 11 1.55 0.4
1 -2 -10 4.82 0.93
-1 2 10 5.41 0.71
-1 2 10 6.76 0.68
-1 2 10 6.57 0.8
-1 2 9 11.87 0.89
-1 2 9 12.82 0.88
-1 2 9 12.33 0.93
-1 2 9 10.93 0.98
-1 2 8 5.31 0.7
1 -2 -8 6.17 0.69
-1 2 8 3.53 0.46
-1 2 8 5.56 0.62
-1 2 8 5.19 0.57
-1 2 8 5.98 0.63
1 -2 -7 8.67 0.86
-1 2 7 7.6 0.62
1 -2 -7 6.58 0.67
1 -2 -7 6.43 0.61
1 -2 -6 15.69 0.86
1 -2 -6 20.34 1
-1 2 6 25.3 1.03
1 -2 -6 18.48 1.06
1 -2 -6 20.27 0.95
-1 2 6 15.84 0.77
1 -2 -6 29.86 1.46
-1 2 5 17.67 0.73
1 -2 -5 29.86 1.37
1 -2 -5 18.95 0.81
-1 2 5 27.62 0.96
1 -2 -5 17.2 0.77
1 -2 -5 15.13 0.95
1 -2 -5 19.33 0.9
1 -2 -4 8.22 0.5
-1 2 4 10.81 0.53
-1 2 4 14.32 0.65
1 -2 -4 9.04 0.6
1 -2 -4 14.56 0.9
1 -2 -3 186.53 2.41
1 -2 -3 170.62 2.09
1 -2 -3 154.1 1.94
-1 2 3 172.74 1.89
-1 2 3 199.16 2.16
1 -2 -3 180.62 2.41
1 -2 -3 174.26 2.12
1 -2 -3 159.03 1.73
1 -2 -3 176.41 2.17
-1 2 2 24.36 0.88
1 -2 -2 26.43 0.86
-1 2 2 28.64 0.69
1 -2 -2 37.9 1.4
-1 2 2 24.76 0.92
1 -2 -2 20.11 0.61
1 -2 -2 25.88 0.87
1 -2 -2 25.99 0.66
1 -2 -2 28.95 0.9
1 -2 -2 26.69 0.96
1 -2 -2 36.61 1.34
1 -2 -2 19.71 0.64
1 -2 -1 115.84 1.51
1 -2 -1 157.9 2.9
-1 2 1 123.03 1.93
-1 2 1 130.77 1.99
-1 2 1 121.77 2.02
1 -2 -1 112.01 1.62
-1 2 1 124.13 1.31
1 -2 -1 143.35 2.74
1 -2 -1 140.21 2
1 -2 -1 111.49 1.95
1 -2 -1 136.34 2
1 -2 -1 134.59 2.01
1 -2 0 74.41 1.19
-1 2 0 81.02 1.24
1 -2 0 66.8 1.51
-1 2 0 78.6 1.47
1 -2 0 84.29 1.54
1 -2 0 79.44 1.35
-1 2 0 84.2 1.56
1 -2 0 86.54 1.58
-1 2 0 69.56 0.91
-1 2 0 86.14 1.83
1 -2 0 87.32 2.39
1 -2 0 86.79 1.59
-1 2 -1 103.03 2.06
1 -2 1 98.69 1.58
1 -2 1 77.72 1.24
1 -2 1 99.68 1.75
1 -2 1 87.58 1.73
-1 2 -1 85.55 1.53
-1 2 -1 76.93 1.4
1 -2 1 97.26 1.7
-1 2 -1 71.79 0.98
-1 2 -1 85.15 1.49
1 -2 1 106.89 2.77
1 -2 1 99.31 1.75
1 -2 1 93.26 1.39
-1 2 -2 158.67 2.54
1 -2 2 123.92 2.11
1 -2 2 119.11 2.17
1 -2 2 121.6 1.69
1 -2 2 104.9 1.53
1 -2 2 146.5 3.11
1 -2 2 127.57 1.87
-1 2 -2 121.13 1.83
1 -2 2 119.34 1.76
1 -2 2 111.96 2
-1 2 -2 125.76 2.09
1 -2 2 131.52 2.17
1 -2 3 8.17 0.57
1 -2 3 9.32 0.55
-1 2 -3 11.03 0.56
-1 2 -3 15.45 0.85
-1 2 -3 13.37 0.77
1 -2 3 7.54 0.67
1 -2 3 7.94 0.57
1 -2 3 7.18 0.47
1 -2 3 8.63 0.59
1 -2 4 206.58 2.73
1 -2 4 161.54 1.88
1 -2 4 172.65 2.8
1 -2 4 169.15 2.68
-1 2 -4 170.78 2.97
1 -2 4 161.68 2.66
1 -2 4 171.89 3.17
1 -2 4 167.26 2.62
-1 2 -4 128.95 2.03
1 -2 5 23.56 0.95
1 -2 5 25.39 1.02
-1 2 -5 19.56 1.1
1 -2 5 22.69 1.15
-1 2 -5 18.08 1.03
1 -2 5 19.44 0.98
1 -2 5 19.93 0.98
1 -2 5 19.06 0.95
1 -2 6 45.46 1.69
-1 2 -6 46.78 1.74
1 -2 6 39.56 1.43
1 -2 6 44.64 1.4
-1 2 -6 42.54 1.76
1 -2 6 39.48 1.1
1 -2 6 43.36 1.49
1 -2 6 41.46 1.49
1 -2 7 7.05 0.52
1 -2 7 9.9 0.85
-1 2 -7 7.55 0.8
-1 2 -7 7.76 0.89
1 -2 7 12.53 0.81
1 -2 7 9.12 0.74
1 -2 7 9.15 0.63
1 -2 7 10.16 0.77
1 -2 7 9.56 0.75
1 -2 8 17.73 0.88
-1 2 -8 15.49 1.37
-1 2 -8 17.3 1.22
1 -2 8 15.26 0.8
-1 2 -9 11.19 1.05
1 -2 9 14 1.05
-1 2 -9 14.21 1.31
1 -2 9 19.19 1.12
1 -2 9 9.83 0.76
1 -2 9 13.9 0.99
1 -2 9 15.57 1.05
1 -2 9 15.12 0.96
1 -2 9 14.93 0.89
1 -2 9 14.57 1
-1 2 -10 151.94 4.48
1 -2 10 161.12 3.32
1 -2 10 161.34 3.45
1 -2 10 154.23 3.26
1 -2 10 152.96 3.48
1 -2 10 163.26 3
1 -2 10 161.75 3.34
1 -2 11 19.49 1.13
1 -2 11 23.32 1.27
1 -2 11 26.33 1.24
1 -2 11 23.1 1.28
1 -2 11 22.81 1.37
-1 2 -11 20.71 1.75
1 -2 11 24.69 1.38
1 -2 12 1.17 0.39
1 -2 12 1.13 0.33
-1 2 -12 2.3 0.64
1 -2 12 2 0.38
-1 2 -12 2.3 0.69
1 -2 12 1.86 0.44
1 -2 13 0.6 0.28
1 -2 13 0.49 0.24
1 -2 13 0.53 0.25
1 -2 14 13.98 0.79
1 -2 15 0.32 0.17
-1 1 15 2.25 0.34
-1 1 14 1.13 0.31
-1 1 13 0.59 0.4
-1 1 13 2.3 0.43
-1 1 12 4.82 0.6
-1 1 12 2.26 0.57
-1 1 12 3.12 0.54
-1 1 12 4.23 0.7
-1 1 11 1.83 0.48
-1 1 11 4.17 0.56
-1 1 11 2.79 0.56
-1 1 11 3.06 0.63
-1 1 10 9.93 0.77
-1 1 10 8.64 0.86
1 -1 -10 8.68 0.96
-1 1 10 6.86 0.87
-1 1 10 9.37 0.83
-1 1 10 9.67 0.84
-1 1 10 8.45 0.85
-1 1 9 5.79 0.55
-1 1 9 5.89 0.63
-1 1 9 3.81 0.48
-1 1 9 4.11 0.7
-1 1 9 4.53 0.58
-1 1 9 4.82 0.64
-1 1 9 4.32 0.6
-1 1 8 26.08 1.06
1 -1 -8 26.42 1.21
-1 1 7 18.6 0.82
-1 1 7 24.74 1
-1 1 6 22.73 0.87
1 -1 -6 21.52 1.05
-1 1 5 0.24 0.14
-1 1 5 0.16 0.16
-1 1 4 170.89 2
1 -1 -4 173.18 2
1 -1 -3 43.34 1.05
1 -1 -3 25.27 0.47
1 -1 -3 29.49 0.49
1 -1 -3 27.19 0.48
-1 1 3 35.13 0.87
1 -1 -3 34.3 0.68
-1 1 3 40.58 0.82
1 -1 -3 37.44 0.89
1 -1 -3 28.49 0.48
1 -1 -2 101.28 1.18
1 -1 -2 132.59 1.86
1 -1 -2 117.36 1.4
1 -1 -2 118.93 1.38
-1 1 2 149.43 1.67
1 -1 -2 109.97 1.23
-1 1 2 145.33 1.46
1 -1 -2 137.76 2.16
1 -1 -2 90.91 1.13
1 -1 -2 112.82 1.24
-1 1 2 142.92 1.63
1 -1 -1 10.32 0.51
1 -1 -1 7.42 0.2
1 -1 -1 10.07 0.64
-1 1 1 7.56 0.38
1 -1 -1 8.86 0.39
1 -1 -1 11.16 0.46
1 -1 -1 9.51 0.46
-1 1 1 7.95 0.38
1 -1 -1 9.19 0.46
1 -1 -1 6.81 0.36
1 -1 0 414.7 2.63
-1 1 0 411.97 2.75
1 -1 0 414.79 2.1
1 -1 1 26.13 0.73
1 -1 1 22.02 0.57
1 -1 1 24.03 0.68
1 -1 1 23.06 0.57
-1 1 -1 21.66 0.75
1 -1 1 25.01 0.74
1 -1 2 315.9 2.39
1 -1 2 307.37 2.78
1 -1 3 39.54 1
1 -1 3 54.2 1.13
1 -1 3 41.59 1.04
1 -1 3 42 1.12
1 -1 3 47.74 1.22
-1 1 -3 56.7 1.52
1 -1 3 52.03 1.05
1 -1 3 46.66 0.87
1 -1 3 41.85 1.07
-1 1 -3 40.72 1.16
-1 1 -4 123.32 2.63
1 -1 4 93.05 1.6
1 -1 4 131.8 1.77
1 -1 4 97.01 1.67
1 -1 4 93.85 1.6
1 -1 4 131.79 1.8
-1 1 -4 76.39 1.72
1 -1 4 120.44 1.06
1 -1 4 102.88 1.81
1 -1 5 7.75 0.48
1 -1 5 5.95 0.46
-1 1 -5 7.37 0.72
1 -1 5 8.44 0.5
1 -1 5 6.14 0.45
1 -1 5 6.72 0.48
-1 1 -5 4.73 0.52
1 -1 5 6.04 0.47
-1 1 -6 4.41 0.71
1 -1 6 2.66 0.32
1 -1 6 3.02 0.35
1 -1 6 2.57 0.33
-1 1 -6 2.91 0.45
1 -1 6 3.32 0.37
1 -1 6 3.22 0.34
1 -1 6 3.71 0.38
1 -1 6 3.03 0.34
1 -1 7 18.48 0.86
-1 1 -7 21.27 1.43
1 -1 8 53.62 1.64
-1 1 -8 59.69 2.58
1 -1 9 27.59 1.32
1 -1 9 25.25 1.27
1 -1 9 31.75 1.23
1 -1 9 36.26 1.43
-1 1 -9 34.98 2.14
1 -1 9 27.29 1.19
1 -1 9 23.64 1.14
1 -1 9 30.92 1.36
1 -1 10 5.52 0.65
1 -1 10 5.81 0.67
1 -1 10 6.42 0.69
1 -1 10 4.79 0.67
1 -1 10 6.03 0.6
1 -1 10 4.3 0.55
-1 1 -11 1.85 0.7
1 -1 11 1.94 0.42
1 -1 11 1.81 0.4
1 -1 11 2.42 0.41
1 -1 11 2.1 0.42
1 -1 11 1.95 0.44
-1 1 -11 2.23 0.82
1 -1 12 -0.23 0.25
1 -1 12 0.27 0.31
-1 1 -12 0.48 0.49
-1 1 -12 0.03 0.51
1 -1 12 0.33 0.25
1 -1 13 7.44 0.74
1 -1 13 11.61 0.84
1 -1 14 3.28 0.42
1 -1 15 9.25 0.59
-1 0 15 0.95 0.26
-1 0 14 4.64 0.54
-1 0 14 5.44 0.69
-1 0 14 4.02 0.68
-1 0 13 2.25 0.52
-1 0 13 1.96 0.4
-1 0 13 1.85 0.53
-1 0 12 6.82 0.84
1 0 -12 5.36 1.39
-1 0 12 6.34 0.89
-1 0 12 7.24 0.7
1 0 -11 1.31 0.55
-1 0 11 0.89 0.43
-1 0 11 0.96 0.36
-1 0 11 1.04 0.31
1 0 -10 12.88 1.01
1 0 -10 9.58 1.08
-1 0 10 10.06 0.9
-1 0 10 11.75 0.78
-1 0 10 9.2 0.82
-1 0 10 6.98 0.6
-1 0 10 10.5 1.04
-1 0 9 12.61 1.02
-1 0 9 10.51 0.66
-1 0 9 14.69 0.93
-1 0 9 16.77 1.04
-1 0 9 12.7 0.85
1 0 -8 8.16 0.65
-1 0 8 6.59 0.48
-1 0 8 7.67 0.6
-1 0 7 6.69 0.52
-1 0 7 6.39 0.42
-1 0 6 110.48 1.56
1 0 -6 115.25 1.48
1 0 -6 157.87 2.22
-1 0 6 94.51 1.65
-1 0 6 146.22 1.4
1 0 -5 44.59 0.92
-1 0 5 48.18 0.78
-1 0 4 15.25 0.41
1 0 -4 19.09 0.61
1 0 -4 16.15 0.4
-1 0 4 27.08 0.65
-1 0 4 22.29 0.71
1 0 -4 16.5 0.42
-1 0 4 32.19 0.64
1 0 -4 28.07 0.79
1 0 -3 37.53 0.56
1 0 -3 42.16 0.92
1 0 -3 37.15 0.57
-1 0 3 31.02 0.77
1 0 -3 43.69 1.03
-1 0 3 53.95 0.85
1 0 -3 38.08 0.57
-1 0 3 47.43 0.82
-1 0 3 31.74 0.59
1 0 -3 29.5 0.72
1 0 -2 13.34 0.35
-1 0 2 12.46 0.54
1 0 -2 12.49 0.34
1 0 -2 8.77 0.4
1 0 -2 12.47 0.34
1 0 -2 10.36 0.48
1 0 -2 11.97 0.52
1 0 -2 12.4 0.35
-1 0 2 10.77 0.46
1 0 -1 32.18 0.54
-1 0 1 28.56 0.56
1 0 -1 33.25 0.57
-1 0 1 23.2 0.68
1 0 -1 32.41 0.54
1 0 -1 27.03 0.71
-1 0 1 28.05 0.72
1 0 -1 32.97 0.57
1 0 0 123.47 1.44
-1 0 0 121.32 1.48
1 0 1 4.27 0.34
1 0 1 4.13 0.21
1 0 1 4.57 0.28
1 0 2 57.18 0.87
1 0 2 57.46 0.9
-1 0 -2 60.04 0.98
1 0 2 58.39 0.87
1 0 2 71.25 1.2
-1 0 -2 68.72 1.44
1 0 2 59.08 0.92
-1 0 -2 67.72 1.01
1 0 2 62.48 0.94
1 0 3 135.34 1.56
1 0 3 119.17 1.77
1 0 3 134.61 1.43
1 0 3 143.23 1.5
1 0 3 129.69 1.47
-1 0 -3 142.68 1.66
1 0 3 135.79 1.43
-1 0 -3 156.28 2.57
1 0 3 131.22 1.47
-1 0 -3 141.46 1.6
1 0 3 126.47 1.4
1 0 4 11.29 0.44
1 0 4 11.95 0.47
1 0 4 11.62 0.43
1 0 4 12.53 0.45
1 0 5 27.72 0.88
1 0 5 19.02 0.63
-1 0 -5 33.08 1.48
1 0 5 17.62 0.6
1 0 5 19.44 0.63
1 0 5 17.81 0.61
1 0 5 34.65 1
-1 0 -5 25.58 0.78
-1 0 -6 8.63 0.88
1 0 6 6.97 0.48
1 0 6 7.89 0.55
1 0 7 27.63 1.09
-1 0 -7 27.63 1.63
-1 0 -8 31.26 1.99
-1 0 -8 25.44 1.34
-1 0 -8 31.6 1.92
1 0 8 22.85 1.08
1 0 9 1.19 0.3
1 0 9 1.25 0.35
1 0 9 1.14 0.33
1 0 9 1.04 0.32
-1 0 -9 1.75 0.48
-1 0 -9 1.8 0.63
-1 0 -9 2.09 0.67
1 0 9 0.88 0.4
1 0 10 7.27 0.82
-1 0 -10 11.67 1.16
1 0 10 8.89 0.78
1 0 10 8.74 0.81
-1 0 -10 11.24 1.42
1 0 10 10.06 0.75
1 0 11 3.2 0.59
-1 0 -11 6.03 1.21
1 0 11 4.14 0.61
1 0 11 4.92 0.57
1 0 12 14.37 0.93
1 0 13 0.64 0.26
1 0 14 1.88 0.33
1 0 15 2.77 0.31
-1 -1 15 4.76 0.54
-1 -1 15 2.33 0.33
-1 -1 14 6.28 0.72
-1 -1 14 7.25 0.85
-1 -1 13 4.67 0.53
-1 -1 13 5.98 0.76
-1 -1 13 6.69 0.91
-1 -1 12 4.21 0.67
-1 -1 12 2.71 0.44
1 1 -12 2.01 0.8
-1 -1 12 4.17 0.76
1 1 -12 1.78 0.57
1 1 -11 12.26 1.28
-1 -1 11 12.48 1.15
-1 -1 11 12.51 0.8
1 1 -11 15.18 1.18
-1 -1 11 13.19 1.08
1 1 -10 14.86 1.06
-1 -1 10 15.94 1.15
-1 -1 10 14.22 0.85
1 1 -10 13.42 1.2
-1 -1 10 12.19 1.09
-1 -1 9 6.15 0.45
-1 -1 9 11.9 0.79
-1 -1 9 8.25 0.67
-1 -1 9 10 0.9
1 1 -9 9.52 0.75
1 1 -9 11.88 0.88
-1 -1 9 12.55 0.95
1 1 -9 10.77 1.01
1 1 -8 5.15 0.54
-1 -1 8 1.07 0.19
1 1 -8 3.69 0.47
-1 -1 8 2.32 0.35
1 1 -8 3.67 0.46
1 1 -7 27.41 1.02
1 1 -7 24.36 0.98
-1 -1 7 19.39 0.64
-1 -1 7 20.76 0.84
-1 -1 6 66.69 1.38
-1 -1 6 65.61 1.37
-1 -1 6 68.09 1.07
1 1 -5 0.16 0.14
1 1 -5 0.2 0.16
1 1 -5 0.6 0.23
-1 -1 5 0.15 0.08
-1 -1 5 0.12 0.14
1 1 -5 0.49 0.12
-1 -1 5 0.13 0.12
1 1 -5 0.33 0.21
1 1 -5 0.2 0.17
-1 -1 5 0.14 0.19
1 1 -5 0.23 0.22
-1 -1 5 0.14 0.13
-1 -1 5 -0.09 0.18
1 1 -4 65.21 1.21
-1 -1 4 50.27 1.15
1 1 -4 59.52 1.11
1 1 -4 93.22 1.66
1 1 -4 62.07 1.25
-1 -1 4 54.59 1.2
1 1 -4 68.36 1.33
-1 -1 4 103.08 2.01
1 1 -4 68.64 1.38
-1 -1 4 90.64 1.74
-1 -1 4 66.14 0.86
-1 -1 4 54.29 1.2
-1 -1 4 91.68 1.8
1 1 -4 64.83 0.93
-1 -1 3 18.76 0.85
-1 -1 3 12.02 0.36
-1 -1 3 17.09 0.78
1 1 -3 9.65 0.53
1 1 -3 8.98 0.44
1 1 -3 13.34 0.59
1 1 -3 10.33 0.52
-1 -1 3 9.48 0.48
-1 -1 3 9.97 0.51
-1 -1 3 12.94 0.72
1 1 -3 10.65 0.47
1 1 -3 10.95 0.39
1 1 -3 10.35 0.47
1 1 -2 34.42 0.69
1 1 -2 32.48 0.91
-1 -1 2 24.06 0.72
-1 -1 2 37.9 1.09
1 1 -2 30.95 0.85
-1 -1 2 25.42 0.73
1 1 -2 30.91 0.77
1 1 -2 32.04 0.87
1 1 -2 31.39 0.76
-1 -1 2 31.57 0.73
1 1 -2 33.1 0.76
1 1 -2 30.82 0.76
-1 -1 2 37.72 1.2
-1 -1 2 27.07 1.03
-1 -1 1 750.67 3.72
1 1 -1 733.53 4.16
1 1 -1 740.02 3.6
-1 -1 1 723.07 3.49
-1 -1 1 817.22 4.67
1 1 -1 752.42 3.3
1 1 -1 710.46 3.64
-1 -1 1 687.49 4.74
-1 -1 1 797.06 4.95
-1 -1 0 883.32 3.85
1 1 0 939.19 3.71
-1 -1 0 950.83 5.03
-1 -1 0 1000 5.14
-1 -1 0 947.28 4.26
-1 -1 0 978.07 4.18
1 1 0 950.08 3.9
1 1 0 931.18 3.69
1 1 0 876.24 4.77
1 1 0 934.47 3.98
-1 -1 0 969.98 5.19
1 1 0 941.73 3.77
1 1 1 55.38 0.93
-1 -1 -1 50.18 1.21
-1 -1 -1 37.65 0.89
1 1 1 45.98 1.08
1 1 1 49.05 0.88
-1 -1 -1 46.63 1.16
1 1 1 56.83 0.94
1 1 1 47.4 0.96
-1 -1 -1 46.16 1.11
-1 -1 -1 39.94 0.84
-1 -1 -1 50.56 0.99
1 1 1 56.29 0.92
1 1 1 55.08 1
1 1 2 28.2 0.67
-1 -1 -2 27.57 0.96
-1 -1 -2 28.49 0.93
1 1 2 27.85 0.69
1 1 2 14.24 0.53
-1 -1 -2 23.4 0.73
-1 -1 -2 29.31 0.79
1 1 2 22.88 0.71
1 1 2 18.09 0.69
1 1 2 27.66 0.69
-1 -1 -2 26.71 0.81
1 1 2 27.98 0.66
-1 -1 -2 28.28 0.95
-1 -1 -3 29.71 1.02
-1 -1 -3 27.07 0.85
-1 -1 -3 31.59 1.12
1 1 3 26.1 0.68
-1 -1 -3 22.73 0.91
1 1 3 26.2 0.72
1 1 3 25.91 0.69
1 1 3 21.35 0.74
1 1 3 26.51 0.68
-1 -1 -3 31.3 0.83
-1 -1 -3 29.45 1.03
1 1 4 58.38 1.21
-1 -1 -4 57.86 1.65
-1 -1 -4 46.29 1.43
1 1 4 47.33 0.92
-1 -1 -4 48.37 1.1
-1 -1 -4 42.59 1.39
-1 -1 -4 46.63 1.19
1 1 4 37.2 1.04
-1 -1 -4 52.17 1.47
1 1 4 46.84 0.94
1 1 4 40.29 0.92
-1 -1 -5 13.87 0.82
-1 -1 -5 12.16 0.67
-1 -1 -5 12.27 0.6
-1 -1 -5 12.56 0.82
1 1 5 11.04 0.6
-1 -1 -5 13.7 0.83
-1 -1 -6 137.48 2.86
-1 -1 -6 134.45 2.85
1 1 6 129.16 2.16
-1 -1 -6 135.99 2.86
-1 -1 -7 0.36 0.34
-1 -1 -7 0.72 0.34
-1 -1 -7 0.72 0.44
1 1 7 0.88 0.23
1 1 8 6.34 0.75
1 1 8 5.6 0.62
1 1 8 4.49 0.61
1 1 8 5.44 0.51
-1 -1 -8 7.48 0.88
1 1 8 6.98 0.61
-1 -1 -8 7.29 1.03
-1 -1 -8 5.66 0.81
1 1 9 2.47 0.54
-1 -1 -9 2.86 0.65
1 1 9 2.14 0.37
1 1 9 1.84 0.51
1 1 9 3.37 0.47
-1 -1 -9 3.2 0.8
-1 -1 -9 2.28 0.7
1 1 10 8.47 0.69
1 1 10 9.1 0.92
1 1 11 18.67 1.27
1 1 11 21.34 1.1
1 1 12 5.09 0.64
1 1 12 5.36 0.58
1 1 13 2.33 0.36
1 1 13 2.08 0.37
-1 -2 15 3.44 0.43
-1 -2 14 1.65 0.41
-1 -2 13 2.88 0.61
-1 -2 13 2.86 0.55
1 2 -12 11.58 1.25
-1 -2 12 11.79 0.86
-1 -2 12 13.91 1.14
-1 -2 12 14.64 1.2
-1 -2 11 17.5 1.02
-1 -2 11 17.25 1.31
1 2 -11 15.79 1.38
-1 -2 11 15.1 0.96
-1 -2 11 20.36 1.37
1 2 -11 16.94 1.24
1 2 -10 5.59 0.87
-1 -2 10 5.75 0.65
-1 -2 10 4.43 0.6
1 2 -10 6.77 0.76
-1 -2 10 5.57 0.77
-1 -2 10 7.21 0.67
-1 -2 10 6.01 0.78
1 2 -9 12 0.91
-1 -2 9 8.9 0.83
1 2 -9 8.01 1.04
-1 -2 9 13.31 1.11
-1 -2 9 12.99 0.92
1 2 -9 11.85 0.9
-1 -2 9 11.19 0.99
-1 -2 9 9.16 0.82
-1 -2 9 13.9 0.93
1 2 -9 9.95 0.77
1 2 -8 2.77 0.45
1 2 -8 2.99 0.47
1 2 -8 2.82 0.55
1 2 -8 2.74 0.42
-1 -2 8 1.56 0.41
1 2 -7 22.33 1.09
1 2 -7 22.62 1.04
-1 -2 7 25.31 1.41
-1 -2 7 18.48 0.98
-1 -2 7 17.84 1.02
-1 -2 7 24.06 1.27
1 2 -7 20.26 1
1 2 -7 22.29 1.25
-1 -2 7 18.31 0.98
-1 -2 6 9.94 0.86
1 2 -6 12.16 0.87
1 2 -6 12.95 0.82
1 2 -6 11.59 0.75
-1 -2 6 6.94 0.59
-1 -2 6 6.43 0.62
-1 -2 6 12.74 0.94
1 2 -6 12.88 0.74
-1 -2 5 1.8 0.33
1 2 -5 2.6 0.35
-1 -2 5 2.49 0.53
1 2 -5 1.47 0.31
1 2 -5 2.24 0.4
-1 -2 5 2.88 0.46
1 2 -5 2.35 0.38
-1 -2 5 3.87 0.57
1 2 -5 1.73 0.32
-1 -2 5 1.92 0.35
1 2 -5 2.66 0.42
-1 -2 4 49.84 1.6
1 2 -4 45.16 1.29
1 2 -4 57.74 1.59
-1 -2 4 36.42 1.09
-1 -2 4 38.37 1.33
1 2 -4 51.72 1.53
1 2 -4 52.73 1.49
1 2 -4 47.06 1
-1 -2 4 61.1 2.01
-1 -2 4 74.08 2.04
-1 -2 4 31.66 1.28
1 2 -4 53.19 1.25
1 2 -4 43.56 1.24
1 2 -4 84.71 2.46
1 2 -3 6.75 0.46
1 2 -3 7.09 0.53
-1 -2 3 7 0.5
-1 -2 3 9.27 0.77
1 2 -3 6.83 0.63
1 2 -3 5.91 0.54
1 2 -3 10.92 0.99
-1 -2 3 10.04 0.94
1 2 -3 6.37 0.39
1 2 -3 7.65 0.58
-1 -2 3 7.58 0.6
1 2 -3 6.99 0.51
-1 -2 3 5.08 0.53
-1 -2 3 5.83 0.54
-1 -2 2 42.27 1.66
1 2 -2 24.03 0.86
-1 -2 2 28.94 1.17
1 2 -2 37.14 0.93
-1 -2 2 29.37 0.99
1 2 -2 40.35 1.31
1 2 -2 40.28 1.4
1 2 -2 31.67 1.14
-1 -2 2 33.5 1.17
1 2 -2 43.11 1.16
-1 -2 2 23.53 1.11
1 2 -2 41.74 1.11
1 2 -2 27.1 0.85
-1 -2 2 37.8 1.47
1 2 -1 54.58 1.3
-1 -2 1 43.95 1.64
-1 -2 1 39.19 1.33
-1 -2 1 36.81 1.19
1 2 -1 51.77 1.51
1 2 -1 46.36 1.41
1 2 -1 51.22 1.22
-1 -2 1 19.77 0.96
1 2 -1 43 1.02
-1 -2 1 35.95 1.08
-1 -2 1 36.01 1.38
-1 -2 0 4.33 0.53
-1 -2 0 4.86 0.47
-1 -2 0 6.04 0.69
-1 -2 0 3.35 0.41
1 2 0 4.85 0.42
-1 -2 0 5.34 0.55
1 2 0 5.14 0.44
1 2 0 3.6 0.46
-1 -2 0 4.66 0.43
1 2 0 4 0.37
1 2 0 4.88 0.54
-1 -2 -1 8.19 0.68
1 2 1 6.28 0.52
-1 -2 -1 8.06 0.57
1 2 1 6.23 0.6
-1 -2 -1 9.29 0.78
1 2 1 4.49 0.5
1 2 1 7.5 0.64
-1 -2 -1 5.98 0.5
1 2 1 7.37 0.48
-1 -2 -1 9.24 0.66
-1 -2 -1 7.53 0.57
-1 -2 -2 3.37 0.43
1 2 2 1.56 0.38
-1 -2 -2 3.01 0.42
1 2 2 1.95 0.29
1 2 2 2.03 0.33
-1 -2 -2 3.75 0.43
1 2 2 1.64 0.35
1 2 2 1.84 0.28
1 2 2 2.28 0.2
-1 -2 -2 3.29 0.51
-1 -2 -3 19.04 0.93
-1 -2 -3 22.06 1.15
1 2 3 13.29 0.78
-1 -2 -3 22.44 1.03
-1 -2 -3 22.95 1.17
1 2 3 16.47 0.89
1 2 3 28.34 0.73
1 2 3 26.7 1.03
-1 -2 -3 19.79 0.98
1 2 3 22.81 0.85
1 2 3 23.71 0.83
-1 -2 -4 54.07 1.63
-1 -2 -4 58.17 1.74
-1 -2 -4 71.39 2.13
1 2 4 56.18 1.55
-1 -2 -4 67.32 2.1
1 2 4 67.74 1.28
1 2 4 53.96 1.33
1 2 4 54.47 1.29
-1 -2 -4 52.22 1.55
-1 -2 -4 73.19 1.97
-1 -2 -5 17.36 1.17
-1 -2 -5 16.29 1.14
-1 -2 -5 14.43 0.93
1 2 5 18.45 0.75
-1 -2 -5 17.38 1.08
1 2 5 14.51 0.86
-1 -2 -6 6.56 0.82
1 2 6 3.99 0.58
-1 -2 -6 7.31 0.94
1 2 6 3.97 0.54
-1 -2 -6 6.88 0.71
1 2 6 5.19 0.46
1 2 6 4.34 0.63
-1 -2 -6 7.48 0.9
1 2 7 0.77 0.4
1 2 7 1.22 0.42
1 2 7 0.79 0.3
-1 -2 -7 1.45 0.61
1 2 7 0.13 0.28
-1 -2 -7 1.13 0.5
-1 -2 -7 0.57 0.44
-1 -2 -7 1.5 0.58
1 2 8 9.49 0.93
1 2 8 7.26 0.77
1 2 8 8.81 0.91
-1 -2 -8 10.89 1.18
-1 -2 -8 10 1.18
-1 -2 -8 6.92 1.1
1 2 9 1.18 0.44
-1 -2 -9 0.72 0.65
1 2 9 0.82 0.36
1 2 10 2.75 0.56
-1 -2 -10 1.97 0.71
1 2 10 3.35 0.64
1 2 11 1.86 0.46
1 2 12 5.35 0.59
-1 -3 15 1.48 0.26
1 3 -14 1.19 0.48
-1 -3 14 2.59 0.4
-1 -3 13 8.17 0.77
-1 -3 13 6.92 0.56
1 3 -12 0.78 0.56
-1 -3 12 0.93 0.38
-1 -3 12 0.87 0.29
1 3 -11 5.19 0.84
-1 -3 11 7.27 0.85
-1 -3 11 6.76 0.65
-1 -3 11 7.52 0.68
-1 -3 10 0.08 0.26
-1 -3 10 0.3 0.31
1 3 -10 0.21 0.38
-1 -3 10 0.17 0.25
-1 -3 10 0.18 0.3
1 3 -10 0.13 0.41
1 3 -9 8.36 0.77
1 3 -9 5.87 0.96
-1 -3 9 8.08 0.77
-1 -3 9 10.54 1.06
-1 -3 9 12.94 0.9
-1 -3 9 11.27 0.9
-1 -3 9 9 0.75
1 3 -9 5.89 1.09
-1 -3 9 13.69 0.96
1 3 -9 7.47 0.69
-1 -3 9 12.17 0.97
-1 -3 8 6.66 0.92
1 3 -8 4.64 0.74
-1 -3 8 5.46 0.65
-1 -3 8 7.57 0.74
-1 -3 8 5.94 0.64
1 3 -8 5.25 0.65
1 3 -8 3.49 0.89
-1 -3 8 8.37 0.82
1 3 -8 4.9 0.59
-1 -3 8 7.86 0.81
-1 -3 8 7.87 0.86
-1 -3 7 16.54 1.05
1 3 -7 12.98 1.1
1 3 -7 15.91 1.05
-1 -3 7 14.68 0.88
1 3 -7 13.19 1.35
-1 -3 7 12.71 1.07
1 3 -7 10.56 0.94
-1 -3 7 13.75 1.26
-1 -3 7 19.75 1.33
-1 -3 7 19.33 1.19
1 3 -7 14.43 0.96
-1 -3 7 16.95 1.24
-1 -3 7 14.82 1.16
-1 -3 7 12.52 0.9
-1 -3 7 10.3 0.93
-1 -3 7 11.17 0.93
-1 -3 7 9.15 0.85
-1 -3 6 5.3 0.65
-1 -3 6 5.73 0.58
1 3 -6 5.68 0.73
-1 -3 6 5.04 0.79
-1 -3 6 5.68 0.57
-1 -3 6 5.5 0.76
-1 -3 6 9.68 0.91
-1 -3 6 7.65 0.77
1 3 -6 6.32 0.66
-1 -3 6 5.98 0.86
-1 -3 6 7.55 0.71
-1 -3 6 4.56 0.66
-1 -3 6 4.78 0.62
1 3 -6 7.35 0.74
1 3 -5 5.63 0.68
-1 -3 5 7.07 0.77
1 3 -5 8.66 0.78
1 3 -5 7.17 0.71
-1 -3 5 9.01 1.01
-1 -3 5 6.87 0.69
-1 -3 5 6.59 0.68
-1 -3 4 3.17 0.53
-1 -3 4 3.87 0.54
-1 -3 4 6.53 0.78
1 3 -4 6.13 0.66
1 3 -4 6.12 0.47
-1 -3 4 6.32 0.9
1 3 -4 6.05 0.56
-1 -3 4 4.53 0.55
1 3 -4 3.13 0.59
1 3 -4 7.62 0.73
-1 -3 3 4.01 0.48
1 3 -3 6.1 0.56
1 3 -3 7.88 0.79
-1 -3 3 7.61 0.82
-1 -3 3 8.59 0.97
1 3 -3 6.24 0.7
1 3 -3 6.11 0.54
1 3 -3 6.57 0.49
-1 -3 3 5.65 0.57
-1 -3 3 6.81 0.66
-1 -3 3 6.61 0.64
1 3 -3 4.2 0.64
-1 -3 2 41.27 1.96
-1 -3 2 34.19 1.43
-1 -3 2 34.45 1.37
-1 -3 2 25.65 1.16
1 3 -2 43.23 1.73
1 3 -2 37.55 1.31
1 3 -2 40.02 1.31
1 3 -2 46.78 1.28
-1 -3 2 30.83 1.21
1 3 -2 38.28 1.61
-1 -3 2 37.57 1.74
-1 -3 1 41.64 1.93
-1 -3 1 36.96 1.42
1 3 -1 38.1 1.65
1 3 -1 35.51 1.53
1 3 -1 33.7 1.22
1 3 -1 34.12 1.2
-1 -3 1 32.64 1.24
1 3 -1 41.05 1.22
-1 -3 1 37.35 1.42
-1 -3 1 35.45 1.38
-1 -3 1 37.46 1.7
-1 -3 0 13.61 0.93
1 3 0 11.08 0.74
-1 -3 0 13.19 0.89
1 3 0 10.89 0.97
-1 -3 0 11.6 0.99
1 3 0 9.92 0.86
-1 -3 0 12.01 0.76
1 3 0 13.4 0.75
-1 -3 0 14.8 0.93
-1 -3 0 14.77 1.22
1 3 0 11.51 0.73
-1 -3 0 7.46 0.81
-1 -3 -1 3.28 0.61
-1 -3 -1 5.65 0.55
1 3 1 4.63 0.5
1 3 1 5.88 0.71
1 3 1 4.77 0.49
1 3 1 4.5 0.67
-1 -3 -1 5.66 0.62
-1 -3 -1 6.63 0.92
-1 -3 -1 4.71 0.7
1 3 1 6.44 0.58
-1 -3 -1 4.6 0.59
-1 -3 -1 5.21 0.61
-1 -3 -2 13.18 0.99
-1 -3 -2 11.1 0.95
1 3 2 12.46 0.77
1 3 2 16.55 1.09
-1 -3 -2 13.61 1.19
1 3 2 13.69 1.02
1 3 2 18.41 0.97
-1 -3 -2 12.41 0.89
-1 -3 -2 7.6 0.79
1 3 2 12.66 0.76
-1 -3 -2 12.35 0.87
1 3 3 6.45 0.62
-1 -3 -3 8.84 0.86
-1 -3 -3 6.19 0.83
1 3 3 6.31 0.64
1 3 3 6.24 0.67
-1 -3 -3 10.28 1.1
1 3 3 5.94 0.69
1 3 3 5.67 0.77
1 3 3 8.11 0.69
1 3 3 9.08 0.76
1 3 3 4.37 0.63
-1 -3 -3 7.82 0.86
-1 -3 -4 15.04 1.19
1 3 4 13.5 0.95
-1 -3 -4 13.13 1.13
-1 -3 -4 14.87 1.33
1 3 4 15.92 1
-1 -3 -4 11.21 1.09
1 3 4 12.54 1.01
1 3 4 14.25 1.01
-1 -3 -5 2.19 0.74
1 3 5 1.1 0.37
1 3 5 1.23 0.39
1 3 5 1.16 0.41
1 3 5 1.69 0.4
-1 -3 -5 2.18 0.59
-1 -3 -5 1.68 0.57
-1 -3 -5 1.68 0.57
1 3 6 4.88 0.65
1 3 6 2.67 0.5
1 3 6 5.57 0.7
-1 -3 -6 4.32 0.85
-1 -3 -6 5.05 0.83
1 3 6 5.41 0.68
-1 -3 -6 5.88 0.99
1 3 7 8.85 0.89
-1 -3 -7 7.78 1.07
1 3 7 10.51 0.91
1 3 8 5.05 0.75
1 3 8 6.07 0.74
1 3 9 1.4 0.41
1 3 10 7.7 0.72
1 3 11 3.06 0.43
-1 -4 14 1.25 0.2
1 4 -13 0.91 0.35
-1 -4 13 0.83 0.19
-1 -4 13 1.37 0.29
-1 -4 12 3.53 0.49
1 4 -12 2.1 0.52
-1 -4 12 3.07 0.36
1 4 -12 2.63 0.58
-1 -4 11 59.75 2.07
-1 -4 11 60.77 1.56
1 4 -11 43.03 1.98
1 4 -11 42.38 2.15
-1 -4 11 66.89 1.68
1 4 -11 45.6 2.31
-1 -4 10 32.99 1.67
1 4 -10 26.4 1.84
-1 -4 10 30.37 1.24
1 4 -10 23.19 1.64
-1 -4 10 35.58 1.35
-1 -4 10 32.76 1.25
-1 -4 10 23.93 1
-1 -4 10 33.9 1.3
-1 -4 9 2.22 0.55
-1 -4 9 1.41 0.39
-1 -4 9 2.33 0.44
1 4 -9 1.11 0.45
-1 -4 9 2.33 0.45
-1 -4 9 2.03 0.42
1 4 -9 1.84 0.6
1 4 -9 1.53 0.7
-1 -4 9 1.85 0.36
-1 -4 8 5.91 0.65
-1 -4 8 4.18 0.74
-1 -4 8 4.35 0.56
-1 -4 8 5.67 0.73
-1 -4 8 4.3 0.62
-1 -4 8 5.08 0.5
1 4 -8 3.53 0.53
1 4 -8 4.01 0.66
1 4 -8 3.68 0.7
1 4 -8 4.85 0.87
1 4 -8 2.89 0.52
1 4 -8 5.53 1.03
-1 -4 8 5.85 0.69
1 4 -7 5.96 0.81
-1 -4 7 10.54 0.77
-1 -4 7 14.46 1.13
-1 -4 7 8.5 1.04
-1 -4 7 13.88 1.03
-1 -4 7 11.89 1.09
1 4 -7 10.29 1.21
1 4 -7 10.05 0.94
-1 -4 7 11.88 0.73
1 4 -7 9.82 1.32
1 4 -7 7.38 0.81
1 4 -7 8.81 0.8
-1 -4 7 12.55 1.12
-1 -4 7 13.38 0.93
-1 -4 6 0.08 0.28
-1 -4 6 0.47 0.34
1 4 -6 0.13 0.27
-1 -4 6 -0.19 0.23
1 4 -6 0.33 0.44
1 4 -6 0.25 0.3
1 4 -6 0.53 0.53
-1 -4 6 -0.1 0.34
-1 -4 6 -0.01 0.32
1 4 -6 0.3 0.25
1 4 -6 0.24 0.29
-1 -4 6 0.08 0.31
-1 -4 6 0.41 0.39
-1 -4 6 0.04 0.35
1 4 -5 12.09 0.92
1 4 -5 14.8 1.13
1 4 -5 14.2 1.52
-1 -4 5 14.86 0.88
-1 -4 5 15.75 1.01
-1 -4 5 14.77 1.34
1 4 -5 13.45 1.43
1 4 -5 12.35 1.06
-1 -4 5 14.61 1.12
1 4 -5 13.12 1.02
-1 -4 5 14.81 1.26
-1 -4 5 15.45 1.33
-1 -4 5 17.45 1.2
1 4 -4 35.14 1.8
-1 -4 4 32.31 1.42
-1 -4 4 32.23 1.62
1 4 -4 37.28 1.61
-1 -4 4 30.79 1.94
-1 -4 4 31.19 1.91
1 4 -4 35.62 2.26
1 4 -4 41.71 1.87
1 4 -4 36.21 2.34
-1 -4 4 32.84 1.63
1 4 -4 40.44 1.77
-1 -4 4 36.11 1.94
-1 -4 4 32.27 1.68
-1 -4 4 37.4 1.73
-1 -4 4 29.81 1.57
-1 -4 3 25.29 1.43
-1 -4 3 23.41 1.2
1 4 -3 29.08 1.62
1 4 -3 24.19 1.86
1 4 -3 22.75 1.9
1 4 -3 23.87 1.55
-1 -4 3 22.6 1.39
1 4 -3 23.21 1.39
1 4 -3 20.09 0.97
1 4 -3 27 1.41
-1 -4 3 26.43 1.68
-1 -4 3 18.35 1.62
-1 -4 3 24.35 1.48
-1 -4 3 24.35 1.41
-1 -4 3 21.04 1.6
-1 -4 3 22.62 1.38
-1 -4 2 6.42 0.85
-1 -4 2 4.43 0.63
-1 -4 2 3.98 0.84
-1 -4 2 2.49 0.54
1 4 -2 1.95 0.79
1 4 -2 3.95 0.53
-1 -4 2 2.85 0.57
1 4 -2 3.51 0.65
1 4 -2 3.35 0.7
1 4 -2 1.94 0.71
1 4 -2 4.38 0.73
-1 -4 2 5.66 0.87
-1 -4 2 2 0.79
1 4 -2 5.8 0.59
1 4 -2 3.98 0.65
-1 -4 2 2.15 0.73
-1 -4 1 5.26 0.77
1 4 -1 6.1 0.79
1 4 -1 7.17 0.97
-1 -4 1 7.38 1.04
-1 -4 1 3.51 0.86
1 4 -1 7 1.1
1 4 -1 6.29 0.63
1 4 -1 6.91 0.87
-1 -4 1 6.14 0.78
1 4 -1 6.9 0.84
1 4 -1 7.64 0.64
-1 -4 1 5.26 0.76
-1 -4 1 4.82 0.9
-1 -4 1 5.42 0.8
-1 -4 1 6.08 0.7
-1 -4 1 5.91 0.8
-1 -4 0 6.43 1.02
-1 -4 0 10.26 1.02
1 4 0 11.51 1.25
-1 -4 0 10.66 1.01
-1 -4 0 11.49 1.26
1 4 0 10.94 0.84
1 4 0 11.63 1.06
-1 -4 0 8.57 0.91
1 4 0 13.71 0.85
-1 -4 0 11.11 0.9
1 4 0 12.46 1.17
1 4 0 11.83 1.05
1 4 0 12.04 1.07
-1 -4 0 8.78 1.01
-1 -4 0 8.54 0.96
1 4 1 32.06 1.82
-1 -4 -1 20.77 1.15
1 4 1 32.29 1.43
1 4 1 27.97 1.56
1 4 1 29.27 1.61
-1 -4 -1 18.91 1.29
-1 -4 -1 24.52 1.56
1 4 1 35.96 1.4
-1 -4 -1 23.91 1.75
1 4 1 30.78 1.64
-1 -4 -1 22.46 1.45
-1 -4 -1 22.71 1.52
-1 -4 -1 21.24 1.45
1 4 2 1.62 0.37
-1 -4 -2 1.69 0.44
1 4 2 2.42 0.49
1 4 2 1.4 0.45
-1 -4 -2 1.96 0.62
1 4 2 2.03 0.53
-1 -4 -2 1.62 0.52
1 4 2 1.7 0.47
1 4 2 1.97 0.5
-1 -4 -2 1.81 0.55
1 4 3 9.72 0.81
-1 -4 -3 8.16 0.76
1 4 3 7.82 0.82
1 4 3 11.12 0.9
1 4 3 9.76 1.04
-1 -4 -3 6.6 0.84
1 4 3 7.26 0.83
-1 -4 -3 8.13 0.96
-1 -4 -4 7.72 0.75
1 4 4 4.17 0.64
1 4 4 8.98 0.85
1 4 4 6.2 0.8
-1 -4 -4 5.18 0.81
-1 -4 -4 7.25 0.97
1 4 4 9.61 0.82
1 4 5 2.95 0.5
-1 -4 -5 3.09 0.67
1 4 5 1.83 0.49
1 4 5 2.94 0.46
1 4 6 3.55 0.48
1 4 6 3 0.51
-1 -4 -7 4.82 0.79
1 4 7 10.65 0.75
1 4 8 2.61 0.38
-1 -4 -8 1.74 0.5
-1 -4 -9 1.34 0.51
-1 -4 -9 2.45 0.56
-1 -5 12 3 0.22
1 5 -12 1.94 0.32
1 5 -12 2.32 0.32
1 5 -11 1.92 0.34
1 5 -11 2 0.41
-1 -5 11 2.38 0.27
-1 -5 11 2.91 0.36
1 5 -11 2.27 0.41
-1 -5 11 2.35 0.26
-1 -5 10 2.85 0.4
-1 -5 10 2.78 0.3
1 5 -10 2.31 0.43
1 5 -10 2.32 0.48
-1 -5 10 2.57 0.31
1 5 -10 1.91 0.42
-1 -5 10 2.35 0.29
-1 -5 9 2.03 0.32
-1 -5 9 1.93 0.3
-1 -5 9 1.98 0.3
-1 -5 9 2.36 0.44
1 5 -9 2.03 0.48
1 5 -9 2.02 0.52
-1 -5 9 2.67 0.35
1 5 -9 1.84 0.46
-1 -5 8 3.96 0.43
1 5 -8 3.03 0.67
1 5 -8 1.97 0.37
-1 -5 8 3.82 0.44
1 5 -8 2.11 0.54
-1 -5 8 3.56 0.57
-1 -5 8 3.27 0.45
1 5 -8 3.46 0.62
-1 -5 8 3.88 0.47
1 5 -7 0.56 0.35
-1 -5 7 0.85 0.31
1 5 -7 0.79 0.44
-1 -5 7 0.81 0.4
-1 -5 7 0.98 0.32
1 5 -7 0.62 0.44
1 5 -7 0.3 0.23
-1 -5 7 0.82 0.27
-1 -5 7 0.87 0.32
1 5 -6 14.74 1.21
-1 -5 6 12.51 1.23
-1 -5 6 20.36 0.97
1 5 -6 20.32 1.51
1 5 -6 19.66 1.5
1 5 -6 17.64 1.1
-1 -5 6 19.8 1.04
1 5 -6 16.75 1.05
1 5 -6 18.27 1.01
-1 -5 6 20.39 1.22
-1 -5 6 20.73 1.2
-1 -5 5 1.75 0.59
-1 -5 5 1.61 0.51
1 5 -5 3.39 0.72
1 5 -5 3.16 0.69
1 5 -5 2.86 0.53
1 5 -5 2.51 0.52
-1 -5 5 2.21 0.47
-1 -5 5 2.55 0.42
1 5 -5 2.78 0.48
-1 -5 5 2.56 0.52
-1 -5 4 4.74 0.7
-1 -5 4 5.34 0.57
-1 -5 4 4.31 0.74
1 5 -4 4.2 0.68
1 5 -4 4.93 0.85
1 5 -4 3.87 0.75
1 5 -4 4.09 0.62
1 5 -4 5.08 0.63
-1 -5 4 3.79 0.53
-1 -5 3 7.85 0.68
-1 -5 3 7.95 0.89
1 5 -3 5.35 0.93
1 5 -3 5.22 0.86
1 5 -3 7.57 0.89
-1 -5 3 7.01 0.72
1 5 -3 6.7 0.76
-1 -5 3 6.43 0.92
1 5 -3 8.25 0.82
-1 -5 3 5.55 0.66
-1 -5 2 3.99 0.54
-1 -5 2 1.53 0.66
1 5 -2 1.92 0.59
1 5 -2 3.11 0.44
-1 -5 2 1.56 0.51
1 5 -2 3.71 0.67
1 5 -2 2.11 0.56
1 5 -2 3.45 0.61
-1 -5 2 3.05 0.58
1 5 -2 4.02 0.66
-1 -5 2 2.83 0.54
-1 -5 2 3.6 0.71
-1 -5 1 4.62 0.54
-1 -5 1 4 0.75
1 5 -1 3.9 0.71
-1 -5 1 3.35 0.8
1 5 -1 5.33 0.75
1 5 -1 4.02 0.66
-1 -5 1 3.66 0.58
1 5 -1 4.64 0.68
1 5 -1 4.55 0.51
1 5 0 0.15 0.25
1 5 0 0.4 0.33
-1 -5 0 0.03 0.49
-1 -5 0 0.38 0.46
1 5 0 0.27 0.33
-1 -5 0 0.3 0.36
1 5 0 0.39 0.36
-1 -5 0 -0.28 0.32
-1 -5 -1 5.64 0.57
-1 -5 -1 4.91 0.9
1 5 1 6.57 0.63
1 5 1 6.2 0.76
1 5 1 4.62 0.61
-1 -5 -1 4.81 0.61
1 5 1 5.73 0.74
-1 -5 -1 3.85 0.83
-1 -5 -2 4.09 0.75
-1 -5 -2 3.28 0.73
1 5 2 7.13 0.64
1 5 2 5.97 0.72
-1 -5 -2 3.79 0.58
1 5 2 6.03 0.69
-1 -5 -3 2.53 0.68
1 5 3 4.26 0.5
1 5 3 4.09 0.57
-1 -5 -3 2.54 0.51
1 5 3 3.09 0.49
-1 -5 -3 2.79 0.63
1 5 4 1.06 0.28
-1 -5 -4 0.73 0.42
1 5 4 0.78 0.26
-1 -5 -4 0.39 0.32
-1 -5 -4 0.64 0.47
1 5 4 0.82 0.26
-1 -5 -5 1.9 0.56
-1 -5 -5 2.77 0.45
-1 -5 -5 1.51 0.46
-1 -5 -6 2.38 0.49
-1 -5 -6 2.53 0.6
1 6 -8 0.24 0.13
-1 -6 7 2.2 0.27
-1 -6 7 1.51 0.17
1 6 -7 1.12 0.27
1 6 -7 0.85 0.22
-1 -6 7 1.99 0.2
-1 -6 6 0.32 0.2
-1 -6 6 0.39 0.15
1 6 -6 0.35 0.21
1 6 -6 0.27 0.2
1 6 -6 0.31 0.15
-1 -6 6 0.23 0.13
-1 -6 6 0.3 0.16
-1 -6 5 0.98 0.28
-1 -6 5 1.25 0.23
1 6 -5 0.83 0.25
1 6 -5 1.22 0.24
1 6 -5 0.18 0.19
1 6 -5 0.93 0.24
-1 -6 5 1.07 0.2
-1 -6 5 1.16 0.21
-1 -6 5 1.05 0.23
-1 -6 4 1.22 0.31
-1 -6 4 2.11 0.26
-1 -6 4 1.28 0.26
1 6 -4 3.6 0.39
1 6 -4 0.91 0.24
-1 -6 4 1.52 0.23
1 6 -4 2.99 0.34
-1 -6 4 1.06 0.24
1 6 -4 2.11 0.36
-1 -6 3 2.64 0.43
-1 -6 3 4.72 0.34
-1 -6 3 4.93 0.47
1 6 -3 3.5 0.43
-1 -6 3 4.42 0.44
-1 -6 3 5.23 0.38
1 6 -3 6.56 0.53
1 6 -3 7.95 0.54
-1 -6 2 0.77 0.28
-1 -6 2 1.18 0.3
1 6 -2 1.32 0.28
-1 -6 2 1.37 0.25
1 6 -2 1.97 0.31
-1 -6 2 1.06 0.29
-1 -6 1 1.25 0.33
-1 -6 1 2.51 0.39
-1 -6 1 3.04 0.3
1 6 -1 3.95 0.43
1 6 -1 4.09 0.41
-1 -6 1 2.34 0.36
-1 -6 0 1.45 0.33
1 6 0 2.11 0.32
1 6 0 2.39 0.32
-1 -6 0 1.17 0.29
1 6 1 2.36 0.29
-1 -6 -1 1.2 0.27
1 6 1 2.03 0.27
-1 -6 -1 1.05 0.27
2 -6 -5 3.86 0.57
-2 6 4 9.67 0.59
2 -6 -4 8.21 0.81
-2 6 3 4.51 0.49
2 -6 -3 3.47 0.61
-2 6 3 4.9 0.49
-2 6 3 3.82 0.46
2 -6 -3 3.21 0.51
-2 6 3 3.91 0.36
2 -6 -2 2.74 0.63
-2 6 2 4.33 0.52
-2 6 2 3.37 0.47
-2 6 2 4.52 0.51
2 -6 -2 2.83 0.53
-2 6 2 3.73 0.41
2 -6 -1 2.09 0.54
2 -6 -1 1.81 0.37
-2 6 1 2.95 0.49
-2 6 1 3.18 0.44
-2 6 1 2.72 0.46
-2 6 1 2.45 0.36
2 -6 -1 1.93 0.47
-2 6 0 9.87 0.84
2 -6 0 7.78 0.68
2 -6 0 8.56 0.89
-2 6 0 7.87 0.64
-2 6 0 10.77 0.76
2 -6 0 8.01 0.95
-2 6 0 11.4 0.92
2 -6 1 2 0.47
2 -6 1 2.39 0.53
-2 6 -1 3.29 0.43
-2 6 -1 3.38 0.54
-2 6 -1 2.25 0.4
2 -6 1 2.02 0.52
2 -6 1 2.21 0.41
-2 6 -1 3.1 0.52
2 -6 2 3.23 0.53
-2 6 -2 2.29 0.4
2 -6 2 4.01 0.52
2 -6 2 4.36 0.64
-2 6 -2 3.82 0.56
-2 6 -2 2.85 0.45
-2 6 -2 3.99 0.59
2 -6 2 3.53 0.63
2 -6 3 0.72 0.29
2 -6 3 0.68 0.33
2 -6 3 0.49 0.25
-2 6 -3 0.36 0.26
2 -6 3 0.97 0.25
2 -6 3 0.72 0.35
-2 6 -3 0.43 0.27
-2 6 -3 0.25 0.21
-2 6 -3 0.37 0.23
-2 6 -4 6.61 0.7
2 -6 4 6.51 0.6
2 -6 4 6.52 0.71
2 -6 4 8.43 0.79
2 -6 4 7.34 0.63
-2 6 -4 8.45 0.79
-2 6 -4 6.86 0.68
-2 6 -4 8.27 0.78
2 -6 4 6.64 0.52
2 -6 5 3.42 0.51
-2 6 -5 3.99 0.54
-2 6 -5 4.03 0.54
2 -6 5 2.21 0.42
2 -6 5 3.84 0.45
2 -6 5 3.23 0.52
-2 6 -5 4.21 0.52
-2 6 -5 3.88 0.5
-2 6 -5 2.72 0.42
2 -6 5 3.39 0.38
2 -6 6 4.71 0.49
2 -6 6 7.09 0.58
-2 6 -6 6.05 0.6
2 -6 6 7.43 0.66
2 -6 6 6.48 0.6
-2 6 -6 6.42 0.61
-2 6 -6 5.86 0.57
-2 6 -6 7.47 0.69
-2 6 -6 5.02 0.55
2 -6 6 5.91 0.48
-2 6 -7 1.49 0.32
2 -6 7 1.94 0.32
2 -6 7 2.49 0.36
-2 6 -7 1.39 0.3
-2 6 -7 1.42 0.28
-2 6 -7 1.34 0.28
2 -6 7 1.85 0.28
-2 6 -7 1.72 0.35
2 -6 7 2 0.3
-2 6 -8 -0.03 0.15
2 -6 8 0.14 0.11
2 -6 8 0.06 0.12
-2 6 -8 -0.07 0.16
-2 6 -8 0.07 0.14
2 -6 8 0.12 0.14
-2 6 -8 0.14 0.17
2 -6 8 0.07 0.12
2 -6 9 3.06 0.29
2 -6 9 3 0.29
-2 6 -9 1.97 0.28
-2 6 -9 2.24 0.32
-2 6 -9 1.78 0.31
2 -6 9 2.71 0.26
-2 5 8 1.33 0.26
-2 5 8 1.12 0.25
-2 5 7 2.76 0.38
-2 5 7 2.33 0.34
-2 5 6 5.95 0.66
-2 5 6 5.85 0.57
-2 5 5 0.26 0.25
-2 5 5 0.65 0.29
2 -5 -5 0.42 0.37
-2 5 5 0.47 0.26
-2 5 5 0.3 0.32
-2 5 5 0.75 0.28
-2 5 4 15.8 1.14
-2 5 4 18.37 1.22
-2 5 4 16.79 1.05
-2 5 3 24.65 1.53
2 -5 -3 21.05 1.77
-2 5 3 26.33 1.55
2 -5 -3 22.17 1.59
-2 5 3 25.26 1.44
-2 5 3 26.57 1.37
-2 5 3 18.82 1.21
2 -5 -2 12.07 1.36
-2 5 2 14.84 1.27
2 -5 -2 10.84 1.16
-2 5 2 14.43 1.11
-2 5 2 16.43 1.26
-2 5 2 14.82 1.13
-2 5 2 12.67 1
2 -5 -1 11.24 1.28
2 -5 -1 10.92 1.03
-2 5 1 15.08 1.1
-2 5 1 14.26 1.27
2 -5 -1 12.22 1.28
-2 5 1 16.18 1.29
-2 5 1 14.33 1.09
-2 5 1 13.77 1.04
2 -5 0 3.88 0.89
2 -5 0 5.13 0.74
-2 5 0 7.24 0.88
2 -5 0 6.76 0.94
-2 5 0 6.63 0.73
-2 5 0 6.64 0.84
-2 5 0 5.49 0.73
2 -5 0 4.37 0.95
-2 5 0 5.98 0.72
-2 5 0 5.09 0.7
2 -5 1 34.96 2
2 -5 1 37.09 1.8
-2 5 -1 45.97 2.16
2 -5 1 43.14 2.22
-2 5 -1 38.78 1.64
-2 5 -1 41.51 1.71
-2 5 -1 46.26 2.15
-2 5 -1 41.36 1.9
2 -5 1 34.38 2.26
-2 5 -1 39.51 1.92
-2 5 -1 37.09 1.69
2 -5 2 111.52 3.53
2 -5 2 89.53 3.12
2 -5 2 107.3 2.96
2 -5 2 116.51 3.61
-2 5 -2 141.2 3.66
-2 5 -2 128.14 3.42
-2 5 -2 138.4 3.75
-2 5 -2 106.6 2.93
-2 5 -2 119.07 2.78
2 -5 2 104.37 2.55
-2 5 -2 124.06 3.47
2 -5 3 130.31 3.83
2 -5 3 104.55 3.09
2 -5 3 125.16 3.14
-2 5 -3 142.03 3.72
2 -5 3 123.66 3.69
-2 5 -3 136.72 3.59
2 -5 3 115.67 3.55
-2 5 -3 101.03 3.13
-2 5 -3 117.6 3.14
2 -5 3 119.44 2.73
-2 5 -3 128.32 3.64
-2 5 -4 5.37 0.76
2 -5 4 4.77 0.75
2 -5 4 4.76 0.68
-2 5 -4 5.73 0.77
2 -5 4 3.87 0.68
-2 5 -4 5.53 0.8
2 -5 4 5.11 0.79
-2 5 -4 5.91 0.77
-2 5 -4 5 0.77
2 -5 4 4.79 0.6
2 -5 4 3.43 0.79
2 -5 5 3.2 0.65
-2 5 -5 2.48 0.56
2 -5 5 1.77 0.46
-2 5 -5 0.97 0.4
2 -5 5 2.4 0.65
-2 5 -5 2.41 0.56
2 -5 5 2.33 0.51
-2 5 -5 2.18 0.51
-2 5 -5 2.38 0.52
-2 5 -5 2.1 0.54
2 -5 5 2.42 0.46
-2 5 -6 17.42 1.26
2 -5 6 17.82 1.27
-2 5 -6 11.32 0.99
2 -5 6 13.91 1.09
2 -5 6 19.01 1.21
-2 5 -6 19.19 1.39
-2 5 -6 16.25 1.19
2 -5 6 19.04 1.37
-2 5 -6 14.64 1.14
2 -5 6 17.83 1.05
-2 5 -6 20.46 1.47
-2 5 -7 2.42 0.57
-2 5 -7 1.48 0.44
-2 5 -7 1.94 0.43
2 -5 7 3.28 0.52
2 -5 7 3.27 0.6
-2 5 -7 1.4 0.42
2 -5 7 3.16 0.6
-2 5 -7 2.11 0.54
2 -5 7 3.33 0.47
2 -5 8 7.65 0.77
-2 5 -8 7.94 0.87
2 -5 8 7.2 0.66
-2 5 -8 7.06 0.77
2 -5 8 9.27 0.84
-2 5 -8 8.91 0.95
2 -5 8 8.2 0.73
-2 5 -9 16.57 1.14
2 -5 9 23.45 1.15
2 -5 9 20.8 1.07
-2 5 -9 20.55 1.37
2 -5 9 26.24 1.25
2 -5 9 20.12 1
2 -5 9 14.61 0.7
-2 5 -9 18.4 1.21
2 -5 10 3.9 0.44
2 -5 10 3.78 0.42
2 -5 10 3.99 0.41
-2 5 -10 3.22 0.5
2 -5 10 4.39 0.47
-2 5 -10 3.63 0.57
2 -5 10 2.42 0.27
-2 5 -10 2.84 0.47
-2 5 -11 2.45 0.39
2 -5 11 2.36 0.29
-2 5 -11 1.5 0.32
2 -5 11 2.81 0.33
2 -5 11 3.19 0.34
-2 5 -11 2.67 0.43
2 -5 11 2.82 0.33
-2 5 -12 0.5 0.22
-2 5 -12 0.47 0.21
2 -5 12 0.34 0.14
-2 4 11 0.4 0.23
-2 4 10 1.32 0.3
-2 4 10 1.55 0.36
-2 4 9 3.41 0.48
-2 4 9 3.57 0.54
-2 4 8 16 1.03
-2 4 8 16.09 1.04
-2 4 7 0.07 0.29
-2 4 7 0.01 0.21
-2 4 7 0.04 0.24
2 -4 -6 3.33 1
-2 4 6 2.14 0.48
-2 4 6 2.91 0.52
-2 4 6 3.55 0.62
-2 4 6 2.68 0.58
-2 4 6 2.8 0.53
-2 4 5 6.37 0.82
2 -4 -5 6.56 1.21
-2 4 5 7.2 0.84
-2 4 5 5.3 0.68
-2 4 5 6.13 0.8
-2 4 5 7.07 0.71
-2 4 4 40.16 1.99
2 -4 -4 39.53 2.37
2 -4 -4 46.72 2.08
-2 4 4 33.66 1.76
2 -4 -4 39.15 2.68
-2 4 4 45.05 2.08
-2 4 4 42.59 1.86
-2 4 4 31.63 1.71
-2 4 4 43.02 1.65
2 -4 -3 7.03 1.33
-2 4 3 9.3 1
-2 4 3 8.59 0.92
-2 4 3 10.15 1.02
-2 4 3 8.99 0.89
2 -4 -3 8.41 1.11
-2 4 3 5.67 0.74
-2 4 3 8.52 0.78
2 -4 -3 10.89 1.05
2 -4 -2 4.64 1.11
-2 4 2 7.74 0.96
2 -4 -2 6.26 0.73
2 -4 -2 4.77 0.83
-2 4 2 7.39 0.8
-2 4 2 7.36 0.87
-2 4 2 8.27 0.9
-2 4 2 6.12 0.74
-2 4 2 7.01 0.79
-2 4 1 2.91 0.61
2 -4 -1 3.37 0.65
2 -4 -1 2.7 0.63
2 -4 -1 2.71 0.96
-2 4 1 2.74 0.6
2 -4 -1 1.39 0.62
-2 4 1 2.62 0.58
-2 4 1 2.15 0.5
-2 4 1 2.28 0.62
-2 4 1 2.27 0.5
-2 4 1 2.16 0.49
2 -4 0 4.82 0.73
2 -4 0 4.77 0.68
-2 4 0 4.05 0.72
2 -4 0 4.71 0.67
2 -4 0 3.25 0.75
-2 4 0 5.01 0.73
-2 4 0 3.73 0.57
-2 4 0 4.83 0.75
-2 4 0 4.41 0.7
-2 4 0 4.63 0.65
-2 4 0 3.26 0.53
2 -4 0 3.82 0.87
2 -4 0 4.47 0.63
2 -4 0 3.56 0.61
-2 4 -1 53.25 2.05
2 -4 1 52.91 2.09
2 -4 1 54.94 2.15
2 -4 1 59.84 2.39
2 -4 1 49.61 2.62
-2 4 -1 54.78 2.29
2 -4 1 47.84 2.41
-2 4 -1 52.68 2.22
2 -4 1 42.15 2.44
-2 4 -1 52.87 2.3
2 -4 1 48.82 1.95
-2 4 -1 38.25 1.59
2 -4 1 53.19 2.07
-2 4 -2 10.09 0.95
2 -4 2 10.85 1.26
2 -4 2 10.72 0.92
2 -4 2 13.54 1.26
2 -4 2 10.36 1.02
-2 4 -2 10.31 1.02
2 -4 2 11.62 1.18
-2 4 -2 10.39 1.02
-2 4 -2 7.63 0.98
2 -4 2 13.57 1.17
2 -4 2 11.65 1.03
-2 4 -2 11.31 1.1
2 -4 2 12.01 1.03
2 -4 2 12.44 1.06
-2 4 -3 14.41 1.19
2 -4 3 15.21 1.21
2 -4 3 15.77 1.49
2 -4 3 16.17 1.4
-2 4 -3 13.99 1.27
2 -4 3 16.19 1.33
2 -4 3 14.09 1.13
-2 4 -3 12.39 1.2
2 -4 3 14.94 1.27
-2 4 -3 12.18 1.11
-2 4 -3 12.75 1.22
2 -4 3 12.62 0.87
2 -4 3 15.07 1.18
2 -4 3 14.42 0.97
2 -4 3 16.85 1.26
-2 4 -3 14.65 1.35
-2 4 -4 3.75 0.73
2 -4 4 4.34 0.7
-2 4 -4 3.28 0.72
2 -4 4 2.3 0.75
2 -4 4 3.62 0.78
2 -4 4 3.91 0.72
2 -4 4 3.74 0.68
2 -4 4 3.74 0.66
-2 4 -4 2.87 0.7
2 -4 4 3.22 0.83
-2 4 -4 2.58 0.65
2 -4 4 4.4 0.69
-2 4 -4 3.2 0.73
2 -4 4 3.45 0.5
2 -4 4 3.77 0.66
2 -4 4 3.41 0.56
-2 4 -4 3.54 0.81
2 -4 5 13.34 1.18
2 -4 5 11.2 1.18
2 -4 5 13.84 1.27
-2 4 -5 13.16 1.34
2 -4 5 12.77 1.05
2 -4 5 11.64 1.01
-2 4 -5 9.75 1.07
2 -4 5 12.66 1.28
2 -4 5 13.47 1.31
-2 4 -5 10.87 1.11
-2 4 -5 12.79 1.2
2 -4 5 12.38 1.16
2 -4 5 12.13 0.94
2 -4 5 13.25 1.2
-2 4 -5 14.68 1.35
-2 4 -5 15.09 1.25
2 -4 6 0.91 0.42
2 -4 6 1.38 0.51
2 -4 6 1.75 0.51
-2 4 -6 1.7 0.56
2 -4 6 1.44 0.43
2 -4 6 1.02 0.33
-2 4 -6 2.29 0.64
-2 4 -6 1.14 0.48
2 -4 6 1.32 0.52
-2 4 -6 1.59 0.57
2 -4 6 1.27 0.38
2 -4 6 0.91 0.38
2 -4 6 1.63 0.5
2 -4 6 1.43 0.46
-2 4 -6 2.16 0.61
-2 4 -7 28.46 1.63
-2 4 -7 22.62 1.69
2 -4 7 26.14 1.6
2 -4 7 28.41 1.41
2 -4 7 25.97 1.43
2 -4 7 26.65 1.61
-2 4 -7 22 1.83
2 -4 7 27.03 1.36
-2 4 -7 25.2 1.75
-2 4 -8 7.5 0.87
-2 4 -8 5.58 0.94
2 -4 8 10.1 0.97
2 -4 8 11.4 1.05
-2 4 -8 6.27 0.98
2 -4 8 9.35 0.85
2 -4 8 10.31 0.83
-2 4 -8 5.2 0.88
-2 4 -9 2.69 0.61
-2 4 -9 3.02 0.61
-2 4 -9 3.45 0.71
2 -4 9 4.15 0.61
2 -4 9 3.76 0.55
2 -4 9 4.21 0.64
2 -4 9 3.64 0.51
-2 4 -9 2.75 0.69
2 -4 10 5.29 0.64
2 -4 10 4.69 0.59
2 -4 10 4.97 0.58
2 -4 10 5.13 0.64
-2 4 -10 5.42 0.85
2 -4 10 4.06 0.48
-2 4 -10 4.49 0.83
-2 4 -10 3.09 0.61
-2 4 -11 5.07 0.81
2 -4 11 7.84 0.69
2 -4 11 6.7 0.65
2 -4 11 8.93 0.73
-2 4 -11 5.78 0.83
2 -4 11 7.39 0.57
2 -4 11 7.71 0.66
-2 4 -12 1.08 0.4
2 -4 12 1.12 0.25
2 -4 12 1.2 0.26
2 -4 12 1.13 0.22
-2 4 -12 0.73 0.33
2 -4 12 1.6 0.31
-2 4 -13 0.15 0.22
2 -4 13 0.1 0.14
2 -4 13 0.11 0.11
-2 3 12 0.15 0.26
-2 3 11 5.06 0.6
-2 3 11 5.4 0.65
-2 3 10 10.99 0.92
-2 3 10 12.57 1.02
-2 3 9 5.48 0.75
-2 3 9 4.31 0.68
2 -3 -8 0.89 0.81
-2 3 8 1.16 0.39
-2 3 8 1.03 0.45
2 -3 -7 13.45 1.44
2 -3 -7 12.93 1.51
2 -3 -7 8.96 1.01
2 -3 -7 9.54 1.5
-2 3 7 13.78 1.16
-2 3 7 14.78 1.04
-2 3 7 16.56 1.05
-2 3 7 7.83 0.67
-2 3 7 11.98 1.02
2 -3 -6 2.03 0.66
2 -3 -6 1.1 0.72
-2 3 6 0.47 0.38
-2 3 6 1.02 0.43
-2 3 6 0.77 0.43
-2 3 6 1.25 0.37
-2 3 6 1.09 0.43
-2 3 6 3.09 0.58
-2 3 6 0.47 0.27
2 -3 -6 1.17 0.53
2 -3 -6 1.72 0.64
-2 3 5 23.07 1.2
2 -3 -5 17.64 1.45
2 -3 -5 21.02 1.74
-2 3 5 13.14 1.1
-2 3 5 13.53 1.16
-2 3 5 21.05 1.39
-2 3 5 11.92 0.69
-2 3 5 24.74 1.29
-2 3 5 19.15 1.16
2 -3 -4 31.62 2.03
2 -3 -4 26.72 1.69
2 -3 -3 0.55 0.6
-2 3 3 0.03 0.13
2 -3 -3 0.41 0.3
-2 3 2 15.44 1.02
2 -3 -2 15.09 0.95
2 -3 -2 14.21 1.37
2 -3 -2 11.36 1.04
2 -3 -2 15.17 1.01
2 -3 -2 14.2 0.91
2 -3 -2 14.5 0.93
-2 3 2 12.09 0.59
-2 3 1 9.2 0.78
2 -3 -1 12.53 0.88
2 -3 -1 12.41 0.91
2 -3 -1 12.35 1.25
2 -3 -1 13.43 0.99
2 -3 -1 12.5 0.89
-2 3 1 7.9 0.44
2 -3 -1 11.46 0.93
2 -3 0 25.66 1.25
2 -3 0 18.77 1.06
2 -3 0 27.02 1.74
-2 3 0 31.53 1.39
2 -3 0 24.66 0.95
2 -3 0 28.59 1.41
-2 3 0 23.59 0.72
2 -3 0 26.25 1.26
2 -3 0 27.19 1.31
2 -3 0 22.78 1.22
-2 3 -1 30.92 1.41
2 -3 1 33.68 1.41
2 -3 1 24.41 0.98
2 -3 1 20.63 1.06
2 -3 1 39.3 1.67
2 -3 1 34.54 1.45
2 -3 1 41.34 2.07
2 -3 1 29.97 1.01
2 -3 1 34.89 1.15
2 -3 1 35.59 1.49
2 -3 1 36.39 1.52
-2 3 -2 31.37 1.44
2 -3 2 31.49 1.71
2 -3 2 24.68 1.19
-2 3 -2 19.19 0.94
2 -3 2 21.83 0.92
2 -3 2 26.55 1.06
2 -3 2 27.66 1.49
2 -3 2 24.95 1.31
2 -3 2 25.89 1.31
2 -3 2 26.56 1.35
-2 3 -3 29.47 1.45
2 -3 3 20.7 0.95
-2 3 -3 16.89 0.95
2 -3 3 22.4 1.07
2 -3 3 20.66 1.15
2 -3 3 24.49 1.41
2 -3 3 23.95 1.29
2 -3 3 23.77 1.27
2 -3 3 24.57 1.32
2 -3 3 27.23 1.57
2 -3 4 48.62 2.23
-2 3 -4 62.22 2.14
2 -3 4 61.64 2.19
2 -3 4 47.51 1.5
-2 3 -4 46.2 1.67
2 -3 4 49.45 2.02
2 -3 4 51.53 2.03
2 -3 4 51.75 1.97
2 -3 5 14.15 1.2
-2 3 -5 12.16 1.1
2 -3 5 19.13 1.14
2 -3 5 14.76 0.91
-2 3 -5 10.73 0.88
2 -3 5 15.23 1.15
2 -3 5 15.89 1.18
2 -3 5 15.53 1.16
2 -3 6 37.24 1.8
2 -3 6 31.89 1.71
-2 3 -6 32.2 1.63
2 -3 6 39.19 1.58
2 -3 6 32.55 1.62
2 -3 6 28.85 1.4
2 -3 6 36.35 1.81
2 -3 6 33.28 1.41
-2 3 -6 30.36 1.86
2 -3 6 29.85 1.58
-2 3 -6 26.44 1.45
2 -3 6 29.24 1.31
2 -3 6 32.95 1.66
-2 3 -6 26.28 1.67
2 -3 7 32.76 1.46
2 -3 7 25.43 1.56
-2 3 -7 27.1 1.54
2 -3 7 30.55 1.58
2 -3 7 33.89 1.71
2 -3 7 25.83 1.36
2 -3 7 29.86 1.63
2 -3 7 31.7 1.43
2 -3 7 28.25 1.64
-2 3 -7 24.15 1.75
-2 3 -7 21.07 1.35
2 -3 7 25.04 1.52
2 -3 7 27.29 1.31
2 -3 7 25.78 1.57
-2 3 -7 16.89 1.49
2 -3 8 2.43 0.58
2 -3 8 2.72 0.47
-2 3 -8 2.46 0.56
2 -3 8 3.02 0.46
2 -3 8 2.12 0.55
2 -3 8 2.46 0.49
2 -3 8 3.09 0.57
-2 3 -8 2.26 0.7
2 -3 8 3.22 0.58
-2 3 -8 2.4 0.69
-2 3 -8 3.02 0.59
2 -3 8 2.79 0.61
2 -3 8 2.79 0.6
-2 3 -9 0.46 0.48
-2 3 -9 0.44 0.34
2 -3 9 0.66 0.29
2 -3 9 0.76 0.33
2 -3 9 0.63 0.29
-2 3 -9 0.83 0.48
2 -3 9 0.75 0.29
-2 3 -9 1.17 0.51
2 -3 9 0.26 0.25
-2 3 -10 12.94 1.22
2 -3 10 24.07 1.42
2 -3 10 21.29 1.21
2 -3 10 21.01 1.26
-2 3 -10 16.88 1.6
2 -3 10 25.74 1.45
-2 3 -10 20.12 1.66
-2 3 -10 14.63 1.25
2 -3 10 25.77 1.24
2 -3 11 7.7 0.77
2 -3 11 9.02 0.84
2 -3 11 8.84 0.81
2 -3 11 8.18 0.74
-2 3 -11 7.11 0.95
2 -3 11 9.73 0.75
2 -3 12 14.37 0.84
2 -3 12 13.16 0.91
2 -3 12 13.61 0.92
2 -3 12 11.93 0.88
-2 3 -13 3.04 0.54
2 -3 13 3.29 0.42
2 -3 13 3.28 0.41
2 -3 13 4.11 0.42
2 -3 14 1.98 0.26
-2 2 13 0.64 0.27
-2 2 13 4.09 0.55
-2 2 12 9.92 0.8
-2 2 12 6.28 0.7
-2 2 11 10.24 0.85
-2 2 11 9.58 0.9
-2 2 10 6.5 0.79
2 -2 -10 7.84 1.17
-2 2 10 9.91 0.89
-2 2 10 10.68 0.88
-2 2 10 8.39 0.88
2 -2 -9 52.31 2.72
2 -2 -9 62.82 2.68
-2 2 9 62.63 2.12
-2 2 9 53.37 2.17
-2 2 9 64.06 2.03
-2 2 9 58.84 2.18
-2 2 8 122.19 3.21
-2 2 8 127.8 2.93
-2 2 8 126.11 3.09
2 -2 -7 26.08 1.7
2 -2 -7 26.43 1.63
2 -2 -7 20.08 1.6
-2 2 7 21.38 1.3
-2 2 7 17.68 1.22
-2 2 7 20.29 1.12
-2 2 7 20.49 1.07
-2 2 7 14.89 0.85
-2 2 7 16.27 1.12
2 -2 -6 16.14 1.53
-2 2 6 16.48 0.85
2 -2 -5 1.8 0.54
2 -2 -5 1.51 0.55
2 -2 -5 1.66 0.34
-2 2 5 3.07 0.36
2 -2 -5 1.74 0.47
2 -2 -4 26.1 1.66
2 -2 -4 26.3 1.02
2 -2 -4 28.07 1.56
-2 2 4 27.7 0.96
2 -2 -4 29.94 1.54
2 -2 -3 4.64 0.42
2 -2 -3 4.34 0.42
2 -2 -3 4.48 0.77
2 -2 -3 5.19 0.43
2 -2 -3 4.2 0.43
2 -2 -3 4.13 0.59
2 -2 -3 4.68 0.42
-2 2 2 161.86 2.59
2 -2 -2 150.85 2.47
2 -2 -2 153.03 3.94
2 -2 -2 147.69 2.41
2 -2 -2 136.51 2.19
2 -2 -2 152.68 2.42
-2 2 2 162.07 2.45
2 -2 -2 162.1 2.56
-2 2 2 146.94 2.03
2 -2 -2 155.84 3.02
-2 2 1 18.81 0.89
-2 2 1 16.92 0.76
2 -2 -1 20.22 1.05
2 -2 -1 24.57 1.14
2 -2 -1 21.35 0.54
2 -2 -1 26.43 1.64
2 -2 -1 20.25 0.83
2 -2 -1 18.4 0.86
-2 2 1 19.38 0.85
2 -2 -1 27.27 1.09
2 -2 -1 24.12 0.99
2 -2 -1 23.94 0.97
2 -2 -1 24.22 0.97
-2 2 0 100.21 2.11
2 -2 0 90.46 2.14
2 -2 0 82.39 1.25
2 -2 0 101.3 2.03
2 -2 0 123.75 3.08
2 -2 0 78.2 1.71
2 -2 0 87.16 1.75
-2 2 0 92.08 1.86
2 -2 0 112.45 2.24
-2 2 0 84.2 1.7
2 -2 0 102.27 2.02
2 -2 0 106.65 2.1
2 -2 0 96.34 2.14
-2 2 -1 2.71 0.42
2 -2 1 3.15 0.46
2 -2 1 2.03 0.23
2 -2 1 2.28 0.34
-2 2 -1 2.65 0.37
2 -2 1 2.94 0.51
2 -2 1 3.73 0.64
2 -2 1 1.68 0.3
2 -2 1 2.82 0.41
2 -2 1 2.71 0.41
2 -2 1 2.67 0.4
-2 2 -2 22.77 1.13
2 -2 2 23.27 1.24
2 -2 2 15.36 0.65
2 -2 2 19.37 0.97
2 -2 2 18.57 0.86
-2 2 -2 22.42 1.05
2 -2 2 21.68 1.11
2 -2 2 18.53 0.97
2 -2 2 19.11 0.97
2 -2 2 19.39 1
-2 2 -3 55.89 1.76
2 -2 3 54.57 1.67
2 -2 3 64.22 1.89
2 -2 3 45.12 1.21
2 -2 3 50.99 1.57
2 -2 3 56.25 1.58
-2 2 -3 53.87 1.7
2 -2 3 59.49 1.83
-2 2 -3 41.04 1.16
2 -2 3 54.5 1.67
2 -2 3 52.88 1.71
2 -2 4 241.67 3.01
-2 2 -4 253.67 3.97
2 -2 4 251.29 3.89
2 -2 4 262.41 3.91
2 -2 4 271.32 3.83
2 -2 4 248.6 3.65
2 -2 4 257.18 3.66
-2 2 -5 2.84 0.42
2 -2 5 3.72 0.54
-2 2 -5 4.22 0.57
2 -2 5 3.59 0.55
2 -2 5 4.65 0.53
2 -2 5 3.91 0.43
2 -2 5 3.72 0.52
2 -2 5 3.41 0.53
-2 2 -6 22.15 1.19
2 -2 6 30.95 1.29
2 -2 6 23.66 1.15
2 -2 6 23.65 1.21
2 -2 6 24.05 1.27
-2 2 -6 17.11 1.12
-2 2 -6 25.64 1.55
2 -2 6 23.99 1.21
2 -2 6 25.57 1.26
-2 2 -7 7.87 0.85
2 -2 7 9.2 0.8
-2 2 -7 5.54 0.68
2 -2 7 9.8 0.8
2 -2 7 10.18 0.87
2 -2 7 11.01 0.81
2 -2 7 10.24 0.79
2 -2 7 9.68 0.86
2 -2 7 7.68 0.68
-2 2 -7 8.64 1.01
2 -2 7 9.69 0.76
2 -2 7 8.93 0.78
2 -2 7 8.23 0.8
2 -2 8 1.71 0.43
-2 2 -8 0.48 0.5
2 -2 8 1.19 0.39
2 -2 8 1.05 0.35
2 -2 8 1.22 0.32
2 -2 8 1.34 0.42
2 -2 8 1.42 0.35
-2 2 -8 0.55 0.37
-2 2 -8 0.91 0.61
2 -2 8 1.25 0.37
-2 2 -8 0.64 0.48
-2 2 -8 0.26 0.28
2 -2 8 0.83 0.33
2 -2 9 19.59 1.24
-2 2 -9 13.98 1.45
2 -2 9 15.66 1.07
-2 2 -9 17.16 1.41
2 -2 9 18.42 1.23
2 -2 9 13.57 0.95
-2 2 -9 14.61 1.32
2 -2 9 19.9 1.1
2 -2 9 14.56 1.03
-2 2 -10 19.37 1.58
2 -2 10 18.83 1.2
2 -2 10 19.51 1.27
2 -2 10 23.9 1.39
-2 2 -10 15.37 1.39
2 -2 10 25.84 1.26
-2 2 -10 17.02 1.53
-2 2 -11 0.67 0.41
2 -2 11 0.4 0.24
-2 2 -11 -0.17 0.42
2 -2 11 0.22 0.26
2 -2 11 0.4 0.31
2 -2 11 -0.08 0.27
-2 2 -11 0.13 0.35
2 -2 12 4.52 0.52
2 -2 12 3.68 0.55
2 -2 12 3.61 0.54
2 -2 13 1.59 0.35
2 -2 13 2.15 0.35
2 -2 14 1.7 0.27
-2 2 -14 1.46 0.44
-2 1 14 1.25 0.36
-2 1 14 0.94 0.3
-2 1 13 2.25 0.42
-2 1 13 1.52 0.47
-2 1 12 7.37 0.9
-2 1 12 6.25 0.67
-2 1 11 0.45 0.33
-2 1 11 1.18 0.4
-2 1 11 1.43 0.5
-2 1 11 1.12 0.43
-2 1 11 1.03 0.35
-2 1 10 13.39 0.91
-2 1 10 12.24 1.14
2 -1 -10 15.38 1.22
-2 1 10 12.63 0.99
-2 1 10 13.29 0.97
-2 1 10 11.96 1.02
-2 1 9 11.09 0.79
-2 1 9 15.01 1
2 -1 -9 19.46 1.47
2 -1 -9 13.97 1.14
-2 1 9 14.01 1.18
-2 1 9 15.52 1.04
-2 1 9 10.7 0.81
-2 1 9 11.75 1.07
-2 1 8 0.11 0.31
-2 1 8 0.45 0.25
-2 1 8 0.74 0.24
-2 1 8 0.93 0.28
2 -1 -8 0.82 0.42
-2 1 8 0.75 0.32
2 -1 -8 1.03 0.39
-2 1 8 0.75 0.27
2 -1 -8 0.65 0.33
2 -1 -7 10.22 1
2 -1 -7 10.03 0.8
2 -1 -7 7.94 0.71
-2 1 7 9.35 0.64
2 -1 -6 0.42 0.26
2 -1 -6 0.37 0.3
-2 1 6 1.18 0.25
2 -1 -6 0.48 0.25
2 -1 -6 0.35 0.23
2 -1 -5 7.05 0.73
2 -1 -5 5.66 0.54
2 -1 -5 3.79 0.6
-2 1 5 8.39 0.54
2 -1 -5 5.83 0.58
2 -1 -5 6.81 0.63
2 -1 -4 82.56 1.23
2 -1 -4 86.73 2.25
2 -1 -4 69.92 1.68
-2 1 4 91.92 1.69
2 -1 -4 77.11 1.92
2 -1 -4 72.77 1.86
2 -1 -4 81.53 1.24
2 -1 -4 78.94 1.22
2 -1 -4 85.45 1.27
2 -1 -3 157.4 1.87
2 -1 -3 168.6 3.02
2 -1 -3 141.82 2.3
2 -1 -3 96.26 2.76
2 -1 -3 146.86 2.52
-2 1 3 110.7 2.17
-2 1 3 166.22 2.36
2 -1 -3 151.11 1.81
2 -1 -3 147.91 1.78
2 -1 -3 161.4 1.87
2 -1 -3 155.8 2.63
2 -1 -2 23.07 0.75
2 -1 -2 21.86 1.08
2 -1 -2 16.74 1
2 -1 -2 20.89 0.87
2 -1 -2 18.66 0.9
2 -1 -2 21.66 0.98
-2 1 2 19.82 0.87
-2 1 2 23.25 0.82
-2 1 2 24.28 0.99
2 -1 -2 21.74 0.72
2 -1 -2 21.47 0.71
2 -1 -2 22.98 0.74
-2 1 1 55.25 1.3
2 -1 -1 49.49 1.62
2 -1 -1 53.84 1.17
2 -1 -1 53.18 1.18
2 -1 -1 52.26 1.58
2 -1 -1 57.27 1.41
2 -1 -1 43.22 1.33
2 -1 -1 56.82 1.51
-2 1 1 61.99 1.5
2 -1 -1 56.15 1.24
-2 1 1 58.54 1.63
-2 1 1 56.3 1.27
2 -1 -1 55.68 1.21
-2 1 0 199.07 2.45
2 -1 0 203.35 2.37
2 -1 0 202.02 2.38
2 -1 0 215.11 2.51
2 -1 0 207.46 2.97
2 -1 0 196.07 2.64
2 -1 0 205.76 2.69
2 -1 0 209.49 2.79
-2 1 0 215.52 2.82
-2 1 0 186.84 2.31
2 -1 0 204.32 2.44
-2 1 -1 35.64 1.11
2 -1 1 43.83 1.2
2 -1 1 30.74 0.85
2 -1 1 41.51 1.13
2 -1 1 40.39 1.21
2 -1 1 41.54 1.15
2 -1 1 42.33 1.15
2 -1 1 45.97 1.33
2 -1 1 47.6 1.31
-2 1 -1 45.93 1.37
2 -1 1 44.06 1.28
-2 1 -1 38.81 1.1
-2 1 -2 7.48 0.53
2 -1 2 11.57 0.56
2 -1 2 16.2 0.74
2 -1 2 15.32 0.77
2 -1 2 14.44 0.73
2 -1 2 15.7 0.86
-2 1 -2 11.74 0.78
2 -1 2 15.77 0.79
-2 1 -2 9.4 0.6
2 -1 2 14.64 0.76
2 -1 2 14.08 0.73
2 -1 2 13.53 0.73
-2 1 -3 7.72 0.56
2 -1 3 11.64 0.69
2 -1 3 9.98 0.56
2 -1 3 12.85 0.68
2 -1 3 12.52 0.71
-2 1 -3 5.48 0.35
2 -1 3 13.37 0.72
2 -1 3 13.27 0.84
-2 1 -3 11.46 0.85
2 -1 3 12.08 0.68
2 -1 3 12.41 0.69
-2 1 -3 9.2 0.64
-2 1 -4 80.29 1.84
2 -1 4 94.01 1.85
2 -1 4 112.48 2.08
2 -1 4 105.47 2.04
2 -1 4 81.99 1.73
2 -1 4 98.39 1.99
-2 1 -4 73.02 1.42
2 -1 4 115.01 2.59
-2 1 -4 113.2 2.87
2 -1 4 98.46 1.94
2 -1 4 100.46 1.95
-2 1 -4 108.31 2.32
-2 1 -5 2.57 0.39
2 -1 5 3.31 0.42
2 -1 5 3.22 0.37
2 -1 5 3.2 0.41
2 -1 5 3.34 0.4
2 -1 5 2.85 0.4
-2 1 -5 3.29 0.36
-2 1 -5 5.03 0.68
2 -1 5 3.6 0.51
2 -1 5 3.17 0.42
-2 1 -5 4.59 0.59
-2 1 -6 28.85 1.54
2 -1 6 22.79 1.06
2 -1 6 20.57 1.03
2 -1 6 23.45 1.03
2 -1 6 26.62 1.09
-2 1 -6 20.08 0.93
-2 1 -6 30.04 1.64
2 -1 6 22.6 1.05
2 -1 6 22.54 1.02
-2 1 -7 0.4 0.4
2 -1 7 0.4 0.22
-2 1 -7 0.06 0.2
2 -1 7 0.75 0.31
-2 1 -7 0.42 0.4
2 -1 8 28.34 1.36
2 -1 8 25.87 1.32
2 -1 8 22.6 1.31
2 -1 8 24.32 1.33
-2 1 -8 20.79 1.22
2 -1 8 25.71 1.29
-2 1 -8 29.67 1.82
2 -1 8 29.06 1.22
2 -1 8 21.17 1.16
-2 1 -8 36.17 1.91
2 -1 9 55.81 1.96
2 -1 9 47.94 1.81
2 -1 9 59.4 2.08
2 -1 9 57.95 2.1
-2 1 -9 43.54 1.94
2 -1 9 57.85 2.06
-2 1 -9 61.95 2.75
2 -1 9 61.44 1.83
2 -1 10 52.99 1.93
2 -1 10 60.9 2.18
2 -1 10 55.73 2.15
-2 1 -10 62.98 2.94
2 -1 10 61.03 1.88
2 -1 11 12.37 1.02
2 -1 11 11.76 1.01
2 -1 11 13.92 0.91
2 -1 12 8.83 0.7
2 -1 12 7.84 0.78
-2 1 -13 1.71 0.52
2 -1 13 1.83 0.33
2 -1 14 6.25 0.48
-2 0 14 2.32 0.35
-2 0 14 3.3 0.49
-2 0 14 2.54 0.54
-2 0 13 3.33 0.55
-2 0 13 2.54 0.61
-2 0 13 2.21 0.39
2 0 -12 0.88 0.62
-2 0 12 2.19 0.47
-2 0 12 1.43 0.53
-2 0 12 1.03 0.32
2 0 -11 1.23 0.54
-2 0 11 2.13 0.47
-2 0 11 1.9 0.53
-2 0 11 1.17 0.33
-2 0 10 13.15 0.8
-2 0 10 23.38 1.27
2 0 -10 18.22 1.4
-2 0 10 24.27 1.58
2 0 -10 24.35 1.39
2 0 -10 23.8 1.39
-2 0 10 16.84 0.97
-2 0 9 0.88 0.24
-2 0 9 1.76 0.45
-2 0 9 1.22 0.36
-2 0 9 1.11 0.45
2 0 -9 0.94 0.36
-2 0 9 1.21 0.37
-2 0 9 1.39 0.56
2 0 -9 0.71 0.44
2 0 -9 1.02 0.42
2 0 -8 20.13 1.23
2 0 -8 21.2 1.18
2 0 -7 43.45 1.65
2 0 -7 42.46 1.55
-2 0 7 38.73 1.14
2 0 -6 15.22 0.95
2 0 -6 15.75 0.92
-2 0 6 15.55 0.69
2 0 -6 16.42 0.77
2 0 -5 26.77 1.16
2 0 -5 26.73 1.17
2 0 -5 28.28 1
2 0 -4 34.7 0.89
2 0 -4 36.53 1.28
-2 0 4 21.54 0.74
2 0 -4 37.54 1.14
2 0 -4 34.72 0.88
2 0 -4 33.92 0.89
-2 0 4 49.38 1.52
2 0 -4 35.95 1.26
-2 0 4 41.69 0.96
-2 0 4 42.24 1.11
2 0 -3 20.22 0.66
2 0 -3 19.98 0.67
2 0 -3 19.07 0.94
2 0 -3 21.12 0.94
2 0 -3 20.05 0.84
-2 0 3 18.22 0.85
-2 0 3 18.13 0.91
-2 0 3 21.28 0.69
-2 0 3 23.02 0.94
2 0 -3 20.65 0.67
2 0 -2 150.4 1.77
2 0 -2 130.46 2.2
2 0 -2 146.57 2.32
-2 0 2 161.18 2.41
2 0 -2 152.44 1.85
-2 0 2 166.36 2.07
2 0 -2 147.75 1.77
2 0 -2 152.66 1.84
-2 0 2 140.55 2.71
2 0 -2 131.74 2.06
-2 0 2 136.14 2.36
-2 0 2 136.44 2.41
2 0 -1 177.94 2.4
2 0 -1 178.38 2
2 0 -1 159.25 1.47
2 0 -1 179.89 2.1
2 0 -1 194.2 2.63
2 0 -1 166.88 2.16
-2 0 1 212.5 2.71
-2 0 1 170.88 2.6
2 0 -1 179.64 2.03
2 0 -1 181.26 2.55
-2 0 1 207.49 2.76
2 0 -1 180.92 2.04
-2 0 1 186.99 2.02
-2 0 1 188.19 2.36
2 0 0 26.49 0.8
2 0 0 24.34 0.61
2 0 0 30.16 1.09
2 0 0 27.55 0.97
2 0 0 24.04 0.81
-2 0 0 27.89 1
-2 0 0 27.51 1.02
-2 0 0 25.95 0.89
-2 0 0 23.13 0.7
2 0 0 27.28 1.01
2 0 0 27.28 0.82
2 0 0 26.79 0.8
-2 0 0 23.58 0.96
2 0 0 25.73 0.84
2 0 1 9.91 0.6
2 0 1 8.97 0.42
2 0 1 8.69 0.49
2 0 1 9.18 0.5
2 0 1 11.76 0.73
2 0 1 8.64 0.48
-2 0 -1 13.38 0.73
-2 0 -1 13.57 0.74
-2 0 -1 11.89 0.55
2 0 1 9.77 0.64
2 0 1 8.85 0.49
2 0 1 8.6 0.51
-2 0 -1 13.04 0.75
-2 0 -1 12.19 0.64
2 0 2 72.13 1.4
2 0 2 62.72 1.19
2 0 2 71.82 1.42
2 0 2 84.67 1.87
-2 0 -2 75.08 1.61
-2 0 -2 73.93 1.79
2 0 2 79.77 1.69
-2 0 -2 58.52 1.31
2 0 2 72.72 1.4
2 0 2 69.8 1.46
-2 0 -2 69.73 1.77
-2 0 -2 67.15 1.51
2 0 2 68.87 1.55
2 0 3 32.62 0.91
-2 0 -3 37.99 1.4
-2 0 -3 37.79 1.2
2 0 3 40.8 1.33
2 0 3 33.07 1.04
-2 0 -3 42.45 1.45
2 0 3 32.33 0.99
2 0 3 33.23 1.02
2 0 3 33.29 1.01
2 0 3 31.03 1.05
2 0 3 33.55 1.01
2 0 4 22.03 0.85
-2 0 -4 23.68 1.22
-2 0 -4 21.12 0.94
-2 0 -4 25.25 1.24
2 0 4 24.4 1.12
2 0 4 22.9 0.85
2 0 4 23.7 0.86
2 0 4 22.64 0.89
-2 0 -5 9.21 0.88
2 0 5 9.11 0.57
2 0 5 8.34 0.6
-2 0 -5 8.92 0.83
2 0 5 8.82 0.57
2 0 5 9.39 0.57
2 0 6 7.6 0.57
-2 0 -6 9.8 0.8
2 0 6 7.53 0.6
-2 0 -6 11.56 1.03
2 0 6 10.68 0.77
2 0 6 7.86 0.56
2 0 6 7.76 0.57
-2 0 -6 12.55 1.08
2 0 7 4.5 0.58
2 0 7 3.97 0.55
2 0 7 3.28 0.5
-2 0 -7 6.89 0.75
-2 0 -7 7.5 0.92
2 0 7 4.82 0.57
-2 0 -7 9.74 1.06
2 0 8 12.5 0.95
2 0 8 10.58 0.89
2 0 8 11.34 0.93
2 0 8 16.18 1.08
-2 0 -8 15.78 1.39
-2 0 -8 20.11 1.62
2 0 8 11.15 0.74
2 0 9 7.74 0.87
2 0 9 7.94 0.79
2 0 9 8.23 0.8
-2 0 -9 7.35 0.98
-2 0 -9 8.14 1.03
2 0 9 7.62 0.64
2 0 10 2.95 0.54
2 0 10 5.7 0.69
2 0 10 5.91 0.72
2 0 10 7.2 0.63
-2 0 -10 3.54 0.86
2 0 11 1.88 0.44
2 0 11 2.03 0.37
2 0 12 0.45 0.21
-2 0 -13 1.8 0.7
2 0 13 2.32 0.32
-2 -1 15 4.67 0.46
-2 -1 14 3.41 0.48
-2 -1 14 3.66 0.59
-2 -1 13 3.3 0.52
-2 -1 13 3.43 0.63
-2 -1 12 11.7 0.96
-2 -1 12 11.15 1.09
2 1 -12 10.48 1.23
2 1 -11 4.14 0.7
2 1 -11 4.4 0.8
-2 -1 11 4.63 0.63
-2 -1 11 4.44 0.72
-2 -1 10 9.82 0.86
2 1 -10 7.73 1.01
-2 -1 10 9.13 0.8
-2 -1 10 10.1 0.99
2 1 -10 11.92 0.98
2 1 -10 11.63 1.02
2 1 -10 11.04 0.95
2 1 -9 15.84 1.08
-2 -1 9 15.08 1.03
2 1 -9 11.55 1.1
-2 -1 9 14.37 1.03
-2 -1 9 17.5 1.03
-2 -1 9 16.17 1.18
2 1 -9 14.05 1.03
-2 -1 9 14.5 1.09
-2 -1 8 28.97 1.32
2 1 -8 24.29 1.44
-2 -1 8 31.55 1.37
-2 -1 8 27.72 1.7
-2 -1 8 25.01 1.34
2 1 -8 32.24 1.43
2 1 -8 30.65 1.42
-2 -1 8 26.02 1.35
2 1 -7 40.52 1.72
2 1 -7 56.86 1.78
2 1 -7 53.29 1.78
-2 -1 7 34.67 0.97
2 1 -7 55.07 1.51
-2 -1 6 16.62 1
2 1 -6 15.14 0.99
2 1 -6 19.3 1.02
2 1 -6 16.59 1.01
2 1 -6 18.88 0.9
-2 -1 6 18.02 0.96
-2 -1 6 12.57 0.56
2 1 -5 13.56 0.8
2 1 -5 7.42 0.55
2 1 -5 9.78 0.73
-2 -1 5 7.15 0.66
2 1 -5 7.97 0.7
2 1 -5 7.96 0.69
-2 -1 5 6.36 0.52
2 1 -5 8.66 0.62
2 1 -5 7.86 0.55
-2 -1 5 13.27 0.83
-2 -1 5 8.54 0.45
2 1 -5 7.93 0.47
2 1 -4 25.37 1.14
-2 -1 4 30.64 0.89
2 1 -4 27.74 0.97
2 1 -4 42.43 1.25
-2 -1 4 37.77 1.5
2 1 -4 27.67 1.14
2 1 -4 27.43 1.04
-2 -1 4 24.17 0.96
2 1 -4 24.59 1.11
-2 -1 4 28.44 1.23
-2 -1 4 29.22 1.01
2 1 -4 27.54 0.94
2 1 -4 24.33 0.83
-2 -1 4 43.93 1.44
2 1 -4 26.15 0.92
-2 -1 3 107.3 2.28
2 1 -3 73.85 1.81
2 1 -3 68.25 1.43
2 1 -3 70.22 1.73
2 1 -3 66.79 1.43
2 1 -3 74.71 1.84
-2 -1 3 71.03 1.84
2 1 -3 63.79 1.38
-2 -1 3 69.57 1.68
2 1 -3 74.03 1.65
-2 -1 3 81.13 1.72
-2 -1 3 102.44 2.39
2 1 -3 67.73 1.42
-2 -1 3 60.88 1.47
2 1 -2 28.57 0.91
-2 -1 2 24.82 1.19
2 1 -2 29.3 1.12
2 1 -2 19.09 0.76
2 1 -2 29.23 0.91
2 1 -2 25.41 1.05
-2 -1 2 25.27 0.98
-2 -1 2 28.47 1.15
2 1 -2 26.17 1.1
2 1 -2 28.72 1.05
-2 -1 2 35.97 1.4
2 1 -2 28.89 0.9
-2 -1 2 35.29 1.38
2 1 -2 25.54 0.89
-2 -1 2 26.92 0.98
2 1 -1 41.26 1.06
2 1 -1 41.45 1.06
2 1 -1 34.02 1.12
2 1 -1 40.77 1.32
-2 -1 1 34.14 1.34
-2 -1 1 36.19 1.13
2 1 -1 37.18 1.26
-2 -1 1 37.15 1.39
-2 -1 1 32.79 1.19
-2 -1 1 36.31 1.13
2 1 -1 40.73 1.28
2 1 -1 38.21 1.32
2 1 -1 39.92 1.07
-2 -1 1 38.8 1.38
-2 -1 0 13.08 0.83
2 1 0 20.13 0.93
2 1 0 18.74 0.93
-2 -1 0 13.44 0.8
-2 -1 0 15.95 0.77
2 1 0 17.63 0.94
2 1 0 21.15 0.92
-2 -1 0 14.27 0.87
2 1 0 17.48 0.77
2 1 0 17.87 0.74
2 1 0 18.65 0.72
2 1 0 18.53 0.73
-2 -1 0 16.21 0.93
-2 -1 0 15.18 0.71
2 1 1 19.19 0.83
-2 -1 -1 26.59 1.2
2 1 1 21.72 0.83
2 1 1 21.98 0.82
2 1 1 18.21 0.85
2 1 1 21.38 0.97
-2 -1 -1 27.07 1.15
2 1 1 23.68 0.99
-2 -1 -1 26.47 0.99
2 1 1 20.68 0.99
-2 -1 -1 26.38 0.98
2 1 1 24.22 0.98
-2 -1 -1 27.02 1.12
-2 -1 -1 27.05 1.18
-2 -1 -2 3.25 0.46
2 1 2 1.73 0.31
-2 -1 -2 3.38 0.4
-2 -1 -2 3.54 0.52
2 1 2 2.23 0.36
2 1 2 1.57 0.3
-2 -1 -2 3.54 0.51
2 1 2 1.61 0.27
2 1 2 1.77 0.28
2 1 2 1.55 0.28
-2 -1 -2 3.59 0.52
-2 -1 -2 2.91 0.38
-2 -1 -3 21.91 1.06
-2 -1 -3 22.75 1.02
2 1 3 21.13 0.88
2 1 3 20.56 0.92
-2 -1 -3 21.97 1.12
2 1 3 18.71 0.81
2 1 3 19.45 0.8
2 1 3 19.43 0.82
-2 -1 -3 24.13 1.26
-2 -1 -3 24.42 1.22
-2 -1 -3 17.18 0.92
-2 -1 -4 28.61 1.47
-2 -1 -4 25.47 1.28
-2 -1 -4 25.36 1.21
-2 -1 -4 26.1 1.16
2 1 4 25.78 1
2 1 4 21.14 0.96
-2 -1 -4 27.17 1.38
2 1 4 23.35 0.91
2 1 4 25.2 0.93
2 1 4 22.87 0.9
-2 -1 -4 21.25 1.01
-2 -1 -5 0.14 0.33
-2 -1 -5 0.17 0.35
2 1 5 0.37 0.19
2 1 5 0.42 0.18
2 1 5 -0.04 0.27
2 1 5 0.35 0.17
2 1 5 0.26 0.16
-2 -1 -5 0.05 0.24
-2 -1 -5 0.06 0.16
-2 -1 -5 0.25 0.39
2 1 6 5.07 0.63
2 1 6 3.69 0.54
2 1 6 6.36 0.74
-2 -1 -6 9.28 1.01
-2 -1 -6 8.51 0.92
-2 -1 -6 7 0.77
2 1 6 8.32 0.68
2 1 6 7.31 0.7
-2 -1 -6 10.42 1.06
-2 -1 -7 0.52 0.44
2 1 7 0.84 0.36
2 1 7 0.53 0.34
2 1 7 0.94 0.41
2 1 7 0.85 0.32
-2 -1 -7 1.18 0.62
-2 -1 -7 0.63 0.54
2 1 8 9.94 0.91
2 1 8 8.19 0.82
2 1 8 9.77 0.98
2 1 8 10.38 1.04
-2 -1 -8 12.64 1.28
-2 -1 -8 12.7 1.31
-2 -1 -8 15.99 1.51
2 1 9 4.06 0.71
2 1 9 3.89 0.59
2 1 9 3.29 0.59
-2 -1 -9 5.28 0.99
2 1 10 0.78 0.4
2 1 10 0.55 0.32
-2 -1 -10 1.72 0.71
2 1 11 -0.07 0.28
2 1 12 4.72 0.52
-2 -2 15 0.47 0.16
-2 -2 14 9.88 0.69
2 2 -14 3.9 0.79
-2 -2 13 2.32 0.42
-2 -2 13 2.41 0.48
-2 -2 12 0.61 0.28
-2 -2 12 0.46 0.34
-2 -2 12 0.22 0.21
-2 -2 11 2.38 0.47
2 2 -11 2.3 0.64
-2 -2 11 2.09 0.49
-2 -2 11 2.05 0.51
-2 -2 11 1.23 0.33
2 2 -10 9.47 0.92
2 2 -10 5.67 1.01
-2 -2 10 8.73 0.84
-2 -2 10 7.01 0.76
-2 -2 10 9.11 0.69
-2 -2 10 9.35 0.81
-2 -2 10 7.17 0.83
2 2 -10 10.61 1.02
-2 -2 10 9.95 0.77
2 2 -10 9.17 0.86
2 2 -9 11.96 0.95
-2 -2 9 12.52 1.01
-2 -2 9 12.7 0.97
2 2 -9 7.58 0.92
-2 -2 9 16.58 0.96
-2 -2 9 16.81 1.02
-2 -2 9 12.25 1.01
2 2 -9 13.62 1.08
-2 -2 9 15.34 0.99
2 2 -9 7.56 1.07
2 2 -9 12.8 1.01
-2 -2 9 8.28 0.84
2 2 -8 0.9 0.43
-2 -2 8 0.64 0.34
-2 -2 8 0.71 0.43
-2 -2 8 0.8 0.44
-2 -2 8 0.97 0.45
2 2 -8 1.52 0.46
2 2 -8 0.89 0.32
-2 -2 8 0.83 0.4
2 2 -8 1.17 0.41
2 2 -8 0.81 0.46
-2 -2 8 0.29 0.42
2 2 -7 13.5 0.87
2 2 -7 12.83 1.04
-2 -2 7 16.11 1.09
-2 -2 7 16.43 1.04
2 2 -7 10.29 0.92
-2 -2 7 11.98 1.16
-2 -2 7 19.79 1.1
-2 -2 7 21.42 1.14
2 2 -7 22 1.57
2 2 -7 15.38 1.11
-2 -2 7 24.56 1.28
-2 -2 7 26.87 1.4
2 2 -7 14.93 1.06
-2 -2 7 9.74 0.88
2 2 -7 13.19 0.94
2 2 -6 39.19 1.36
2 2 -6 39.05 1.66
-2 -2 6 39.41 1.51
2 2 -6 27.87 1.27
2 2 -6 30.73 1.47
-2 -2 6 49.75 1.65
2 2 -6 66.58 2.47
-2 -2 6 32.79 1.62
2 2 -6 49.32 1.87
2 2 -6 46.23 1.78
2 2 -6 46.71 1.31
2 2 -6 29.36 1.28
-2 -2 6 66.43 2.17
-2 -2 6 24.77 1.14
-2 -2 6 23.7 1.15
2 2 -5 6.1 0.53
2 2 -5 5.06 0.61
2 2 -5 5.02 0.59
2 2 -5 4.97 0.54
2 2 -5 9.82 0.96
-2 -2 5 4.6 0.55
2 2 -5 5.07 0.55
2 2 -5 7.84 0.8
2 2 -5 6.67 0.74
-2 -2 5 4.57 0.57
2 2 -5 7.27 0.56
-2 -2 5 7.02 0.76
-2 -2 5 11.33 0.94
-2 -2 5 5.25 0.65
2 2 -4 21.35 0.88
2 2 -4 11.4 0.91
-2 -2 4 26.56 1.36
2 2 -4 14.12 0.92
2 2 -4 32.51 1.72
2 2 -4 23.77 1.35
-2 -2 4 15.1 1
2 2 -4 20.97 1.3
2 2 -4 24.89 0.97
-2 -2 4 27.15 1.38
2 2 -4 21.25 1.06
2 2 -4 21.04 1.04
-2 -2 4 33.61 1.55
-2 -2 4 17.41 1
-2 -2 4 16.46 1.04
2 2 -3 12.96 0.85
-2 -2 3 20.05 1.24
2 2 -3 18.77 1.19
-2 -2 3 11.24 0.87
2 2 -3 15.43 1.09
2 2 -3 17.84 0.85
-2 -2 3 18.81 1.23
2 2 -3 13.96 0.82
-2 -2 3 18.71 1.14
2 2 -3 14.52 0.81
-2 -2 3 13.4 0.9
-2 -2 2 99.99 2.55
2 2 -2 112.76 2.7
-2 -2 2 75.32 2.1
2 2 -2 96.28 2.5
2 2 -2 128.42 2.22
-2 -2 2 84.8 2.6
2 2 -2 101.72 2.15
-2 -2 2 102.61 2.76
-2 -2 2 86.41 2.2
2 2 -2 114.31 2.19
-2 -2 1 207.89 3.32
2 2 -1 236.96 3.84
-2 -2 1 219.63 3.63
2 2 -1 208.01 2.97
2 2 -1 199.68 3.55
2 2 -1 231.87 3.04
-2 -2 1 216.95 4.12
2 2 -1 208.62 2.88
-2 -2 1 229.42 3.8
2 2 -1 205.57 2.87
-2 -2 1 221.45 3.98
-2 -2 0 153.96 2.91
2 2 0 162.45 2.55
2 2 0 159.27 2.61
-2 -2 0 146 2.94
2 2 0 147.73 3.08
2 2 0 150.47 3.08
2 2 0 158.69 2.56
-2 -2 0 163.49 3.59
-2 -2 0 158.16 3.04
-2 -2 0 155.03 3.32
-2 -2 -1 4.52 0.68
-2 -2 -1 3.95 0.62
2 2 1 5.2 0.5
2 2 1 5.02 0.64
2 2 1 3.24 0.52
2 2 1 6.25 0.6
-2 -2 -1 4.58 0.73
2 2 1 4.99 0.48
2 2 1 5.21 0.49
-2 -2 -1 5.07 0.62
-2 -2 -1 4.52 0.55
-2 -2 -2 6.98 0.81
-2 -2 -2 7.1 0.74
2 2 2 8.62 0.7
-2 -2 -2 7.46 0.87
2 2 2 7.74 0.61
2 2 2 8 0.61
2 2 2 6.94 0.6
-2 -2 -2 7.87 0.77
-2 -2 -2 6.59 0.67
2 2 3 24.25 1.13
2 2 3 22.46 1.18
-2 -2 -3 27.02 1.43
2 2 3 20.19 1.15
-2 -2 -3 28.84 1.61
2 2 3 30.39 1.32
2 2 3 23.2 1.06
2 2 3 22.59 1.04
2 2 3 19.84 1.05
-2 -2 -3 32 1.56
-2 -2 -3 32.36 1.64
-2 -2 -3 23.02 1.29
2 2 4 5.54 0.62
-2 -2 -4 4.23 0.76
2 2 4 4.37 0.55
2 2 4 4.51 0.61
-2 -2 -4 4.1 0.74
-2 -2 -4 2.76 0.58
2 2 4 3.69 0.61
-2 -2 -4 3.87 0.68
-2 -2 -4 3.44 0.59
2 2 4 5.79 0.64
-2 -2 -4 5.77 0.75
2 2 5 7.7 0.82
2 2 5 7.79 0.77
2 2 5 5.83 0.66
2 2 5 8.56 0.85
-2 -2 -5 8.16 0.88
2 2 5 5.64 0.72
-2 -2 -5 7.87 0.92
-2 -2 -5 13.03 1.12
2 2 5 7.1 0.73
-2 -2 -5 10.04 1.18
-2 -2 -5 12.71 1.21
2 2 6 44.41 1.96
2 2 6 38.91 1.69
2 2 6 28.57 1.47
-2 -2 -6 42.72 2.3
2 2 6 45.18 1.93
-2 -2 -6 55.2 2.34
-2 -2 -6 51.93 2.42
2 2 7 11.71 1.07
2 2 7 9.66 0.9
2 2 7 11.87 1.04
-2 -2 -7 13.54 1.37
2 2 8 4.45 0.65
2 2 8 6.84 0.84
-2 -2 -8 6.11 1.02
2 2 8 5.6 0.76
2 2 9 1.47 0.47
2 2 9 0.93 0.36
2 2 9 1.01 0.43
2 2 10 0.64 0.36
2 2 10 0.56 0.27
-2 -2 -11 1.74 0.72
2 2 11 18.84 0.99
2 3 -14 0.39 0.29
-2 -3 14 0.4 0.15
-2 -3 13 0.63 0.19
2 3 -13 0.13 0.36
-2 -3 12 0.63 0.25
2 3 -12 1.28 0.46
2 3 -12 1.11 0.58
-2 -3 12 0.55 0.22
-2 -3 11 9.62 0.82
-2 -3 11 9.77 0.69
-2 -3 11 10.78 0.76
2 3 -11 8.75 1.09
-2 -3 11 10.9 0.75
2 3 -10 0.54 0.39
-2 -3 10 1.01 0.33
-2 -3 10 1.26 0.36
-2 -3 10 0.94 0.39
2 3 -10 0.86 0.54
2 3 -10 0.92 0.37
-2 -3 10 1.15 0.35
2 3 -10 1.13 0.43
-2 -3 10 0.89 0.42
2 3 -9 4.11 0.78
-2 -3 9 4.78 0.66
-2 -3 9 5.96 0.68
-2 -3 9 6.88 0.67
-2 -3 9 6.45 0.69
2 3 -9 5.8 0.98
2 3 -9 5.25 0.72
2 3 -9 4.42 0.69
-2 -3 9 7.06 0.72
2 3 -9 4.56 0.61
2 3 -8 1.85 0.49
2 3 -8 1.77 0.52
-2 -3 8 2.59 0.53
-2 -3 8 3 0.52
-2 -3 8 3.57 0.52
-2 -3 8 3.74 0.55
2 3 -8 3.11 0.62
2 3 -8 2.74 0.58
-2 -3 8 2.86 0.53
2 3 -8 3.03 0.55
2 3 -8 2.91 0.49
2 3 -7 14.5 1.17
-2 -3 7 17.46 1.25
-2 -3 7 19.67 1.13
-2 -3 7 24.17 1.25
-2 -3 7 23.13 1.16
2 3 -7 20.23 1.34
2 3 -7 19.04 1.37
-2 -3 7 27.64 1.42
2 3 -7 19.23 1.27
-2 -3 7 7.64 0.78
2 3 -7 17.61 1.11
-2 -3 7 27.78 1.58
2 3 -6 4.96 0.72
-2 -3 6 7.04 0.85
-2 -3 6 7.63 0.74
-2 -3 6 8.99 0.83
-2 -3 6 8.39 0.74
2 3 -6 8.84 0.92
2 3 -6 8.69 0.98
-2 -3 6 9.91 0.95
2 3 -6 8.86 0.89
2 3 -6 7.51 0.78
-2 -3 6 11.75 1.02
-2 -3 6 4.56 0.65
-2 -3 6 4.33 0.65
-2 -3 5 1.43 0.46
-2 -3 5 0.49 0.55
-2 -3 5 1.3 0.47
-2 -3 5 1.37 0.46
2 3 -5 0.73 0.45
2 3 -5 0.96 0.49
-2 -3 5 1.99 0.58
2 3 -5 0.96 0.46
2 3 -5 0.45 0.33
-2 -3 5 1.34 0.55
2 3 -5 0.79 0.27
2 3 -5 0.27 0.3
2 3 -5 0.31 0.3
-2 -3 5 0.9 0.37
-2 -3 5 0.99 0.36
-2 -3 5 1.62 0.52
2 3 -4 5.47 0.66
-2 -3 4 7.57 0.74
-2 -3 4 8.32 0.85
-2 -3 4 7.81 0.75
2 3 -4 8.86 0.91
2 3 -4 9.2 1.09
-2 -3 4 10.29 1.01
2 3 -4 8.26 0.89
2 3 -4 7.85 0.6
-2 -3 4 8.03 0.97
2 3 -4 8.03 0.82
2 3 -4 5.4 0.67
-2 -3 4 11.19 1.04
-2 -3 4 6.2 0.7
-2 -3 4 6.66 0.73
2 3 -3 10.95 0.88
-2 -3 3 13.78 0.93
-2 -3 3 11.9 0.98
-2 -3 3 11.05 0.87
2 3 -3 10.19 1.35
2 3 -3 12.53 0.84
2 3 -3 14.25 1.21
2 3 -3 9.91 1.44
2 3 -3 10.34 1.21
-2 -3 3 12.31 1.12
2 3 -3 14.14 1.16
2 3 -3 15.67 0.88
-2 -3 3 10.96 1.16
2 3 -3 11.66 1.04
-2 -3 3 10.72 0.92
2 3 -3 11.99 0.9
-2 -3 3 12.07 1.1
-2 -3 3 17.07 1.11
-2 -3 3 6.93 1.05
-2 -3 3 15.72 1.11
2 3 -2 29.78 1.34
2 3 -2 28.81 1.36
-2 -3 2 29.18 1.33
-2 -3 2 25.78 1.23
2 3 -2 31.57 1.62
-2 -3 2 27.39 1.43
-2 -3 2 27.51 1.4
-2 -3 2 26.29 1.37
2 3 -2 28.65 2.14
2 3 -2 30.91 1.31
2 3 -2 34.17 1.71
-2 -3 2 24.66 1.48
2 3 -2 34.85 1.98
-2 -3 2 27.76 1.64
2 3 -2 34.24 1.7
2 3 -2 40.77 1.4
-2 -3 2 28.61 1.77
-2 -3 2 35.01 1.82
-2 -3 2 19.92 1.52
-2 -3 2 24.37 1.37
-2 -3 1 16.14 0.98
2 3 -1 22.7 1.15
2 3 -1 20.7 1.44
-2 -3 1 16.5 1.29
2 3 -1 23.14 1.68
-2 -3 1 16.19 1.3
2 3 -1 22.54 1.42
2 3 -1 27.88 1.2
-2 -3 1 19.16 1.5
2 3 -1 18.64 1.29
2 3 -1 19.25 1.12
-2 -3 1 15.37 1.03
-2 -3 1 18.35 1.17
2 3 -1 18.89 1.08
-2 -3 1 15.79 1.07
-2 -3 1 19.53 1.4
-2 -3 1 17.27 1.15
-2 -3 1 15.91 1.12
-2 -3 0 10.81 1.05
2 3 0 12.61 1.11
2 3 0 11.84 0.81
-2 -3 0 12.58 0.92
-2 -3 0 12.53 1.01
-2 -3 0 12.63 0.97
2 3 0 16.9 1.03
2 3 0 17.45 1.29
-2 -3 0 11.9 1.11
2 3 0 16.01 1.45
-2 -3 0 11.37 1.13
2 3 0 15.35 1.18
2 3 0 20.69 1.07
-2 -3 0 13 1.3
2 3 0 14.52 0.98
2 3 0 14.16 0.94
-2 -3 0 13.48 1
-2 -3 0 15.26 1.27
-2 -3 0 10.64 1.03
2 3 1 4.33 0.53
2 3 1 4.5 0.56
-2 -3 -1 4.53 0.66
-2 -3 -1 5.11 0.67
-2 -3 -1 3.59 0.65
-2 -3 -1 4.06 0.67
2 3 1 4.14 0.6
-2 -3 -1 4.91 0.8
2 3 1 4.54 0.91
2 3 1 4.39 0.71
-2 -3 -1 3.14 0.77
2 3 1 6.6 0.67
2 3 1 3.73 0.7
-2 -3 -1 4.74 0.94
2 3 1 4.53 0.59
2 3 1 4.21 0.56
-2 -3 -1 5.33 0.85
-2 -3 -1 3.33 0.69
-2 -3 -1 3.29 0.67
2 3 2 9.51 0.78
-2 -3 -2 12.13 0.99
2 3 2 9.65 0.8
-2 -3 -2 10.26 0.92
-2 -3 -2 10.52 0.88
2 3 2 10.19 0.9
-2 -3 -2 10.71 1.11
2 3 2 7.1 0.73
2 3 2 10.66 1.15
2 3 2 12.51 0.94
-2 -3 -2 10.61 1.31
2 3 2 7.36 0.91
2 3 2 7.82 0.74
-2 -3 -2 8.08 0.92
-2 -3 -2 11.91 1.17
-2 -3 -2 7.56 0.9
2 3 3 0.13 0.21
-2 -3 -3 -0.02 0.29
2 3 3 0.03 0.2
2 3 3 0.19 0.24
-2 -3 -3 -0.01 0.41
-2 -3 -3 0.21 0.56
2 3 3 0.03 0.27
-2 -3 -3 -0.21 0.42
2 3 3 0.23 0.32
-2 -3 -3 0.35 0.49
2 3 4 20.04 1.2
2 3 4 23.93 1.3
2 3 4 24.11 1.34
-2 -3 -4 20.83 1.29
-2 -3 -4 21.23 1.23
2 3 4 19.55 1.25
2 3 4 27.22 1.38
-2 -3 -4 21.46 1.54
2 3 5 19.08 1.17
2 3 5 17.92 1.16
2 3 5 19.35 1.23
-2 -3 -5 13.86 1.04
2 3 5 13.74 1.07
-2 -3 -5 13.05 1.27
2 3 6 6.5 0.72
2 3 6 6.12 0.72
2 3 6 6.31 0.77
-2 -3 -6 5.38 0.74
2 3 6 4.59 0.64
-2 -3 -6 4.47 0.8
2 3 7 4.94 0.64
-2 -3 -7 4.42 0.7
2 3 7 2.64 0.48
-2 -3 -7 4.39 0.68
2 3 7 4.06 0.64
2 3 8 3.15 0.53
-2 -3 -8 3.06 0.61
2 3 8 4.77 0.59
-2 -3 -9 2.28 0.56
2 3 9 3.14 0.43
2 3 10 1.29 0.28
-2 -3 -10 0.98 0.55
2 4 -12 0.18 0.26
-2 -4 12 0.49 0.18
2 4 -12 -0.12 0.25
2 4 -12 0.24 0.31
-2 -4 12 0.24 0.15
-2 -4 11 2.14 0.33
-2 -4 11 2.04 0.29
2 4 -11 2.11 0.49
2 4 -11 1.94 0.56
-2 -4 11 2.43 0.32
-2 -4 10 2.04 0.37
-2 -4 10 2.16 0.34
-2 -4 10 2.03 0.32
2 4 -10 1.98 0.54
2 4 -10 2.05 0.66
2 4 -10 1.19 0.32
-2 -4 10 2.7 0.36
-2 -4 9 1.18 0.34
-2 -4 9 1.37 0.36
-2 -4 9 1.5 0.34
-2 -4 9 1.28 0.3
2 4 -9 1.43 0.53
2 4 -9 1.3 0.6
2 4 -9 0.94 0.35
-2 -4 9 1.58 0.35
-2 -4 8 2.5 0.48
-2 -4 8 2.09 0.43
-2 -4 8 3.13 0.48
-2 -4 8 2.51 0.37
2 4 -8 2.55 0.7
2 4 -8 2.26 0.72
2 4 -8 1.77 0.43
-2 -4 8 2.85 0.48
2 4 -8 1.83 0.41
2 4 -8 2.3 0.43
-2 -4 7 3.87 0.62
-2 -4 7 4.28 0.56
-2 -4 7 5.54 0.63
-2 -4 7 5.09 0.53
2 4 -7 4.92 0.94
2 4 -7 3.71 0.95
2 4 -7 5.04 0.73
-2 -4 7 5.08 0.65
2 4 -7 4.2 0.64
2 4 -7 4.18 0.56
-2 -4 7 4.49 0.66
-2 -4 6 2.72 0.52
-2 -4 6 1.24 0.42
-2 -4 6 2.44 0.45
-2 -4 6 2.26 0.4
2 4 -6 2.22 0.73
2 4 -6 1.74 0.71
2 4 -6 2.79 0.63
2 4 -6 2.86 0.61
-2 -4 6 2.33 0.53
2 4 -6 2.4 0.51
2 4 -6 2.61 0.49
-2 -4 6 1.48 0.49
-2 -4 6 2.07 0.51
-2 -4 5 2.2 0.54
-2 -4 5 1.22 0.44
-2 -4 5 2.15 0.44
-2 -4 5 2.56 0.55
-2 -4 5 1.8 0.38
2 4 -5 1.5 0.67
2 4 -5 1.02 0.62
2 4 -5 1.32 0.47
2 4 -5 2.01 0.6
-2 -4 5 1.38 0.52
2 4 -5 1.41 0.43
2 4 -5 2.16 0.48
-2 -4 5 1.17 0.46
-2 -4 4 1.24 0.46
-2 -4 4 1.44 0.39
-2 -4 4 1.18 0.5
-2 -4 4 1.29 0.37
2 4 -4 1.25 0.63
2 4 -4 0.95 0.59
2 4 -4 1.8 0.55
2 4 -4 2.53 0.63
-2 -4 4 0.84 0.52
2 4 -4 1.96 0.51
2 4 -4 2.69 0.53
-2 -4 4 1.49 0.53
-2 -4 4 1.21 0.5
-2 -4 3 4.61 0.56
-2 -4 3 2.71 0.61
-2 -4 3 4.38 0.55
2 4 -3 3.03 0.82
2 4 -3 5.32 0.56
2 4 -3 5.18 0.84
2 4 -3 5.97 0.91
-2 -4 3 2.26 0.6
-2 -4 3 2.17 0.7
2 4 -3 5.27 0.77
2 4 -3 5.28 0.58
2 4 -3 6.13 0.8
-2 -4 3 1.7 0.61
-2 -4 2 7.1 0.81
-2 -4 2 5.48 0.85
-2 -4 2 8.3 0.69
2 4 -2 5.66 1.02
2 4 -2 10.44 0.79
2 4 -2 9.28 1.03
2 4 -2 10.87 1.14
-2 -4 2 5.92 0.95
2 4 -2 8.59 0.95
2 4 -2 9.16 0.75
2 4 -2 10.97 1.01
-2 -4 2 8.21 0.94
-2 -4 2 4.25 0.95
-2 -4 1 4.64 0.66
-2 -4 1 2.46 0.65
-2 -4 1 3.52 0.53
-2 -4 1 2.09 0.73
2 4 -1 5.84 0.63
2 4 -1 5.58 0.84
2 4 -1 3.91 0.69
-2 -4 1 3.26 0.68
2 4 -1 5.55 0.77
-2 -4 1 1.95 0.73
2 4 -1 5.09 0.59
2 4 -1 4.62 0.73
-2 -4 0 5.88 0.73
-2 -4 0 1.05 0.56
2 4 0 5.37 0.64
2 4 0 4.91 0.8
2 4 0 4.18 0.69
-2 -4 0 2.79 0.79
2 4 0 5.29 0.61
2 4 0 4.39 0.74
-2 -4 0 3.76 0.81
-2 -4 0 3.87 0.74
-2 -4 -1 6.06 0.74
-2 -4 -1 2.35 0.69
2 4 1 5.69 0.66
2 4 1 5.1 0.79
-2 -4 -1 3.3 0.76
-2 -4 -1 4.14 0.76
2 4 1 5.38 0.63
2 4 1 4.03 0.66
-2 -4 -1 3.95 0.78
2 4 2 1.9 0.39
-2 -4 -2 1.43 0.48
2 4 2 2.58 0.5
2 4 2 2.01 0.51
-2 -4 -2 1.04 0.6
2 4 2 2.18 0.52
-2 -4 -2 2.1 0.54
2 4 3 1.21 0.32
-2 -4 -3 1.01 0.46
2 4 3 1.31 0.41
-2 -4 -3 0.85 0.58
2 4 3 1.55 0.44
2 4 4 6.41 0.63
-2 -4 -4 6.26 0.72
2 4 4 7.27 0.7
-2 -4 -4 5.42 0.83
2 4 5 0.8 0.28
-2 -4 -5 0.84 0.43
2 4 5 0.41 0.27
-2 -4 -5 0.82 0.5
-2 -4 -6 0.99 0.41
2 4 6 0.36 0.19
2 4 6 0.54 0.23
-2 -4 -6 0.25 0.43
-2 -4 -7 5.56 0.68
2 4 7 6.41 0.45
2 5 -10 1.53 0.28
2 5 -10 1.2 0.27
-2 -5 10 1.82 0.19
-2 -5 9 0.38 0.17
2 5 -9 0.19 0.22
2 5 -9 0.22 0.23
-2 -5 9 0.4 0.15
-2 -5 8 0.34 0.19
-2 -5 8 0.27 0.17
2 5 -8 0.38 0.29
2 5 -8 0.31 0.27
2 5 -8 0.41 0.21
-2 -5 8 0.33 0.16
-2 -5 7 3.05 0.38
-2 -5 7 3.15 0.34
2 5 -7 2.87 0.52
2 5 -7 2.1 0.46
2 5 -7 2.57 0.39
-2 -5 7 3.62 0.38
2 5 -7 2.95 0.36
2 5 -6 0.29 0.21
-2 -5 6 0.19 0.22
2 5 -6 0.29 0.31
2 5 -6 0.3 0.27
2 5 -6 -0.1 0.23
-2 -5 6 0.22 0.21
-2 -5 6 0.2 0.17
-2 -5 5 9.09 0.61
2 5 -5 6.47 0.79
2 5 -5 5.65 0.66
2 5 -5 7.42 0.72
-2 -5 5 8.47 0.64
2 5 -5 7.49 0.65
-2 -5 5 4.65 0.49
-2 -5 4 3.36 0.44
2 5 -4 3.16 0.58
2 5 -4 3.61 0.56
-2 -5 4 2.2 0.43
2 5 -4 4.41 0.53
-2 -5 4 1.24 0.34
-2 -5 3 5.16 0.51
2 5 -3 3.01 0.52
2 5 -3 6.28 0.69
-2 -5 3 3.51 0.51
2 5 -3 6.41 0.64
-2 -5 3 3.14 0.5
-2 -5 2 2.07 0.38
2 5 -2 1.89 0.31
2 5 -2 2.9 0.5
-2 -5 2 1.23 0.39
2 5 -2 2.7 0.45
-2 -5 2 1.48 0.41
2 5 -1 1.5 0.37
-2 -5 1 1.66 0.34
-2 -5 1 1.56 0.36
2 5 -1 1.63 0.3
2 5 -1 1.7 0.4
-2 -5 1 1.3 0.39
-2 -5 1 1.2 0.39
-2 -5 0 6.1 0.53
2 5 0 6.81 0.54
2 5 0 6.19 0.63
-2 -5 0 5.46 0.61
2 5 0 6.06 0.62
-2 -5 0 4.31 0.6
-2 -5 -1 10.57 0.64
-2 -5 -1 4.43 0.56
-2 -5 -1 6.25 0.67
2 5 1 13.74 0.74
2 5 1 11.42 0.78
-2 -5 -1 8.68 0.71
2 5 1 10.31 0.72
2 5 2 0.8 0.26
-2 -5 -2 0.48 0.27
-2 -5 -2 0.11 0.3
2 5 2 0.36 0.19
2 5 2 0.14 0.21
-2 -5 -2 0.46 0.28
-2 -5 -2 0.17 0.29
-2 -5 -3 1.04 0.3
2 5 3 2.51 0.32
-2 -5 -3 3.09 0.43
-2 -5 -3 1.29 0.37
-2 -5 -4 0.31 0.22
3 -6 -4 4.31 0.53
3 -6 -4 4.26 0.5
3 -6 -3 0.88 0.31
3 -6 -3 0.49 0.28
-3 6 3 0.42 0.18
-3 6 3 0.44 0.16
3 -6 -2 5.31 0.61
3 -6 -2 4.78 0.58
-3 6 2 6.43 0.6
3 -6 -2 3.81 0.46
-3 6 2 6.24 0.57
-3 6 2 5.57 0.47
3 -6 -1 11.22 0.89
3 -6 -1 10.29 0.86
-3 6 1 12.82 0.87
3 -6 -1 9.55 0.72
-3 6 1 10.67 0.76
-3 6 1 9.85 0.66
-3 6 0 0.02 0.12
3 -6 0 0.17 0.27
3 -6 0 0.02 0.26
-3 6 0 0.08 0.18
3 -6 0 0.22 0.2
-3 6 0 0.02 0.17
-3 6 0 0 0.16
3 -6 1 1.9 0.43
3 -6 1 2.46 0.46
-3 6 -1 2.42 0.42
3 -6 1 1.98 0.38
-3 6 -1 2.22 0.39
-3 6 -1 2.48 0.37
-3 6 -1 2 0.35
3 -6 2 8.51 0.75
3 -6 2 9.26 0.79
-3 6 -2 10.58 0.8
3 -6 2 9.26 0.74
-3 6 -2 9.85 0.75
-3 6 -2 9.09 0.68
-3 6 -2 9.29 0.7
3 -6 3 5.96 0.59
3 -6 3 6.96 0.66
-3 6 -3 5.62 0.57
3 -6 3 6.67 0.63
-3 6 -3 4.95 0.52
-3 6 -3 5.07 0.51
-3 6 -3 5.83 0.58
3 -6 4 3.66 0.43
3 -6 4 3.64 0.47
-3 6 -4 3.92 0.46
3 -6 4 3.71 0.47
-3 6 -4 3.36 0.41
-3 6 -4 4 0.45
-3 6 -4 4.4 0.51
3 -6 5 10.32 0.63
3 -6 5 10.31 0.71
-3 6 -5 7.1 0.55
3 -6 5 11.69 0.74
-3 6 -5 6.32 0.51
-3 6 -5 8.81 0.64
-3 6 -5 6.36 0.53
-3 6 -5 9.28 0.69
3 -6 6 8.1 0.59
-3 6 -6 6.18 0.54
3 -6 6 9.01 0.61
-3 6 -6 6.12 0.51
-3 6 -6 5.25 0.48
3 -6 7 5.06 0.41
-3 6 -7 3.55 0.38
3 -6 7 4.8 0.41
-3 6 -7 2.89 0.36
-3 6 -7 3 0.38
-3 6 -8 0.15 0.13
3 -6 8 0.39 0.14
3 -6 8 0.36 0.14
-3 6 -8 0.16 0.13
-3 6 -8 0.13 0.15
-3 5 8 2.29 0.3
3 -5 -7 0.73 0.41
-3 5 7 0.73 0.23
3 -5 -6 4.8 0.73
-3 5 6 8.6 0.68
3 -5 -5 3.98 0.71
-3 5 5 5.94 0.71
-3 5 5 6.08 0.61
3 -5 -4 17.61 1.38
-3 5 4 20.2 1.32
-3 5 4 20.39 1.28
-3 5 4 19.47 1.11
3 -5 -3 3.85 0.76
-3 5 3 5.15 0.72
-3 5 3 5.14 0.7
-3 5 3 5.24 0.62
-3 5 2 1.15 0.35
3 -5 -2 2.04 0.6
-3 5 2 1.55 0.47
3 -5 -2 1.47 0.44
-3 5 2 1.72 0.46
-3 5 2 1.62 0.39
3 -5 -1 2.99 0.68
-3 5 1 3.24 0.61
3 -5 -1 2.69 0.57
-3 5 1 3.05 0.5
-3 5 1 3.65 0.6
-3 5 1 3.37 0.56
-3 5 1 3.71 0.6
3 -5 0 9.01 1.03
3 -5 0 8.52 1.04
3 -5 0 8.56 0.95
-3 5 0 9.52 0.95
3 -5 0 8.95 0.92
-3 5 0 8.09 0.73
-3 5 0 8.11 0.87
-3 5 0 7.06 0.81
-3 5 0 8.5 0.88
-3 5 0 7.89 0.79
-3 5 -1 10.51 0.91
3 -5 1 10.04 1.06
3 -5 1 10.33 1.11
-3 5 -1 12.45 1.06
3 -5 1 10.13 1.02
-3 5 -1 12.03 1.06
3 -5 1 10.23 0.99
-3 5 -1 11.69 0.99
-3 5 -1 9.7 0.92
-3 5 -2 2.25 0.49
3 -5 2 3.31 0.64
3 -5 2 3.3 0.66
-3 5 -2 2.53 0.49
3 -5 2 3.64 0.63
-3 5 -2 2.23 0.48
3 -5 2 2.78 0.56
-3 5 -2 2.38 0.48
-3 5 -2 2.32 0.5
-3 5 -2 1.36 0.38
-3 5 -3 9.45 0.89
-3 5 -3 9.1 0.81
3 -5 3 9.58 1.03
3 -5 3 11.11 1.08
3 -5 3 9.58 0.92
-3 5 -3 10.77 0.97
3 -5 3 10.62 0.99
-3 5 -3 9.54 0.87
-3 5 -3 9.96 0.95
-3 5 -3 9.35 0.91
-3 5 -3 10.92 1
-3 5 -4 3.18 0.53
3 -5 4 4.35 0.67
-3 5 -4 1.81 0.42
3 -5 4 3.88 0.65
-3 5 -4 2.43 0.5
3 -5 4 3.83 0.62
-3 5 -4 2.36 0.46
-3 5 -4 2.66 0.53
-3 5 -4 3.58 0.63
-3 5 -4 3.75 0.64
-3 5 -5 1.01 0.38
3 -5 5 0.81 0.35
-3 5 -5 0.65 0.35
-3 5 -5 0.86 0.32
3 -5 5 0.85 0.37
-3 5 -5 0.6 0.28
3 -5 5 0.7 0.42
-3 5 -5 1.31 0.43
-3 5 -6 11.31 0.92
3 -5 6 11.77 0.93
3 -5 6 11.83 0.96
3 -5 6 8.18 0.63
3 -5 6 11.2 0.95
-3 5 -6 12.85 1.07
-3 5 -6 12.23 1
3 -5 6 8.63 0.6
-3 5 -7 3.25 0.52
3 -5 7 3.38 0.46
3 -5 7 3.43 0.52
3 -5 7 2.44 0.35
3 -5 7 3.49 0.52
-3 5 -7 3.46 0.59
3 -5 7 2.13 0.32
-3 5 -7 2.7 0.5
-3 5 -8 0.38 0.22
-3 5 -8 0.68 0.29
3 -5 8 0.78 0.28
3 -5 8 0.32 0.14
3 -5 8 0.44 0.25
-3 5 -8 0.44 0.3
3 -5 8 0.23 0.15
-3 5 -9 2.63 0.42
3 -5 9 2.94 0.4
3 -5 9 2.02 0.28
3 -5 9 2.66 0.43
3 -5 9 1.45 0.27
-3 5 -9 2.54 0.45
3 -5 9 2.59 0.3
-3 5 -9 1.93 0.33
-3 5 -10 0.27 0.19
3 -5 10 0.22 0.14
3 -5 10 0.12 0.14
3 -5 10 0.3 0.14
-3 5 -10 0.14 0.16
3 -5 10 0.06 0.1
-3 5 -11 0.91 0.22
3 -5 11 2.43 0.25
-3 4 10 3.56 0.42
-3 4 9 3.76 0.48
-3 4 8 13.65 0.93
-3 4 8 15.65 1
-3 4 7 2.4 0.49
-3 4 7 2.42 0.45
-3 4 6 11 1.06
-3 4 6 10.94 0.91
-3 4 6 10.68 0.9
-3 4 5 4.5 0.64
3 -4 -5 2.27 0.55
-3 4 5 4.44 0.74
3 -4 -5 3.53 0.97
-3 4 5 4.5 0.69
-3 4 5 5.74 0.69
-3 4 4 27.2 1.64
-3 4 4 26.15 1.58
-3 4 4 27.45 1.46
-3 4 4 30.25 1.54
-3 4 4 24.99 1.32
3 -4 -3 3.72 0.82
3 -4 -3 2.51 0.62
-3 4 3 2.69 0.6
3 -4 -3 4.03 0.93
3 -4 -3 1.93 0.46
-3 4 3 2.79 0.56
-3 4 3 3.01 0.54
-3 4 3 3.14 0.55
-3 4 2 11.24 1.06
3 -4 -2 10.01 1.19
3 -4 -2 6.19 0.8
3 -4 -2 11.2 1.28
-3 4 2 12.24 1.16
3 -4 -2 5.86 0.76
-3 4 2 8.77 0.9
-3 4 2 11.18 1.03
-3 4 2 11.65 0.99
3 -4 -1 21.81 1.66
3 -4 -1 16.03 1.2
3 -4 -1 25.29 1.82
-3 4 1 22.48 1.53
-3 4 1 18.53 1.19
-3 4 1 21.61 1.4
-3 4 1 20.97 1.32
-3 4 1 23.55 1.45
3 -4 -1 21.31 1.51
-3 4 1 22.88 1.33
-3 4 0 64.63 2.25
3 -4 0 65.79 2.74
3 -4 0 69.1 2.82
-3 4 0 67.64 2.51
3 -4 0 68.46 2.55
-3 4 0 63.94 2.34
-3 4 0 63.06 2.29
-3 4 0 71.13 2.47
3 -4 0 70.46 2.59
3 -4 0 65.55 2.42
3 -4 0 65.24 2.4
3 -4 0 67.14 2.47
3 -4 0 58.37 2.41
-3 4 0 69.28 2.51
-3 4 -1 113.22 3.01
-3 4 -1 117.83 3.08
3 -4 1 116.41 3.58
3 -4 1 120.97 3.63
3 -4 1 116.83 3.52
-3 4 -1 107.36 3.14
3 -4 1 116.59 3.28
-3 4 -1 107.15 2.99
-3 4 -1 111.17 3.06
-3 4 -1 114.97 3.23
3 -4 1 97.87 2.96
3 -4 1 108.59 3.24
3 -4 1 101.5 3.02
3 -4 1 103.59 3.05
3 -4 1 104.97 3.11
-3 4 -1 117.09 3.28
-3 4 -2 175.79 3.81
-3 4 -2 165.67 3.83
3 -4 2 162.23 4.15
3 -4 2 163.56 4.2
3 -4 2 165.14 4.03
-3 4 -2 157.23 3.76
3 -4 2 164.02 3.89
-3 4 -2 160.87 3.61
-3 4 -2 167.5 4.01
3 -4 2 148.59 3.84
3 -4 2 140.1 3.6
3 -4 2 141.06 3.6
3 -4 2 146.98 3.75
-3 4 -2 174.51 4.07
-3 4 -3 53.24 2.13
-3 4 -3 54.36 2.23
3 -4 3 62.51 2.53
3 -4 3 59.37 2.54
3 -4 3 58.92 2.34
-3 4 -3 50.77 2.11
3 -4 3 55.43 2.36
3 -4 3 55.8 2.36
-3 4 -3 49.89 2
-3 4 -3 54.86 2.37
-3 4 -3 54.95 2.32
3 -4 3 51.97 2.21
3 -4 3 52.54 2.21
3 -4 3 54.49 2.29
-3 4 -4 16.2 1.29
3 -4 4 17.02 1.39
3 -4 4 17.72 1.37
-3 4 -4 14.88 1.19
3 -4 4 14.99 1.16
3 -4 4 17.17 1.25
-3 4 -4 15.81 1.33
-3 4 -4 16.17 1.28
-3 4 -5 0.48 0.33
3 -4 5 0.19 0.31
-3 4 -5 0.38 0.32
3 -4 5 0.17 0.34
-3 4 -5 0.51 0.32
3 -4 5 0.25 0.29
3 -4 5 0.42 0.32
-3 4 -5 0.87 0.44
-3 4 -6 16.79 1.27
-3 4 -6 17.96 1.43
3 -4 6 24.44 1.46
3 -4 6 20.96 1.45
3 -4 6 20.18 1.3
3 -4 6 19.65 1.35
-3 4 -6 18.75 1.54
3 -4 6 14.26 0.9
-3 4 -6 13.38 1.21
-3 4 -7 2.62 0.62
-3 4 -7 4.13 0.72
3 -4 7 5.92 0.71
3 -4 7 4.59 0.74
3 -4 7 4.09 0.61
-3 4 -7 2.51 0.55
3 -4 7 3.34 0.49
3 -4 7 3.09 0.48
3 -4 7 4.58 0.73
-3 4 -7 3.25 0.73
3 -4 8 10.85 0.81
-3 4 -8 16.93 1.33
3 -4 8 19.43 1.25
3 -4 8 10.29 0.8
3 -4 8 18.13 1.1
3 -4 8 17.3 1.17
-3 4 -8 14.9 1.37
-3 4 -8 12.53 1.06
3 -4 9 6.18 0.58
-3 4 -9 6.04 0.83
3 -4 9 7.92 0.75
3 -4 9 4.74 0.5
3 -4 9 7.38 0.75
-3 4 -9 4.8 0.75
3 -4 9 3.79 0.5
-3 4 -10 1.1 0.4
3 -4 10 1.84 0.37
-3 4 -10 1.1 0.36
3 -4 10 1.27 0.28
3 -4 10 1.23 0.36
-3 4 -10 1.05 0.37
3 -4 10 1.4 0.28
-3 4 -11 1.65 0.38
3 -4 11 2.3 0.36
-3 4 -11 1.12 0.33
3 -4 11 2.37 0.38
-3 4 -11 1.45 0.35
3 -4 11 2.43 0.3
3 -4 11 1.85 0.28
-3 4 -12 0.17 0.2
3 -4 12 0.71 0.19
3 -4 12 0.71 0.16
-3 4 -12 0.3 0.22
3 -4 12 0.79 0.21
-3 3 11 0.74 0.26
-3 3 10 5.48 0.64
-3 3 10 6.47 0.71
-3 3 9 4.26 0.6
-3 3 9 3.72 0.65
-3 3 8 31.49 1.51
-3 3 8 22.99 1.43
3 -3 -7 4.85 0.9
-3 3 7 6.89 0.79
-3 3 7 6.6 0.72
-3 3 7 5.29 0.77
-3 3 6 24.53 1.36
3 -3 -6 23.07 1.78
3 -3 -6 24.71 1.66
-3 3 6 25.98 1.51
-3 3 6 25.83 1.59
-3 3 6 24.31 1.36
-3 3 6 19.02 1.3
3 -3 -5 7.26 0.99
3 -3 -5 4.88 1.12
3 -3 -5 7.28 0.91
-3 3 5 9.85 1.01
-3 3 5 10.85 1.01
-3 3 5 9.16 0.87
-3 3 5 10.27 0.92
-3 3 5 5.72 0.58
3 -3 -5 8.67 1.06
-3 3 5 7.18 0.85
3 -3 -4 18.83 1.46
3 -3 -4 16.36 1.65
-3 3 4 17.08 1.31
3 -3 -4 16.62 1.27
-3 3 4 18.46 1.34
-3 3 4 17.5 1.27
-3 3 4 18.04 1.16
-3 3 4 12.12 0.79
-3 3 4 18.46 1.24
3 -3 -4 22.03 1.59
-3 3 4 13.55 1.08
3 -3 -3 20.43 1.45
-3 3 3 19.88 1.27
3 -3 -3 19.27 1.74
-3 3 3 18.2 1.38
3 -3 -3 18.22 1.25
-3 3 3 18.94 1.25
-3 3 3 18.76 1.16
-3 3 3 14.8 0.81
3 -3 -3 22.09 1.57
-3 3 3 15.12 1.17
3 -3 -2 20.19 1.38
3 -3 -2 28.03 1.95
-3 3 2 26.57 1.52
3 -3 -2 17.07 1.16
-3 3 2 24.58 1.39
3 -3 -2 20.77 1.09
-3 3 2 24.59 1.31
-3 3 2 20.99 0.93
-3 3 2 26.31 1.46
3 -3 -2 24.34 1.55
-3 3 1 13.4 0.95
3 -3 -1 9.52 0.96
3 -3 -1 12.58 1.32
-3 3 1 14.31 1.1
3 -3 -1 8.38 0.8
3 -3 -1 10.73 0.78
3 -3 -1 12.22 0.95
3 -3 -1 11.41 0.91
-3 3 1 10.97 0.67
3 -3 -1 11.21 0.89
3 -3 -1 11.76 0.92
-3 3 1 13.74 1.05
3 -3 -1 11.88 1.07
-3 3 0 21.34 1.21
3 -3 0 23.22 1.59
3 -3 0 18.5 1.18
3 -3 0 16.72 0.97
-3 3 0 21.71 1.15
-3 3 0 17.89 0.85
3 -3 0 18.42 1.14
3 -3 0 19.48 1.16
3 -3 0 19.38 1.18
3 -3 0 18.92 1.28
-3 3 0 21.07 1.31
-3 3 -1 34.44 1.58
3 -3 1 40.57 1.78
3 -3 1 40.38 2.01
-3 3 -1 28.83 1.11
3 -3 1 45.79 2.1
-3 3 -1 35.69 1.48
3 -3 1 35.68 1.44
3 -3 1 37.63 1.77
3 -3 1 37.8 1.66
3 -3 1 37.18 1.64
3 -3 1 38.52 1.7
-3 3 -1 35.78 1.73
-3 3 -2 20.94 1.3
-3 3 -2 22.16 1.42
3 -3 2 25.44 1.58
3 -3 2 27.34 1.58
-3 3 -2 20.23 1.15
3 -3 2 22.12 1.2
-3 3 -2 22.05 1.47
-3 3 -2 16.69 0.88
3 -3 2 25.24 1.44
3 -3 2 24.2 1.37
3 -3 2 23.34 1.33
3 -3 2 23.77 1.37
3 -3 2 23.95 1.38
-3 3 -2 21.87 1.42
-3 3 -3 3.65 0.61
3 -3 3 4.87 0.73
-3 3 -3 3.87 0.7
3 -3 3 4.57 0.78
3 -3 3 4.82 0.75
3 -3 3 5.44 0.7
3 -3 3 4.42 0.7
-3 3 -3 3.99 0.58
-3 3 -3 4.08 0.72
3 -3 3 4.38 0.63
3 -3 3 5.02 0.71
3 -3 3 4.52 0.68
3 -3 3 4.3 0.68
-3 3 -3 4.03 0.64
-3 3 -4 1.86 0.52
3 -3 4 1.59 0.55
3 -3 4 1.84 0.57
-3 3 -4 1.41 0.59
3 -3 4 1.83 0.55
3 -3 4 1.87 0.5
3 -3 4 2.44 0.54
3 -3 4 1.77 0.54
-3 3 -4 2.72 0.52
-3 3 -4 2.37 0.65
3 -3 4 1.85 0.39
3 -3 4 1.24 0.45
-3 3 -4 2.22 0.49
3 -3 4 2.38 0.55
3 -3 4 2.02 0.49
3 -3 4 1.61 0.5
-3 3 -5 1.49 0.58
3 -3 5 2.07 0.52
3 -3 5 3.39 0.66
-3 3 -5 1.56 0.63
3 -3 5 2.26 0.63
-3 3 -5 1.4 0.44
3 -3 5 3.19 0.6
3 -3 5 2.95 0.57
3 -3 5 1.8 0.4
-3 3 -5 1.71 0.61
-3 3 -5 2.3 0.49
3 -3 5 2.33 0.57
3 -3 5 2.34 0.58
3 -3 5 2.82 0.61
-3 3 -6 4.34 0.67
-3 3 -6 4.67 0.86
3 -3 6 4.72 0.7
3 -3 6 3.57 0.64
3 -3 6 3.62 0.62
-3 3 -6 3.4 0.62
3 -3 6 3.86 0.63
-3 3 -6 4.93 0.71
-3 3 -6 5.48 0.87
3 -3 6 3.74 0.65
3 -3 6 3.66 0.64
3 -3 6 4.49 0.66
3 -3 6 3.62 0.61
3 -3 6 1.96 0.42
-3 3 -7 20.39 1.31
3 -3 7 29.74 1.59
-3 3 -7 22.44 1.7
3 -3 7 30.28 1.61
3 -3 7 27.64 1.44
3 -3 7 16.43 1.04
3 -3 7 17.87 1.08
3 -3 7 28.61 1.59
-3 3 -7 20.81 1.39
-3 3 -7 22.85 1.74
3 -3 8 2.46 0.49
-3 3 -8 0.64 0.43
3 -3 8 2.25 0.49
3 -3 8 1.38 0.37
3 -3 8 1.6 0.4
3 -3 8 1.37 0.45
-3 3 -8 1.45 0.55
-3 3 -8 1.01 0.44
3 -3 8 1.24 0.32
3 -3 9 0.61 0.3
-3 3 -9 0.04 0.34
3 -3 9 0.47 0.35
3 -3 9 0.38 0.27
3 -3 9 0.58 0.33
-3 3 -9 0.79 0.42
3 -3 10 6.53 0.63
-3 3 -10 5.82 0.81
3 -3 10 6.84 0.72
3 -3 10 4.33 0.51
3 -3 10 6.02 0.75
-3 3 -10 6.7 0.83
3 -3 10 7.17 0.63
-3 3 -11 0.45 0.27
3 -3 11 1.23 0.33
-3 3 -11 0.12 0.34
3 -3 11 0.78 0.3
3 -3 11 1.29 0.27
-3 3 -12 0.44 0.29
3 -3 12 1.21 0.28
-3 3 -12 0.57 0.32
3 -3 12 1.32 0.29
3 -3 12 1.17 0.23
3 -3 13 1.79 0.26
-3 3 -13 0.73 0.28
-3 3 -13 0.51 0.27
3 -3 13 1.9 0.23
-3 2 12 0.05 0.23
-3 2 11 5.35 0.72
-3 2 11 6.88 0.71
-3 2 10 6.19 0.83
-3 2 10 7.21 0.75
3 -2 -10 5.69 1.23
-3 2 10 4.89 0.73
3 -2 -9 10.17 1.24
-3 2 9 7.74 0.94
-3 2 9 8.66 0.8
3 -2 -9 9.91 1.39
3 -2 -8 22.56 1.81
3 -2 -8 24.61 1.79
-3 2 8 18.64 1.34
-3 2 8 15.78 1.06
-3 2 8 17 1.13
-3 2 8 11.27 1.06
3 -2 -7 3.4 0.77
-3 2 7 3.69 0.66
3 -2 -7 2.57 0.72
-3 2 7 3.36 0.52
-3 2 7 3.25 0.47
3 -2 -7 2.54 0.67
-3 2 7 2.08 0.66
-3 2 6 0.23 0.26
-3 2 6 0.64 0.51
-3 2 6 0.39 0.27
3 -2 -6 0.47 0.4
3 -2 -6 0.21 0.36
-3 2 6 0.08 0.33
-3 2 6 0.47 0.3
3 -2 -6 0.11 0.31
3 -2 -6 0.17 0.41
3 -2 -5 21.22 1.55
3 -2 -5 14.71 1.02
3 -2 -5 17.99 1.35
-3 2 5 22.8 1.41
-3 2 5 17.13 1.2
-3 2 5 15.67 0.96
-3 2 5 17.08 1.12
-3 2 5 17.91 0.95
3 -2 -5 17.07 1.32
-3 2 5 12.15 1.09
3 -2 -4 54.59 2.34
3 -2 -4 42.96 2.26
3 -2 -4 38.81 1.57
3 -2 -4 47.37 1.99
-3 2 4 48.02 1.53
3 -2 -4 51.46 2.21
3 -2 -3 5.57 0.81
3 -2 -3 4.33 0.77
3 -2 -3 5.09 0.69
3 -2 -3 4.6 0.56
-3 2 3 4.69 0.61
-3 2 3 6.53 0.57
3 -2 -3 5.99 0.77
3 -2 -2 20.14 1.36
3 -2 -2 19.81 1.08
-3 2 2 24.31 1.27
3 -2 -2 23.53 1.11
-3 2 2 24.98 1.12
3 -2 -2 23.19 1.1
3 -2 -2 22.5 1.07
3 -2 -2 23.64 1.12
3 -2 -2 22.65 1.35
3 -2 -1 7.02 0.82
3 -2 -1 6.33 0.66
-3 2 1 4.62 0.55
-3 2 1 5.5 0.65
3 -2 -1 8.13 0.68
3 -2 -1 7.75 0.82
3 -2 -1 7.46 0.64
3 -2 -1 7.39 0.63
3 -2 -1 7.99 0.66
3 -2 -1 8.13 0.84
-3 2 1 4.63 0.54
3 -2 0 72.47 2.44
3 -2 0 56.59 1.92
3 -2 0 67.99 2.01
-3 2 0 71.48 2.16
3 -2 0 75.84 2.07
-3 2 0 59.54 1.9
3 -2 0 71.78 1.97
-3 2 0 62.83 1.91
3 -2 0 71.41 1.95
3 -2 0 73.08 2.01
3 -2 0 75.19 2.32
-3 2 -1 2.73 0.48
3 -2 1 3.91 0.57
3 -2 1 3.81 0.54
-3 2 -1 3.3 0.52
-3 2 -1 2.66 0.49
3 -2 1 4.3 0.53
3 -2 1 2.6 0.53
3 -2 1 4.23 0.51
3 -2 1 3.93 0.5
3 -2 1 3.85 0.5
3 -2 1 4.01 0.6
3 -2 2 24.88 1.33
-3 2 -2 22.68 1.21
3 -2 2 25.1 1.28
3 -2 2 26.47 1.3
3 -2 2 24.42 1.27
-3 2 -2 26.55 1.36
3 -2 2 25.32 1.25
3 -2 2 25.28 1.24
3 -2 2 24.56 1.26
-3 2 -3 17.15 1.08
3 -2 3 20.97 1.15
3 -2 3 19.97 1.2
-3 2 -3 21.79 1.28
3 -2 3 17.48 1.13
3 -2 3 17.43 1.1
3 -2 3 17.19 1.08
3 -2 3 16.92 1.06
3 -2 3 18.9 1.13
3 -2 3 12.13 0.78
3 -2 4 23.24 1.18
-3 2 -4 24.99 1.32
3 -2 4 41.39 1.64
-3 2 -4 37.29 1.72
3 -2 4 37.05 1.77
3 -2 4 37.41 1.62
3 -2 4 36.73 1.57
3 -2 4 36.86 1.56
3 -2 4 38.77 1.63
-3 2 -4 29.24 1.27
3 -2 5 -0.04 0.26
-3 2 -5 0.58 0.31
3 -2 5 0.05 0.3
3 -2 5 0.51 0.34
-3 2 -5 0.06 0.35
3 -2 5 0.15 0.25
-3 2 -5 0.3 0.27
3 -2 5 0.11 0.21
3 -2 5 0.28 0.22
3 -2 5 0.26 0.24
-3 2 -5 0.65 0.4
-3 2 -5 0.54 0.39
3 -2 5 0.11 0.32
3 -2 5 0.26 0.27
3 -2 5 0.47 0.3
3 -2 5 0.24 0.27
3 -2 6 13.15 1.11
-3 2 -6 12.16 1.26
3 -2 6 10.06 0.99
3 -2 6 10.47 0.98
3 -2 6 12.07 0.99
-3 2 -6 12.76 1.26
-3 2 -6 15.85 1.25
3 -2 6 14.35 1.12
3 -2 6 13.62 1.06
3 -2 6 14.32 1.08
3 -2 6 14.64 1.13
-3 2 -6 11.53 0.94
3 -2 7 16.5 1.16
-3 2 -7 10.67 1.1
3 -2 7 12.26 1.07
3 -2 7 12.13 0.99
3 -2 7 7.8 0.74
3 -2 7 13.4 1.05
-3 2 -7 10.4 1.09
-3 2 -7 11.18 1.09
3 -2 7 12.3 0.99
3 -2 7 14.14 1.07
3 -2 7 13.39 1.03
3 -2 7 15.37 1.1
3 -2 7 14.74 1.11
-3 2 -7 8.37 0.9
3 -2 8 5.28 0.68
-3 2 -8 6.22 0.89
3 -2 8 5.63 0.72
-3 2 -8 4.44 0.71
3 -2 8 3.34 0.53
3 -2 8 5.53 0.73
-3 2 -8 5.99 0.85
3 -2 9 13.66 1.05
-3 2 -9 13.94 1.22
3 -2 9 12.75 1.01
3 -2 9 12.16 1.07
-3 2 -9 11.8 1.14
3 -2 9 12.93 0.89
-3 2 -9 11.34 1.04
3 -2 10 7.86 0.76
3 -2 10 9.02 0.85
-3 2 -10 8.12 1.1
3 -2 10 8.67 0.87
3 -2 10 8.95 0.71
3 -2 11 1.72 0.36
3 -2 11 1.72 0.41
-3 2 -11 1.23 0.52
3 -2 11 1.64 0.46
3 -2 11 1.78 0.32
3 -2 12 3.75 0.49
-3 2 -12 3.41 0.64
3 -2 12 4.31 0.42
-3 2 -13 3 0.46
3 -2 13 2.69 0.28
-3 1 14 9.65 0.69
-3 1 13 0.32 0.27
-3 1 12 7.84 0.87
-3 1 11 2.76 0.64
3 -1 -11 4.16 0.83
-3 1 11 4.91 0.62
-3 1 10 28.02 1.68
3 -1 -10 33.71 1.91
3 -1 -9 64.28 2.58
3 -1 -9 64.05 2.51
3 -1 -8 59.22 2.36
-3 1 8 72.16 2.57
-3 1 8 64.08 1.96
-3 1 8 79.75 2.44
3 -1 -8 88.49 3.06
-3 1 8 57.88 1.81
-3 1 7 2.9 0.7
3 -1 -7 6.34 0.79
3 -1 -7 9.36 1.07
-3 1 7 4.19 0.68
-3 1 7 4.98 0.57
-3 1 7 5.76 0.75
-3 1 7 5.1 0.54
3 -1 -7 6.77 0.78
-3 1 6 25.36 1.62
3 -1 -6 44.91 1.81
3 -1 -6 36.52 1.65
-3 1 6 34 1.65
3 -1 -6 49.57 2.12
-3 1 6 40.41 1.4
3 -1 -5 26.67 1.36
3 -1 -5 29.67 1.46
3 -1 -5 32.55 1.75
-3 1 5 35.8 1.32
3 -1 -4 20.9 1.16
3 -1 -4 22.62 1.42
-3 1 4 24.87 1.1
3 -1 -4 22.54 1.25
3 -1 -3 14.37 1.01
-3 1 3 19.57 1.16
-3 1 3 17.97 0.97
3 -1 -3 16.64 0.81
3 -1 -3 16.73 1.2
3 -1 -3 16 0.78
3 -1 -3 16.69 0.8
3 -1 -3 16.44 0.82
3 -1 -3 16.02 1.05
3 -1 -2 92.74 2.49
3 -1 -2 83.31 2.26
-3 1 2 92.1 2.47
-3 1 2 94.6 2.42
3 -1 -2 83.27 1.86
3 -1 -2 84.87 1.84
3 -1 -2 85.28 1.83
3 -1 -2 84.71 1.88
3 -1 -2 83.5 2.31
3 -1 -1 23.47 0.94
3 -1 -1 24.75 1.26
-3 1 1 26.41 1.36
3 -1 -1 25.71 1.29
-3 1 1 22.69 1.3
3 -1 -1 26.44 1.35
3 -1 -1 23.94 1.03
3 -1 -1 22.75 0.99
3 -1 -1 23.31 0.99
3 -1 -1 23.69 1.02
3 -1 0 69.32 1.6
3 -1 0 77.53 2.18
-3 1 0 74.47 2.18
3 -1 0 72.82 2.12
3 -1 0 73.08 1.83
3 -1 0 72.22 1.77
3 -1 0 71.94 1.77
3 -1 0 72.02 1.82
3 -1 0 72.43 2.11
3 -1 1 13.71 0.81
3 -1 1 14.63 0.76
3 -1 1 13.58 0.82
3 -1 1 15.32 1.02
-3 1 -1 16.12 1.04
3 -1 1 14.79 0.99
3 -1 1 13.35 0.79
-3 1 -1 10.23 0.78
3 -1 1 12.45 0.81
3 -1 1 13.73 0.95
3 -1 2 27.75 1.09
3 -1 2 31.24 1.46
-3 1 -2 33.39 1.51
3 -1 2 22.15 1.13
3 -1 2 24.24 1.11
3 -1 2 26.2 1.28
3 -1 2 24.4 1.09
3 -1 2 25.13 1.1
-3 1 -2 26.52 1.26
3 -1 2 25.01 1.13
-3 1 -2 17 0.95
3 -1 3 138.84 2.48
3 -1 3 119.09 2.67
3 -1 3 150.94 3.23
-3 1 -3 154.39 3.33
3 -1 3 135.48 2.69
3 -1 3 138.38 2.67
3 -1 3 140.84 2.68
3 -1 3 130.78 2.75
-3 1 -3 124.61 2.78
3 -1 4 34.04 1.29
-3 1 -4 33.78 1.65
3 -1 4 29.86 1.53
3 -1 4 35.6 1.44
3 -1 4 37.29 1.44
3 -1 4 34.52 1.42
3 -1 4 32.14 1.44
-3 1 -4 27.26 1.39
3 -1 4 27.26 1.2
-3 1 -5 0.59 0.37
3 -1 5 0.62 0.33
3 -1 5 0.35 0.29
3 -1 5 0.52 0.26
3 -1 5 0.89 0.38
-3 1 -5 0.05 0.38
3 -1 5 0.28 0.2
3 -1 5 0.32 0.23
-3 1 -5 0.49 0.38
3 -1 5 0.5 0.34
3 -1 5 0.54 0.28
3 -1 5 0.63 0.28
3 -1 5 0.37 0.21
3 -1 5 0.27 0.23
3 -1 6 13.39 0.98
3 -1 6 11.55 1
3 -1 6 8.01 0.82
3 -1 6 10.24 0.95
-3 1 -6 11.21 1.14
3 -1 6 8.76 0.86
-3 1 -6 13.19 1.1
-3 1 -6 13.11 1.18
3 -1 6 12.34 0.94
3 -1 6 13.39 0.96
3 -1 6 12.78 0.93
3 -1 6 12.12 0.96
-3 1 -6 8.93 0.81
3 -1 7 20.24 1.18
3 -1 7 22.35 1.42
3 -1 7 15.5 1.17
-3 1 -7 22.18 1.6
3 -1 7 20.12 1.25
-3 1 -7 26.41 1.69
3 -1 7 23.26 1.39
3 -1 7 22.46 1.08
-3 1 -7 25.2 1.58
-3 1 -7 17.28 1.17
3 -1 8 7.33 0.82
3 -1 8 6.84 0.75
-3 1 -8 9.88 1.12
3 -1 8 6.35 0.76
-3 1 -8 10.06 1.09
3 -1 8 6.48 0.59
-3 1 -8 10.05 1.11
-3 1 -8 6.08 0.76
3 -1 9 12.43 1.04
3 -1 9 13.06 1.01
-3 1 -9 15.02 1.36
3 -1 9 10.82 1.03
-3 1 -9 12.06 1.17
-3 1 -9 7.95 0.96
3 -1 9 12.25 0.8
-3 1 -9 14.79 1.32
3 -1 10 12.21 0.96
3 -1 10 11.85 0.95
-3 1 -10 12.16 1.21
3 -1 10 11.04 0.73
3 -1 11 0.43 0.25
3 -1 11 0.6 0.29
-3 1 -11 0.84 0.45
3 -1 11 0.38 0.19
-3 1 -12 0.9 0.43
3 -1 12 0.42 0.17
-3 1 -12 0.76 0.52
-3 1 -13 -0.72 0.39
-3 1 -13 0.27 0.36
-3 0 14 1.17 0.33
-3 0 13 0.47 0.32
-3 0 12 4.64 0.52
-3 0 12 7.11 0.84
-3 0 11 2.21 0.57
3 0 -11 1.61 0.59
-3 0 10 11.06 1.06
3 0 -10 12.16 1.15
3 0 -10 12.46 1.16
3 0 -9 19.64 1.45
-3 0 9 12.43 1.09
3 0 -9 14.24 1.2
3 0 -9 14.95 1.22
-3 0 9 9.19 0.99
3 0 -9 16.57 1.18
-3 0 8 6.86 1.01
3 0 -8 7.43 0.95
-3 0 8 10.28 0.96
3 0 -8 11.39 1.05
3 0 -8 13.53 1.16
-3 0 8 9.92 0.97
3 0 -8 12.81 1.06
-3 0 8 6.04 0.56
-3 0 7 17.63 1.44
3 0 -7 17.82 1.32
-3 0 7 17.73 1.21
3 0 -7 24.83 1.44
3 0 -7 25.49 1.49
-3 0 7 20.73 1.32
3 0 -7 24.05 1.39
-3 0 7 16.87 0.9
-3 0 6 7.33 0.82
-3 0 6 8.83 0.98
3 0 -6 8.39 0.88
-3 0 6 7.77 0.8
3 0 -6 10.57 0.95
-3 0 6 11.03 0.89
3 0 -6 11.56 0.99
-3 0 6 10.16 0.68
3 0 -6 9.29 0.75
-3 0 5 0.8 0.26
3 0 -5 0.58 0.37
3 0 -5 0.61 0.36
3 0 -5 0.54 0.52
3 0 -5 0.82 0.3
3 0 -4 42.37 1.73
3 0 -4 45.34 1.71
3 0 -4 52.25 1.91
-3 0 4 59.51 2.04
3 0 -4 37.89 1.25
-3 0 4 60.28 1.72
3 0 -4 38.32 1.23
3 0 -4 44.49 1.58
3 0 -4 38.15 1.23
-3 0 4 32.68 1.19
3 0 -3 69.48 1.64
3 0 -3 80.52 2.29
3 0 -3 71.24 2.17
3 0 -3 66.14 1.98
-3 0 3 82.29 2.25
-3 0 3 67.69 2.13
3 0 -3 68.6 2.09
3 0 -3 66.62 1.64
-3 0 3 82.94 2.4
3 0 -3 72.2 1.67
3 0 -3 70.49 1.97
-3 0 2 2.67 0.51
-3 0 2 0.5 0.36
3 0 -2 1.88 0.41
3 0 -2 1.67 0.44
-3 0 2 0.96 0.35
3 0 -2 2.32 0.49
3 0 -2 2 0.41
3 0 -2 2.65 0.64
3 0 -2 1.79 0.3
3 0 -2 2 0.32
3 0 -2 2.04 0.33
3 0 -1 4.75 0.64
3 0 -1 2.62 0.44
-3 0 1 3.31 0.53
3 0 -1 3.07 0.5
3 0 -1 4.7 0.48
3 0 -1 4.94 0.71
3 0 -1 3.83 0.44
-3 0 1 3.79 0.59
-3 0 1 4.12 0.59
3 0 -1 4.88 0.48
3 0 -1 4.27 0.46
3 0 -1 3.9 0.52
3 0 0 77.85 2.08
3 0 0 83.67 1.84
3 0 0 80.87 1.9
3 0 0 94.04 2.52
-3 0 0 86.06 2.32
3 0 0 93.39 2.39
3 0 0 79.24 1.85
-3 0 0 87.77 2.35
3 0 0 81.69 1.84
-3 0 0 79.62 2.32
3 0 1 19.07 0.92
3 0 1 20.63 1.21
-3 0 -1 22.41 1.19
3 0 1 22.14 1.21
-3 0 -1 22.45 1.22
3 0 1 18.7 0.93
3 0 1 18.78 0.91
-3 0 -1 19.98 1.19
3 0 1 18.36 0.94
3 0 1 16.9 0.98
3 0 2 14.73 1.02
-3 0 -2 14.23 0.99
-3 0 -2 14.58 0.99
3 0 2 16.59 1.01
3 0 2 13.42 0.81
3 0 2 13.66 0.8
3 0 2 14.24 0.81
-3 0 -2 13.34 1.02
3 0 2 13.2 0.82
-3 0 -2 9.76 0.76
3 0 2 11.82 0.83
-3 0 -3 7.96 0.8
3 0 3 5.37 0.73
-3 0 -3 7.92 0.77
3 0 3 4.81 0.57
3 0 3 5.48 0.54
3 0 3 6.17 0.56
3 0 3 5.96 0.55
3 0 3 5.66 0.57
-3 0 -3 7.69 0.84
-3 0 -3 6.6 0.7
3 0 3 4.61 0.54
3 0 4 24.66 1.24
3 0 4 19.4 1.09
3 0 4 24.52 1.4
-3 0 -4 18.44 1.26
3 0 4 12.48 0.94
-3 0 -4 26.62 1.46
3 0 4 20.02 1.36
-3 0 -4 19.14 1.39
-3 0 -4 22.81 1.28
-3 0 -4 16.37 1.08
3 0 4 22.04 1.09
3 0 4 22.81 1.08
3 0 4 23.35 1.1
3 0 4 22.11 1.15
-3 0 -4 25.4 1.49
-3 0 -4 20.74 1.21
3 0 4 16.97 1.01
3 0 5 7.51 0.76
3 0 5 5.77 0.7
3 0 5 3.6 0.52
3 0 5 5.89 0.78
-3 0 -5 5.93 0.78
-3 0 -5 5.46 0.7
-3 0 -5 6.4 0.85
3 0 5 3.81 0.61
-3 0 -5 8.44 0.9
3 0 5 8.27 0.85
-3 0 -5 9.36 1.11
3 0 5 6.68 0.65
3 0 5 7.3 0.67
3 0 5 7.53 0.67
3 0 5 5.85 0.68
-3 0 -5 7.89 0.94
-3 0 -5 6.86 0.79
3 0 6 21.85 1.26
3 0 6 18.38 1.21
3 0 6 14.57 0.99
3 0 6 19.06 1.32
-3 0 -6 19.21 1.42
-3 0 -6 25.19 1.52
3 0 6 20.81 1.26
-3 0 -6 20.34 1.55
-3 0 -6 17.8 1.3
-3 0 -6 24.52 1.63
-3 0 -6 19.52 1.32
3 0 7 3.38 0.57
3 0 7 3.94 0.64
3 0 7 3.02 0.5
3 0 7 3.17 0.63
-3 0 -7 5.95 0.85
-3 0 -7 6.49 0.86
-3 0 -7 6.31 0.95
-3 0 -7 3.93 0.73
-3 0 -7 6.1 0.94
-3 0 -7 4.86 0.75
3 0 8 27.29 1.41
3 0 8 45.57 1.88
3 0 8 37.14 1.6
3 0 8 24.34 1.45
-3 0 -8 49.88 2.2
-3 0 -8 47.91 2.29
-3 0 -8 55.04 2.59
-3 0 -8 33.46 1.93
3 0 9 23.27 1.45
3 0 9 22.58 1.34
3 0 10 26.14 1.35
3 0 10 32.2 1.5
3 0 11 1.71 0.34
-3 0 -11 1.82 0.6
-3 0 -11 2.58 0.66
-3 0 -12 1.24 0.51
-3 0 -12 0.75 0.44
-3 -1 14 1.11 0.35
-3 -1 13 2.36 0.44
-3 -1 12 1.54 0.43
-3 -1 11 3.95 0.53
-3 -1 11 4.15 0.67
3 1 -11 3.77 0.7
-3 -1 10 1.44 0.44
-3 -1 10 3.2 0.5
-3 -1 10 3.27 0.57
3 1 -10 4.9 0.78
3 1 -10 4.48 0.72
-3 -1 10 2.12 0.59
-3 -1 9 0.29 0.35
-3 -1 9 0.27 0.32
-3 -1 9 0.05 0.25
3 1 -9 0.01 0.42
3 1 -9 0.21 0.33
-3 -1 9 0.29 0.42
-3 -1 8 1.27 0.45
-3 -1 8 1.05 0.55
-3 -1 8 2.4 0.47
3 1 -8 2.15 0.65
-3 -1 8 1.71 0.43
3 1 -8 1.58 0.5
3 1 -8 1.65 0.57
-3 -1 8 1.35 0.48
3 1 -8 1.49 0.44
-3 -1 7 12.77 0.98
-3 -1 7 9.43 1.12
3 1 -7 8.81 1.02
-3 -1 7 16.94 1.05
3 1 -7 14.64 1.26
-3 -1 7 11.77 0.95
3 1 -7 11.94 1.07
3 1 -7 11.8 1.12
-3 -1 7 12.8 1.05
3 1 -7 13.02 0.96
-3 -1 6 4.71 0.67
-3 -1 6 4.32 0.79
3 1 -6 5 0.75
-3 -1 6 6.45 0.75
3 1 -6 5.86 0.72
3 1 -6 6.36 0.8
3 1 -6 5.98 0.82
-3 -1 6 4.85 0.71
3 1 -6 7.07 0.74
-3 -1 5 7.21 0.81
-3 -1 5 11.57 0.92
3 1 -5 6.63 0.6
-3 -1 5 10.24 1.03
3 1 -5 8.07 0.92
-3 -1 5 14.05 1.01
3 1 -5 12.2 0.92
3 1 -5 10.38 0.81
3 1 -5 10.09 0.95
3 1 -5 11.43 1.04
3 1 -5 7.34 0.68
-3 -1 5 11.64 0.91
3 1 -5 11.66 0.92
-3 -1 5 14.54 1.16
3 1 -5 8.04 0.68
-3 -1 5 7.32 0.68
-3 -1 4 9.01 0.84
-3 -1 4 7.82 0.75
-3 -1 4 10.55 0.98
-3 -1 4 11.93 0.96
3 1 -4 10.86 0.98
3 1 -4 12.17 1
3 1 -4 12.38 1.05
-3 -1 4 12.13 0.89
3 1 -4 14.19 0.98
3 1 -4 10.26 0.77
-3 -1 4 14.42 1.15
3 1 -4 9.75 0.74
3 1 -4 9.49 0.75
-3 -1 4 7.94 0.74
3 1 -4 9.08 0.68
-3 -1 3 0.98 0.43
-3 -1 3 0.55 0.31
3 1 -3 1.35 0.46
3 1 -3 1.01 0.47
3 1 -3 1.37 0.44
3 1 -3 1.34 0.31
3 1 -3 1.47 0.48
3 1 -3 1.19 0.3
3 1 -3 1.12 0.29
-3 -1 3 1.17 0.45
-3 -1 3 0.87 0.3
3 1 -3 1.03 0.29
3 1 -2 4.39 0.64
3 1 -2 5.06 0.69
3 1 -2 8.7 0.67
3 1 -2 5.39 0.72
-3 -1 2 3.61 0.63
3 1 -2 9.73 0.91
-3 -1 2 1.4 0.56
3 1 -2 8.08 0.65
3 1 -2 7.99 0.63
-3 -1 2 6.77 0.9
-3 -1 2 4.63 0.63
-3 -1 2 4.23 0.57
3 1 -2 5.17 0.56
3 1 -1 32.84 1.25
3 1 -1 30.8 1.51
3 1 -1 39.1 1.69
-3 -1 1 35.49 1.49
3 1 -1 26.74 1.43
-3 -1 1 42.64 1.82
3 1 -1 48.09 1.75
3 1 -1 34.04 1.26
-3 -1 1 41.85 1.84
3 1 -1 33.49 1.26
-3 -1 1 36.98 1.62
-3 -1 1 32.01 1.35
3 1 -1 28.03 1.22
-3 -1 0 14.49 0.94
-3 -1 0 15.76 1.11
3 1 0 13.32 0.82
3 1 0 14.18 0.83
-3 -1 0 14.14 1.08
3 1 0 13.66 0.82
-3 -1 0 12.41 0.99
-3 -1 0 12.41 0.84
3 1 0 12.14 0.83
3 1 1 7.37 0.65
3 1 1 8.58 0.77
-3 -1 -1 7.43 0.75
-3 -1 -1 7.45 0.82
3 1 1 8.36 0.8
-3 -1 -1 12.47 0.89
-3 -1 -1 11.02 0.95
3 1 1 10.06 0.83
3 1 1 8.16 0.66
3 1 1 8.22 0.64
3 1 1 7.6 0.64
-3 -1 -1 11.28 1.02
-3 -1 -1 8.89 0.85
-3 -1 -1 9.85 0.77
3 1 1 6.9 0.66
3 1 2 9.7 0.77
3 1 2 8.16 0.67
3 1 2 9.78 0.86
-3 -1 -2 7.19 0.8
-3 -1 -2 8.71 0.86
-3 -1 -2 8.59 0.9
3 1 2 10.94 0.94
-3 -1 -2 13.13 0.95
-3 -1 -2 10.96 1
-3 -1 -2 10.4 0.93
3 1 2 13.37 0.94
3 1 2 10.68 0.77
3 1 2 11.3 0.77
3 1 2 11.13 0.77
-3 -1 -2 11.11 1.03
-3 -1 -2 7.68 0.85
-3 -1 -2 10.13 0.82
3 1 2 8.66 0.78
3 1 3 22.61 1.2
3 1 3 15.65 0.96
3 1 3 21.73 1.31
-3 -1 -3 17.03 1.17
-3 -1 -3 18.74 1.25
3 1 3 16.26 1.21
-3 -1 -3 28.04 1.37
-3 -1 -3 21.7 1.37
-3 -1 -3 20.98 1.37
3 1 3 24.28 1.24
-3 -1 -3 14.83 1.21
3 1 3 19.5 1.06
3 1 3 19.4 1.04
3 1 3 20.6 1.06
-3 -1 -3 24.56 1.53
-3 -1 -3 18.86 1.28
-3 -1 -3 17.13 1.17
3 1 4 17.28 1.11
3 1 4 13.93 0.95
3 1 4 17.19 1.23
-3 -1 -4 15.19 1.16
3 1 4 15.09 0.97
3 1 4 13 1.09
-3 -1 -4 16.08 1.25
-3 -1 -4 18.65 1.37
3 1 4 17.88 1.08
-3 -1 -4 13.33 1.18
3 1 4 15.85 0.97
3 1 4 15.56 0.97
-3 -1 -4 22.42 1.51
-3 -1 -4 17.86 1.29
-3 -1 -4 12.13 1.13
-3 -1 -5 2.14 0.6
3 1 5 1.73 0.45
3 1 5 1.31 0.38
3 1 5 1.61 0.44
-3 -1 -5 1.22 0.53
-3 -1 -5 0.94 0.54
3 1 5 1.6 0.46
-3 -1 -5 1.27 0.57
-3 -1 -5 2.27 0.6
-3 -1 -5 1.54 0.54
-3 -1 -6 2.33 0.67
3 1 6 1.12 0.38
3 1 6 1.03 0.36
3 1 6 1.3 0.46
-3 -1 -6 1.26 0.59
-3 -1 -6 1.58 0.59
-3 -1 -6 1.41 0.58
-3 -1 -7 3.58 0.76
3 1 7 1.67 0.48
3 1 7 1.9 0.46
3 1 7 1.7 0.49
-3 -1 -7 1.55 0.64
-3 -1 -7 2.05 0.69
-3 -1 -7 2.38 0.75
3 1 8 27.15 1.6
3 1 8 16.74 1.16
3 1 8 21.21 1.3
3 1 8 20.27 1.33
-3 -1 -8 23.98 1.54
-3 -1 -8 29.5 1.63
3 1 9 4.95 0.61
3 1 9 4.8 0.66
-3 -1 -9 6.04 0.83
3 1 10 9.49 0.78
-3 -1 -10 8.83 0.87
-3 -1 -11 1.09 0.55
3 1 11 2.66 0.37
3 2 -12 2.35 0.64
3 2 -12 0.91 0.34
-3 -2 11 5.32 0.56
3 2 -11 2.34 0.55
-3 -2 10 0.19 0.33
-3 -2 10 0.13 0.34
3 2 -10 0.4 0.4
3 2 -10 0.52 0.4
3 2 -9 1.96 0.6
-3 -2 9 1.99 0.5
-3 -2 9 3.06 0.52
3 2 -9 1.93 0.53
3 2 -9 2.36 0.56
-3 -2 9 1.41 0.52
3 2 -9 2.1 0.48
3 2 -8 2.81 0.66
-3 -2 8 6.53 0.75
-3 -2 8 4.17 0.8
-3 -2 8 8.25 0.76
3 2 -8 5.51 0.88
3 2 -8 5.2 0.78
-3 -2 8 5.17 0.73
3 2 -8 5.41 0.7
3 2 -7 24.62 1.53
-3 -2 7 33.22 1.51
-3 -2 7 21.59 1.62
-3 -2 7 42.87 1.65
3 2 -7 37.15 1.95
3 2 -7 34.93 1.81
-3 -2 7 27.18 1.43
3 2 -7 36.45 1.71
3 2 -7 34.47 1.32
-3 -2 6 -0.11 0.34
-3 -2 6 -0.2 0.37
-3 -2 6 -0.05 0.32
-3 -2 6 0.22 0.4
3 2 -6 -0.03 0.26
3 2 -6 0.47 0.49
3 2 -6 0.38 0.45
-3 -2 6 0.12 0.32
3 2 -6 0.18 0.26
-3 -2 6 0.23 0.31
3 2 -5 1.64 0.51
-3 -2 5 2.95 0.57
-3 -2 5 2.28 0.59
-3 -2 5 2.4 0.54
-3 -2 5 3.47 0.61
3 2 -5 3.2 0.49
3 2 -5 3.1 0.68
3 2 -5 2.54 0.65
-3 -2 5 2.85 0.53
3 2 -5 2.92 0.48
3 2 -5 2.95 0.57
3 2 -5 1.71 0.46
-3 -2 5 1.8 0.48
-3 -2 5 1.42 0.43
-3 -2 5 2.92 0.58
-3 -2 4 0.87 0.45
-3 -2 4 1.36 0.51
-3 -2 4 0.99 0.53
-3 -2 4 2.04 0.63
-3 -2 4 1.04 0.49
3 2 -4 1.77 0.43
-3 -2 4 1.75 0.51
3 2 -4 1.31 0.54
-3 -2 4 1.64 0.56
3 2 -4 1.38 0.53
-3 -2 4 1.05 0.42
3 2 -4 1.3 0.47
3 2 -4 0.79 0.39
3 2 -4 1.97 0.44
3 2 -4 0.59 0.38
-3 -2 4 0.64 0.36
-3 -2 4 1.19 0.45
-3 -2 3 11.27 0.96
-3 -2 3 12.51 1.18
-3 -2 3 11.76 1.02
-3 -2 3 11.36 0.99
3 2 -3 12.96 1.16
3 2 -3 15.3 1
3 2 -3 13.61 1.18
3 2 -3 13.07 1.4
-3 -2 3 14.76 1.17
3 2 -3 13.41 1.19
-3 -2 3 14.26 0.99
-3 -2 3 9.58 1.13
3 2 -3 15.36 0.98
3 2 -3 9.19 0.9
-3 -2 3 13.85 1.17
3 2 -3 9.52 0.89
-3 -2 3 13.34 1.13
-3 -2 3 11.65 1
-3 -2 2 13.63 1.04
-3 -2 2 11.58 1.18
-3 -2 2 11.65 1.02
-3 -2 2 17.71 1.23
3 2 -2 16.83 1.09
3 2 -2 14.42 1.2
3 2 -2 15.61 1.49
-3 -2 2 10.43 1.14
3 2 -2 13.19 1.16
-3 -2 2 9.4 1.06
-3 -2 2 17.06 1.08
3 2 -2 21.59 1.16
3 2 -2 15.5 1.26
3 2 -2 13.14 0.97
-3 -2 2 15.04 1.25
3 2 -2 14.2 0.97
-3 -2 2 14.59 1.19
-3 -2 2 12.47 1.04
3 2 -1 12.26 0.82
3 2 -1 14.58 0.93
-3 -2 1 12 0.99
-3 -2 1 11.82 1.12
-3 -2 1 13.43 1.08
-3 -2 1 15.82 1.16
3 2 -1 16.73 1.11
3 2 -1 18.96 1.62
-3 -2 1 9.94 1.17
3 2 -1 16.04 1.22
-3 -2 1 13.4 1.24
-3 -2 1 17.69 1.09
3 2 -1 21.47 1.17
3 2 -1 14.13 1.25
3 2 -1 15.02 1.01
3 2 -1 15.08 0.99
-3 -2 1 18.23 1.32
-3 -2 1 14.78 1.21
-3 -2 1 12.63 1.04
3 2 0 10.16 0.76
3 2 0 10.54 0.83
-3 -2 0 8.59 0.87
-3 -2 0 7.89 0.87
-3 -2 0 8.53 0.91
3 2 0 13.5 1.02
-3 -2 0 8.11 1.01
-3 -2 0 6.37 0.99
3 2 0 15.19 1.03
3 2 0 8.38 0.99
3 2 0 10.98 0.87
3 2 0 10.73 0.83
-3 -2 0 11.33 1.07
3 2 0 10 0.83
-3 -2 0 9.28 1.02
-3 -2 0 8.52 0.89
3 2 1 9.14 0.75
3 2 1 10.42 0.85
-3 -2 -1 8.27 0.85
-3 -2 -1 7.89 0.87
-3 -2 -1 7.68 0.89
3 2 1 10.36 0.92
-3 -2 -1 8.27 1
3 2 1 11.63 0.94
3 2 1 10.17 1.02
3 2 1 9.29 0.81
3 2 1 9.22 0.78
-3 -2 -1 10.79 1.04
3 2 1 9.5 0.81
-3 -2 -1 8.5 1
-3 -2 -1 6.77 0.88
3 2 2 4.89 0.59
3 2 2 5.52 0.67
-3 -2 -2 4.5 0.65
-3 -2 -2 3.98 0.69
3 2 2 4.79 0.68
3 2 2 5.98 0.71
-3 -2 -2 4.27 0.69
-3 -2 -2 4 0.78
3 2 3 7.74 0.75
3 2 3 8.05 0.83
-3 -2 -3 8.49 0.86
-3 -2 -3 8.88 0.94
3 2 3 6.72 0.78
3 2 3 10.53 0.9
-3 -2 -3 8.57 0.97
-3 -2 -3 8.17 0.99
3 2 4 5.69 0.69
-3 -2 -4 4.02 0.72
3 2 4 6.56 0.78
-3 -2 -4 4.91 0.73
-3 -2 -4 5.35 0.83
3 2 4 4.3 0.66
3 2 4 5.28 0.68
-3 -2 -4 4.97 0.86
3 2 5 0.41 0.39
-3 -2 -5 0.53 0.38
3 2 5 0.78 0.38
3 2 5 1.03 0.41
-3 -2 -5 0.47 0.5
-3 -2 -5 1.87 0.73
3 2 5 0.54 0.33
-3 -2 -5 0.92 0.57
3 2 6 6.7 0.86
3 2 6 7.57 0.79
3 2 6 7.49 0.88
-3 -2 -6 6.44 0.79
-3 -2 -6 5.4 0.93
3 2 7 1.61 0.46
3 2 7 1.18 0.39
3 2 7 1.67 0.45
-3 -2 -7 1.41 0.5
-3 -2 -7 1.18 0.63
3 2 8 9.96 0.84
3 2 8 8 0.71
3 2 8 8.88 0.8
-3 -2 -8 7.47 0.87
3 2 9 1.85 0.36
-3 -2 -9 2.13 0.54
-3 -2 -9 1.52 0.54
3 2 9 2.43 0.41
-3 -2 -10 1.66 0.4
3 2 10 2.31 0.32
3 3 -12 0.65 0.36
3 3 -12 0.39 0.36
3 3 -11 1.63 0.5
3 3 -11 1.24 0.57
3 3 -11 1.11 0.33
-3 -3 10 0.32 0.29
-3 -3 10 0.15 0.26
3 3 -10 0.24 0.41
3 3 -10 0.24 0.28
-3 -3 10 0.22 0.15
-3 -3 9 3.69 0.53
-3 -3 9 3.06 0.38
-3 -3 9 4.78 0.53
3 3 -9 4.54 0.88
3 3 -9 3.42 0.62
-3 -3 9 3.59 0.42
3 3 -9 3.3 0.48
-3 -3 8 1.38 0.45
-3 -3 8 1.29 0.35
-3 -3 8 1.61 0.43
3 3 -8 1.96 0.7
3 3 -8 1.74 0.55
-3 -3 8 1.18 0.32
3 3 -8 1.4 0.45
3 3 -8 1.55 0.39
-3 -3 7 8.92 0.8
-3 -3 7 8.46 0.72
-3 -3 7 9.87 0.79
3 3 -7 6.32 1.06
3 3 -7 5.86 0.92
-3 -3 7 8.78 0.72
3 3 -7 5.07 0.76
-3 -3 7 2.62 0.57
3 3 -7 5.94 0.74
-3 -3 6 4.37 0.62
-3 -3 6 4.51 0.59
-3 -3 6 4.35 0.58
3 3 -6 3.68 0.92
3 3 -6 4.04 0.71
3 3 -6 4.86 0.85
-3 -3 6 3.67 0.53
3 3 -6 4.49 0.7
-3 -3 6 1.79 0.46
3 3 -6 4.59 0.67
-3 -3 6 3.79 0.63
-3 -3 5 2.16 0.51
-3 -3 5 1.59 0.58
-3 -3 5 1.57 0.45
-3 -3 5 2.2 0.5
3 3 -5 1.72 0.7
3 3 -5 1.14 0.69
3 3 -5 1.7 0.57
3 3 -5 1.79 0.63
-3 -3 5 1.7 0.46
3 3 -5 1.69 0.53
3 3 -5 1.97 0.53
3 3 -5 1.3 0.38
-3 -3 5 1.95 0.52
-3 -3 4 6.93 0.75
-3 -3 4 4.96 0.68
-3 -3 4 5.59 0.69
3 3 -4 6.49 1.17
3 3 -4 4.65 0.57
3 3 -4 4.49 0.8
3 3 -4 7.54 1.08
-3 -3 4 5.1 0.71
3 3 -4 5.59 0.79
3 3 -4 4.44 0.55
3 3 -4 6.17 0.85
-3 -3 4 3.97 0.7
-3 -3 3 42.1 1.63
-3 -3 3 36.06 1.61
-3 -3 3 36.52 1.56
3 3 -3 30.06 2.23
3 3 -3 44.38 1.62
3 3 -3 39.05 2.07
3 3 -3 50.16 2.44
-3 -3 3 35.01 1.72
3 3 -3 43.07 2.01
3 3 -3 46.71 1.61
3 3 -3 52.08 2.2
-3 -3 3 25.73 1.54
-3 -3 3 27.95 1.59
-3 -3 2 53.74 1.84
-3 -3 2 50.21 1.95
-3 -3 2 57.92 1.97
3 3 -2 63.96 1.99
3 3 -2 56.65 2.58
-3 -3 2 55.72 2.2
3 3 -2 43.69 2.05
3 3 -2 61.09 1.92
3 3 -2 62.76 2.43
-3 -3 2 41.99 1.94
-3 -3 2 47.51 2.1
-3 -3 1 36.68 1.53
-3 -3 1 35.59 1.68
-3 -3 1 33.1 1.48
3 3 -1 35.43 1.56
3 3 -1 37.48 2.09
-3 -3 1 34.4 1.78
3 3 -1 28.63 1.61
3 3 -1 36.73 1.51
3 3 -1 30.3 1.75
-3 -3 1 31.18 1.67
-3 -3 1 37.18 1.92
3 3 0 14.5 0.9
-3 -3 0 17.89 1.09
-3 -3 0 15.16 1.17
-3 -3 0 15.24 1.05
3 3 0 20.32 1.2
3 3 0 14.23 1.28
-3 -3 0 15.12 1.23
3 3 0 19.15 1.16
3 3 0 17.38 1.31
-3 -3 0 14.61 1.16
-3 -3 0 13.33 1.2
3 3 1 3.62 0.5
-3 -3 -1 3.21 0.61
3 3 1 3.77 0.52
-3 -3 -1 4.44 0.62
-3 -3 -1 3.79 0.72
-3 -3 -1 4.17 0.66
3 3 1 4.9 0.67
-3 -3 -1 3.68 0.74
3 3 1 4.92 0.66
3 3 1 2.73 0.6
-3 -3 -1 3.87 0.77
3 3 2 0.76 0.31
3 3 2 0.56 0.3
-3 -3 -2 0.62 0.41
-3 -3 -2 0.52 0.54
-3 -3 -2 0.97 0.51
3 3 2 0.81 0.41
-3 -3 -2 0.86 0.58
3 3 2 0.91 0.41
-3 -3 -2 0.61 0.43
3 3 3 6.7 0.69
3 3 3 6.47 0.69
-3 -3 -3 8.38 0.75
-3 -3 -3 6.49 0.88
-3 -3 -3 8.51 0.83
3 3 3 7.91 0.8
-3 -3 -3 6.01 0.91
3 3 3 6.67 0.73
3 3 4 2.79 0.45
3 3 4 3.52 0.51
3 3 4 3.66 0.53
-3 -3 -4 2.72 0.63
-3 -3 -4 3.76 0.62
3 3 4 3.51 0.55
-3 -3 -4 1.86 0.67
3 3 5 4.68 0.57
3 3 5 6.02 0.63
3 3 5 6.62 0.66
-3 -3 -5 6.63 0.79
3 3 5 4.93 0.6
-3 -3 -5 5.88 0.88
3 3 6 3.32 0.45
3 3 6 4.36 0.53
-3 -3 -6 3.37 0.59
-3 -3 -6 4.45 0.58
3 3 6 2.49 0.37
-3 -3 -6 2.7 0.62
3 3 7 2.66 0.38
-3 -3 -7 2.55 0.51
-3 -3 -7 2.51 0.5
-3 -3 -7 1.66 0.51
3 3 7 2.76 0.38
-3 -3 -8 1.37 0.38
3 4 -10 0.71 0.3
3 4 -10 0.34 0.28
3 4 -9 2.1 0.44
-3 -4 9 2.42 0.27
3 4 -9 1.55 0.42
3 4 -9 2.01 0.36
3 4 -9 1.78 0.46
-3 -4 9 2.73 0.28
3 4 -8 0.76 0.34
-3 -4 8 1.58 0.3
-3 -4 8 1.33 0.25
-3 -4 8 1.48 0.25
3 4 -8 0.91 0.4
3 4 -8 0.86 0.4
3 4 -8 0.98 0.32
-3 -4 8 1.45 0.24
3 4 -8 0.76 0.24
-3 -4 7 1.92 0.33
-3 -4 7 1.58 0.31
-3 -4 7 1.91 0.3
3 4 -7 1.7 0.51
3 4 -7 1.24 0.45
3 4 -7 1.99 0.45
-3 -4 7 1.75 0.29
3 4 -7 2.04 0.37
-3 -4 6 4.59 0.49
-3 -4 6 3.47 0.43
-3 -4 6 3.32 0.39
3 4 -6 3.57 0.71
3 4 -6 4.21 0.64
-3 -4 6 4.14 0.45
3 4 -6 4.56 0.55
-3 -4 5 4.13 0.48
-3 -4 5 3.49 0.48
-3 -4 5 2.22 0.36
3 4 -5 2.11 0.59
3 4 -5 3.28 0.6
-3 -4 5 3.88 0.48
3 4 -5 3.49 0.52
-3 -4 4 5.36 0.53
-3 -4 4 3.77 0.55
-3 -4 4 3.04 0.43
3 4 -4 4.31 0.75
3 4 -4 4.71 0.72
-3 -4 4 3.56 0.5
3 4 -4 4.66 0.61
-3 -4 3 11.19 0.72
-3 -4 3 9.51 0.78
-3 -4 3 8.31 0.63
3 4 -3 9.1 0.65
3 4 -3 10.17 0.97
-3 -4 3 9.25 0.79
3 4 -3 10.62 0.91
-3 -4 2 8.41 0.66
-3 -4 2 7.95 0.73
-3 -4 2 5.31 0.53
3 4 -2 8.22 0.65
3 4 -2 7.27 0.83
-3 -4 2 7.99 0.76
3 4 -2 8.07 0.79
-3 -4 1 2.08 0.4
-3 -4 1 2.42 0.5
-3 -4 1 1.71 0.36
3 4 -1 3.28 0.45
3 4 -1 2.18 0.49
-3 -4 1 2.66 0.52
3 4 -1 2.99 0.53
-3 -4 1 1.08 0.38
-3 -4 0 2.14 0.45
-3 -4 0 1.81 0.35
3 4 0 2.42 0.41
3 4 0 1.86 0.4
-3 -4 0 1.95 0.49
3 4 0 1.75 0.4
-3 -4 0 0.56 0.33
-3 -4 -1 0.42 0.34
-3 -4 -1 0.34 0.25
3 4 1 0.32 0.22
-3 -4 -1 0.75 0.39
3 4 1 0.53 0.24
-3 -4 -1 0.21 0.31
-3 -4 -2 4.02 0.51
-3 -4 -2 3.25 0.4
3 4 2 3.69 0.45
-3 -4 -2 4.26 0.58
-3 -4 -3 1.88 0.38
3 4 3 0.8 0.25
-3 -4 -3 2.13 0.44
-3 -4 -3 0.74 0.37
-3 -4 -4 6.12 0.53
3 4 4 5.11 0.45
-3 -4 -4 6.16 0.6
-4 6 3 0.86 0.14
4 -6 -3 1.58 0.25
4 -6 -2 4.25 0.4
4 -6 -2 4.41 0.41
-4 6 2 5.28 0.37
4 -6 -1 17.63 0.75
4 -6 -1 19.35 0.85
-4 6 1 20.44 0.81
-4 6 1 18.28 0.69
4 -6 0 7.77 0.49
4 -6 0 8.81 0.58
4 -6 0 8.86 0.54
-4 6 0 7.39 0.49
-4 6 0 6.7 0.44
-4 6 0 8.17 0.5
-4 6 -1 0.49 0.17
4 -6 1 0.52 0.2
4 -6 1 0.31 0.18
-4 6 -1 0.38 0.16
-4 6 -1 0.19 0.12
4 -6 2 7.24 0.53
4 -6 2 7.52 0.51
-4 6 -2 8.31 0.47
-4 6 -2 7.63 0.46
4 -6 3 2.93 0.34
4 -6 3 2.54 0.3
4 -6 3 2.52 0.27
-4 6 -3 2.26 0.26
-4 6 -3 2.88 0.32
4 -6 4 1.92 0.26
4 -6 4 1.83 0.25
4 -6 4 1.71 0.23
-4 6 -4 1.82 0.24
-4 6 -4 2.4 0.29
-4 6 -5 2.27 0.23
-4 6 -5 2.15 0.26
-4 5 7 0.85 0.19
-4 5 6 1.07 0.23
-4 5 5 4.86 0.45
-4 5 4 25.81 1.22
-4 5 4 24.09 1.02
-4 5 4 26.29 1.05
4 -5 -3 4.96 0.62
-4 5 3 6.29 0.62
-4 5 3 5.28 0.53
-4 5 3 6.97 0.61
4 -5 -2 10.68 0.95
-4 5 2 13.17 0.92
-4 5 2 12.26 0.79
-4 5 2 14.66 0.92
4 -5 -1 11.87 0.97
4 -5 -1 11.85 0.88
-4 5 1 12.4 0.95
-4 5 1 10.67 0.81
-4 5 1 10.31 0.74
-4 5 1 11.96 0.87
4 -5 0 2.91 0.52
4 -5 0 2.58 0.45
-4 5 0 2.71 0.46
-4 5 0 2.6 0.41
-4 5 0 2.11 0.37
-4 5 0 2.84 0.46
4 -5 1 5.59 0.62
4 -5 1 6.01 0.69
4 -5 1 5.78 0.63
-4 5 -1 7.05 0.69
-4 5 -1 6.44 0.61
-4 5 -1 6.48 0.61
-4 5 -1 7.75 0.68
-4 5 -1 7.31 0.71
4 -5 2 25.96 1.22
-4 5 -2 34.74 1.36
4 -5 2 30.02 1.45
4 -5 2 28.13 1.33
-4 5 -2 31.35 1.39
4 -5 2 29.1 1.24
-4 5 -2 29.46 1.23
-4 5 -2 28.42 1.24
-4 5 -2 35 1.47
-4 5 -2 33.18 1.48
-4 5 -3 0.57 0.26
4 -5 3 0.47 0.26
4 -5 3 0.65 0.33
-4 5 -3 0.62 0.25
4 -5 3 0.41 0.24
-4 5 -3 0.51 0.22
4 -5 3 0.69 0.28
-4 5 -3 0.18 0.18
-4 5 -3 0.39 0.24
-4 5 -4 19.34 1.05
4 -5 4 16.99 1.02
4 -5 4 15.76 0.96
4 -5 4 15.36 0.9
-4 5 -4 15.92 0.91
-4 5 -4 20.32 1.14
-4 5 -4 19.08 1.08
-4 5 -5 2.58 0.4
4 -5 5 2.17 0.39
4 -5 5 2.25 0.37
4 -5 5 1.66 0.32
-4 5 -5 2.03 0.33
-4 5 -5 2.45 0.43
-4 5 -5 2.15 0.38
-4 5 -6 3.5 0.45
4 -5 6 3.56 0.42
4 -5 6 3.36 0.42
4 -5 6 2.97 0.39
-4 5 -6 2.21 0.33
-4 5 -6 3.23 0.46
-4 5 -6 3.1 0.4
-4 5 -7 4.99 0.5
4 -5 7 5.73 0.46
4 -5 7 5.26 0.46
4 -5 7 5.17 0.46
-4 5 -7 2.83 0.32
-4 5 -7 5.33 0.54
-4 5 -7 3.55 0.41
-4 5 -8 1.39 0.27
4 -5 8 1.68 0.22
4 -5 8 1.54 0.24
4 -5 8 1.44 0.24
-4 5 -8 1.58 0.29
4 -5 8 1.67 0.22
-4 5 -9 0.61 0.17
4 -5 9 0.69 0.14
4 -5 9 0.77 0.15
-4 5 -9 0.73 0.17
4 -5 9 0.51 0.11
-4 4 9 1.26 0.27
-4 4 8 4.11 0.44
-4 4 7 2.28 0.38
-4 4 6 11.89 0.81
-4 4 5 41.01 1.59
-4 4 5 41.09 1.55
-4 4 5 45.24 1.7
4 -4 -4 16.49 1.34
-4 4 4 22.73 1.28
-4 4 4 20.06 1.3
-4 4 4 19.99 1.1
4 -4 -4 16.41 1.4
-4 4 4 22.13 1.28
-4 4 3 1.06 0.35
4 -4 -3 0.66 0.4
-4 4 3 0.39 0.31
-4 4 3 1.05 0.37
-4 4 3 0.71 0.29
4 -4 -3 0.36 0.63
4 -4 -2 3.06 0.64
4 -4 -2 2.74 0.62
-4 4 2 2.54 0.49
-4 4 2 2.74 0.46
-4 4 2 3.28 0.56
-4 4 1 8.7 0.84
4 -4 -1 9.16 1
4 -4 -1 8.73 0.96
-4 4 1 10.53 0.99
-4 4 1 9.68 0.87
-4 4 1 9.23 0.79
-4 4 1 8.31 0.85
-4 4 1 10.99 0.97
-4 4 0 8.37 0.83
4 -4 0 9.03 0.97
4 -4 0 7.57 0.91
-4 4 0 8.61 0.88
-4 4 0 8.08 0.78
-4 4 0 8.07 0.75
-4 4 0 9.02 0.9
-4 4 0 9.15 0.89
-4 4 -1 26.67 1.47
4 -4 1 22.53 1.45
4 -4 1 23.91 1.38
4 -4 1 19.92 1.29
-4 4 -1 23.54 1.39
-4 4 -1 22.43 1.24
-4 4 -1 21.9 1.2
-4 4 -1 26.32 1.51
-4 4 -1 23.71 1.42
-4 4 -1 22.06 1.3
4 -4 2 30.37 1.59
-4 4 -2 31.79 1.63
4 -4 2 34.15 1.75
4 -4 2 33.24 1.61
4 -4 2 29.43 1.53
4 -4 2 30.3 1.54
-4 4 -2 31.29 1.56
-4 4 -2 26.43 1.33
-4 4 -2 30.4 1.69
-4 4 -2 28.81 1.57
-4 4 -2 26.19 1.42
-4 4 -3 1.76 0.45
4 -4 3 1.3 0.42
4 -4 3 1.85 0.51
-4 4 -3 1.99 0.49
4 -4 3 1.4 0.39
-4 4 -3 1.43 0.41
4 -4 3 1.7 0.39
4 -4 3 1.15 0.34
-4 4 -3 1.21 0.34
-4 4 -3 1.82 0.48
-4 4 -4 0.78 0.32
4 -4 4 0.57 0.29
4 -4 4 1.2 0.44
-4 4 -4 1 0.41
4 -4 4 0.8 0.35
-4 4 -4 0.87 0.31
4 -4 4 1.12 0.32
-4 4 -4 0.88 0.3
-4 4 -4 0.57 0.38
-4 4 -5 0.86 0.35
4 -4 5 0.84 0.37
-4 4 -5 1.42 0.46
4 -4 5 0.37 0.25
-4 4 -5 0.91 0.35
4 -4 5 0.6 0.26
-4 4 -5 0.91 0.45
-4 4 -6 9.59 0.93
4 -4 6 11.13 0.88
4 -4 6 9.53 0.8
-4 4 -6 6.32 0.72
4 -4 6 9.08 0.77
-4 4 -6 8.26 0.95
-4 4 -6 7.56 0.73
-4 4 -7 6.74 0.74
4 -4 7 7.33 0.68
4 -4 7 6.88 0.65
-4 4 -7 4.32 0.6
4 -4 7 5.87 0.61
-4 4 -7 6.37 0.75
4 -4 8 1.38 0.3
-4 4 -8 1.35 0.37
4 -4 8 0.93 0.26
-4 4 -8 1.22 0.32
4 -4 8 0.59 0.23
-4 4 -8 1.29 0.38
4 -4 9 1.67 0.27
-4 4 -9 1.14 0.3
4 -4 9 1.89 0.3
-4 4 -9 1.2 0.31
4 -4 9 1.91 0.31
-4 4 -9 1.52 0.32
4 -4 9 1.82 0.26
-4 4 -10 2.25 0.34
4 -4 10 2.55 0.3
-4 4 -10 2.08 0.34
4 -4 10 2.71 0.32
4 -4 10 2.73 0.26
-4 3 10 1.05 0.29
-4 3 10 1.3 0.28
-4 3 9 0.3 0.25
-4 3 9 0.22 0.2
-4 3 8 6.54 0.72
-4 3 8 5.88 0.6
-4 3 7 2.51 0.52
-4 3 7 2.46 0.42
4 -3 -7 3.3 0.85
-4 3 6 17.01 1.23
-4 3 6 13.89 0.92
4 -3 -6 15.43 1.56
-4 3 5 1.64 0.43
-4 3 5 0.7 0.35
-4 3 5 1.74 0.5
-4 3 5 1.6 0.37
4 -3 -5 1.8 0.76
-4 3 4 11.32 1.11
-4 3 4 12.84 1.13
-4 3 4 13.64 0.92
-4 3 4 13.11 1.09
4 -3 -4 12.8 1.31
-4 3 4 13.76 1.13
-4 3 3 2.05 0.57
-4 3 3 2.8 0.56
-4 3 3 3.01 0.46
-4 3 3 2.21 0.52
4 -3 -3 3.7 0.77
-4 3 3 2.18 0.56
-4 3 2 16.33 1.25
4 -3 -2 15.31 1.27
4 -3 -2 13.31 1.14
-4 3 2 12.72 1.11
-4 3 2 13.51 1.24
4 -3 -2 14.26 1.23
-4 3 2 15.92 1.21
-4 3 1 4.9 0.71
4 -3 -1 4.34 0.74
-4 3 1 2.88 0.44
4 -3 -1 3.43 0.62
4 -3 -1 3.25 0.83
-4 3 1 3.03 0.55
-4 3 1 4.3 0.69
4 -3 -1 3.78 0.58
-4 3 1 4.18 0.64
-4 3 0 131.36 3.41
4 -3 0 135.51 3.49
4 -3 0 127.32 3.2
-4 3 0 126.69 3.14
4 -3 0 118.78 3
-4 3 0 128.41 3.45
-4 3 0 122.39 3.2
4 -3 1 69.59 2.55
-4 3 -1 69.78 2.51
4 -3 1 72.24 2.54
4 -3 1 64.88 2.58
4 -3 1 70.85 2.32
-4 3 -1 74.49 2.46
-4 3 -1 73.53 2.65
-4 3 -1 64.63 2.37
4 -3 2 105.88 3.1
-4 3 -2 118.74 3.31
4 -3 2 121.39 3.28
4 -3 2 110.18 3.22
4 -3 2 111.84 2.89
-4 3 -2 108.18 2.91
-4 3 -2 118.3 3.07
-4 3 -2 116.32 3.38
-4 3 -2 109.74 2.99
-4 3 -2 96.07 2.75
-4 3 -3 9.56 0.83
4 -3 3 11.61 1.03
-4 3 -3 11.21 1.05
4 -3 3 12.89 1.1
4 -3 3 11.03 0.91
4 -3 3 11.08 1.05
4 -3 3 12.63 1
-4 3 -3 9.27 0.92
-4 3 -3 11.3 0.99
-4 3 -3 11.53 1.1
-4 3 -3 10 0.91
-4 3 -4 22.94 1.26
4 -3 4 31.71 1.62
-4 3 -4 26.44 1.61
4 -3 4 32 1.68
4 -3 4 27.03 1.39
4 -3 4 27.9 1.44
-4 3 -4 23.25 1.41
4 -3 4 22.38 1.31
-4 3 -4 26.26 1.52
-4 3 -4 28.49 1.71
-4 3 -4 24.71 1.42
4 -3 5 8.66 0.81
-4 3 -5 12.18 1.11
4 -3 5 12.55 1.05
4 -3 5 9.4 0.83
4 -3 5 10.7 0.89
-4 3 -5 9.95 1
4 -3 5 8.91 0.81
-4 3 -5 11.19 1.05
-4 3 -5 12.53 1.19
-4 3 -5 5.95 0.71
-4 3 -6 19.47 1.45
4 -3 6 26.62 1.45
4 -3 6 19.92 1.18
-4 3 -6 16 1.29
4 -3 6 18.43 1.14
-4 3 -6 22.39 1.49
-4 3 -6 10.19 0.94
-4 3 -7 2.85 0.65
4 -3 7 4.96 0.64
4 -3 7 3.62 0.53
-4 3 -7 2.92 0.6
4 -3 7 3.12 0.51
-4 3 -7 3.96 0.65
-4 3 -7 2.11 0.54
-4 3 -8 9 0.87
4 -3 8 11.27 0.86
4 -3 8 9.01 0.75
-4 3 -8 7.5 0.9
4 -3 8 8.81 0.76
-4 3 -8 10.98 0.96
-4 3 -8 5.68 0.79
4 -3 8 9.92 0.68
-4 3 -9 7.39 0.7
4 -3 9 8.8 0.69
4 -3 9 7.96 0.66
-4 3 -9 7.74 0.76
4 -3 9 7.68 0.68
-4 3 -9 6.6 0.65
4 -3 9 8.78 0.59
-4 3 -10 7.09 0.59
4 -3 10 6.41 0.51
4 -3 10 7.14 0.55
-4 3 -10 5.93 0.67
4 -3 10 6.65 0.58
4 -3 10 7.54 0.47
4 -3 11 1.44 0.23
-4 3 -11 1.33 0.34
-4 2 12 3.76 0.41
-4 2 11 0.1 0.2
-4 2 10 0.96 0.37
-4 2 9 3.63 0.6
-4 2 9 2.36 0.4
-4 2 8 9.94 1.03
-4 2 8 7.21 0.66
4 -2 -8 10.88 1.34
-4 2 7 1.63 0.44
-4 2 7 3.4 0.67
4 -2 -7 3.24 0.92
-4 2 6 6.04 0.82
-4 2 6 8.4 0.97
-4 2 6 5.05 0.73
4 -2 -6 9.23 1.2
-4 2 5 8.2 0.96
-4 2 5 11.86 1.09
-4 2 5 8.07 0.93
4 -2 -5 12.98 1.37
-4 2 5 10.02 0.98
-4 2 4 15.35 1.22
4 -2 -4 13.35 1.07
-4 2 4 18.07 1.37
-4 2 4 10.65 1.17
4 -2 -4 19.25 1.52
-4 2 4 15.66 1.03
-4 2 4 12.35 1.14
4 -2 -3 6.35 0.92
-4 2 3 6.34 0.82
4 -2 -3 6.56 0.8
-4 2 3 5.81 0.8
4 -2 -3 8.48 1.08
-4 2 3 5.17 0.64
-4 2 3 5.73 0.74
4 -2 -3 7.65 0.97
4 -2 -2 8.57 0.96
-4 2 2 9.64 0.98
-4 2 2 8.94 1
4 -2 -2 9.11 0.93
-4 2 2 8.53 0.93
-4 2 2 9.29 0.96
4 -2 -2 11.56 1.2
-4 2 2 8.72 0.85
-4 2 2 8.95 0.88
4 -2 -2 10.07 1.08
4 -2 -1 7.73 0.98
-4 2 1 6.48 0.82
-4 2 1 5.99 0.85
4 -2 -1 6.42 0.81
-4 2 1 6.09 0.8
-4 2 1 5.97 0.78
-4 2 1 5.7 0.75
4 -2 -1 6.23 0.89
4 -2 -1 4.68 0.73
-4 2 1 5.58 0.75
4 -2 -1 5.48 0.73
4 -2 -1 5.23 0.69
4 -2 -1 5.84 0.74
-4 2 1 5.24 0.69
4 -2 -1 6.71 0.92
4 -2 0 23.32 1.57
-4 2 0 26.03 1.53
4 -2 0 25.16 1.39
4 -2 0 25.74 1.73
4 -2 0 26.01 1.26
-4 2 0 24.81 1.52
4 -2 0 25.37 1.47
-4 2 0 30.89 1.7
-4 2 0 26.84 1.59
-4 2 0 25.53 1.39
-4 2 0 22.56 1.37
4 -2 0 23.09 1.45
4 -2 0 18.03 1.28
4 -2 0 18.23 1.28
4 -2 0 18.46 1.25
4 -2 0 19.63 1.33
-4 2 0 25.5 1.42
4 -2 0 20.23 1.49
4 -2 1 13.86 1.15
-4 2 -1 11.82 1.06
4 -2 1 12.51 1.01
4 -2 1 12.73 1.25
4 -2 1 12.29 0.89
-4 2 -1 10.28 1.01
4 -2 1 12.39 1.08
-4 2 -1 12.56 1.05
-4 2 -1 11.02 1.06
-4 2 -1 9.7 0.96
-4 2 -1 7.42 0.85
4 -2 1 11.12 1
4 -2 1 10.23 0.94
4 -2 1 10.29 0.95
4 -2 1 9.9 0.96
-4 2 -1 9.29 0.9
4 -2 1 9.05 1.04
4 -2 2 33.63 1.75
-4 2 -2 29.59 1.64
4 -2 2 30.74 1.56
4 -2 2 33.13 1.86
4 -2 2 31.05 1.4
-4 2 -2 27.99 1.63
-4 2 -2 31.49 1.7
4 -2 2 34.45 1.73
-4 2 -2 30.77 1.73
-4 2 -2 24.14 1.44
-4 2 -2 19.34 1.28
4 -2 2 29.7 1.57
4 -2 2 29.65 1.53
4 -2 2 29.08 1.52
4 -2 2 27.42 1.52
-4 2 -2 28.83 1.47
4 -2 2 22.1 1.5
4 -2 3 38.35 1.82
-4 2 -3 34.59 1.84
4 -2 3 35.59 1.71
4 -2 3 38.46 1.95
4 -2 3 34.61 1.48
-4 2 -3 30.98 1.73
-4 2 -3 37.72 1.88
-4 2 -3 34.36 1.82
4 -2 3 40.15 1.98
-4 2 -3 26.94 1.53
4 -2 4 9.49 0.91
-4 2 -4 8.25 0.94
4 -2 4 8.41 0.88
4 -2 4 8.81 0.92
4 -2 4 7.56 0.72
-4 2 -4 8.62 0.97
4 -2 4 5.08 0.64
-4 2 -4 10.2 1.05
-4 2 -4 10.36 1.04
-4 2 -4 6.91 0.85
4 -2 5 2.81 0.55
4 -2 5 3.62 0.6
-4 2 -5 2.94 0.6
4 -2 5 2.5 0.44
4 -2 5 2.41 0.52
-4 2 -5 3.02 0.62
4 -2 5 2.28 0.45
4 -2 5 1.55 0.4
-4 2 -5 3.42 0.65
-4 2 -5 1.91 0.59
-4 2 -5 2.12 0.59
4 -2 6 3.58 0.55
-4 2 -6 7.04 0.83
4 -2 6 6.44 0.75
4 -2 6 4.31 0.56
-4 2 -6 6.59 0.91
4 -2 6 3.94 0.56
-4 2 -6 6.72 0.85
-4 2 -6 7.72 0.89
-4 2 -6 4.55 0.82
4 -2 7 20.28 1.13
-4 2 -7 22.8 1.48
4 -2 7 28.58 1.49
4 -2 7 18.87 1.1
-4 2 -7 22.74 1.57
4 -2 7 20 1.2
-4 2 -7 14.02 1.3
4 -2 7 22.61 1.06
4 -2 8 6.75 0.72
4 -2 8 5.07 0.59
-4 2 -8 4.98 0.78
4 -2 8 5.41 0.64
4 -2 8 5.64 0.5
4 -2 9 1.84 0.38
4 -2 9 1.25 0.3
-4 2 -9 1.06 0.45
4 -2 9 1.29 0.33
-4 2 -9 1.32 0.53
4 -2 9 1.41 0.25
4 -2 10 6.65 0.57
4 -2 10 6.25 0.54
-4 2 -10 6.84 0.82
-4 2 -10 4.64 0.73
-4 2 -11 1.34 0.35
-4 2 -11 1.1 0.42
-4 1 13 0.56 0.2
-4 1 12 0.19 0.22
-4 1 11 4.33 0.65
-4 1 10 3.82 0.63
-4 1 9 7.63 0.9
4 -1 -9 7.42 1.01
4 -1 -9 8.92 1.04
-4 1 8 5.24 0.78
4 -1 -8 6.25 0.87
4 -1 -8 7.11 0.98
4 -1 -8 8.26 1.14
-4 1 7 0.39 0.39
-4 1 7 0.07 0.34
-4 1 7 0.51 0.34
4 -1 -7 1.38 0.62
4 -1 -7 1.87 0.58
-4 1 7 0.09 0.38
4 -1 -7 1.53 0.69
-4 1 6 0.27 0.31
-4 1 6 0.39 0.41
-4 1 6 0.16 0.27
4 -1 -6 0.29 0.41
-4 1 6 0.29 0.34
4 -1 -6 0.45 0.57
-4 1 5 2.81 0.61
-4 1 5 2.57 0.65
-4 1 5 3.63 0.63
4 -1 -5 3.61 0.7
-4 1 5 3.36 0.64
-4 1 5 3.46 0.59
4 -1 -5 2.17 0.59
4 -1 -5 4.08 0.86
-4 1 5 3.76 0.55
-4 1 4 12.62 1.15
4 -1 -4 13.6 1.09
-4 1 4 11.45 1.19
4 -1 -4 13.13 1.16
-4 1 4 13.11 1.1
4 -1 -4 14.44 1.18
-4 1 4 12.02 1.11
-4 1 4 15.2 1.12
-4 1 4 14.52 1.03
4 -1 -4 15.65 1.26
4 -1 -3 4.66 0.69
-4 1 3 4.17 0.74
4 -1 -3 5.63 0.92
-4 1 3 4.55 0.77
4 -1 -3 5.38 0.8
4 -1 -3 4.64 0.72
-4 1 3 4.45 0.71
4 -1 -3 4.51 0.74
-4 1 3 6.16 0.79
4 -1 -3 7.61 1.03
-4 1 3 4.51 0.7
-4 1 3 4.37 0.63
4 -1 -3 4.73 0.79
4 -1 -2 14.45 1.16
-4 1 2 16.48 1.24
4 -1 -2 17.53 1.43
-4 1 2 18.4 1.38
4 -1 -2 16.6 1.28
-4 1 2 17.38 1.34
-4 1 2 16.89 1.26
4 -1 -2 13.98 1.13
-4 1 2 19.8 1.3
4 -1 -2 21.69 1.55
4 -1 -2 12.54 1
-4 1 2 17.85 1.34
4 -1 -2 13.48 1
4 -1 -2 13.98 1.03
4 -1 -2 12.82 1.03
-4 1 2 14.7 1.08
4 -1 -2 15.34 1.27
-4 1 1 1.74 0.48
4 -1 -1 1.86 0.52
-4 1 1 2.22 0.53
-4 1 1 1.39 0.59
4 -1 -1 1.44 0.57
-4 1 1 2.64 0.63
-4 1 1 2.39 0.56
-4 1 1 2.59 0.66
-4 1 1 2.16 0.58
4 -1 -1 1.94 0.58
4 -1 -1 1.25 0.42
4 -1 -1 1.78 0.65
4 -1 -1 1.25 0.44
4 -1 -1 1.09 0.4
4 -1 -1 1.29 0.41
4 -1 -1 1.49 0.51
4 -1 0 10.34 0.97
-4 1 0 8.03 0.85
4 -1 0 10.86 1.11
-4 1 0 10.09 1.05
4 -1 0 11.47 1.12
-4 1 0 9.98 1.05
-4 1 0 8.02 0.89
-4 1 0 9.36 0.96
-4 1 0 6.04 0.92
4 -1 0 12.82 1.15
4 -1 0 8.51 0.85
-4 1 0 7.38 0.78
4 -1 0 9.06 0.87
4 -1 0 9.02 0.86
4 -1 0 8.76 0.86
4 -1 0 9.84 1
4 -1 1 12.2 1.07
-4 1 -1 5.96 0.76
4 -1 1 9.03 0.78
4 -1 1 9.2 1.05
-4 1 -1 4.46 0.73
-4 1 -1 7.09 0.9
4 -1 1 8.41 1.02
4 -1 1 9.5 1.02
-4 1 -1 8.22 0.98
-4 1 -1 6.03 0.8
-4 1 -1 7.58 0.92
-4 1 -1 3.08 0.82
4 -1 1 10.33 0.98
4 -1 1 7.73 0.77
4 -1 1 8.12 0.78
-4 1 -1 4.66 0.65
4 -1 1 8.16 0.79
4 -1 1 7.46 0.77
4 -1 1 6.84 0.87
4 -1 2 14.53 1.09
-4 1 -2 8.73 0.92
4 -1 2 10.37 0.87
4 -1 2 13.61 1.19
4 -1 2 9.3 0.68
-4 1 -2 7.34 0.83
-4 1 -2 10.96 1.09
4 -1 2 11.76 1.12
4 -1 2 12.21 1.19
-4 1 -2 11.62 1.13
-4 1 -2 9.45 0.99
-4 1 -2 10.21 1.05
4 -1 2 10.71 0.89
4 -1 2 10.59 0.86
-4 1 -2 7.97 0.81
4 -1 2 11.35 0.91
4 -1 2 10.8 0.92
4 -1 2 8.26 0.92
4 -1 3 8.44 0.87
-4 1 -3 8.99 0.9
4 -1 3 6.78 0.73
4 -1 3 8.49 0.96
-4 1 -3 6.32 0.76
-4 1 -3 9.45 1.06
4 -1 3 7.17 0.86
-4 1 -3 11.15 1.12
-4 1 -3 9.04 0.96
4 -1 3 6.92 0.96
-4 1 -3 7.79 1
-4 1 -3 7.71 0.84
4 -1 4 10 0.94
-4 1 -4 8.33 0.88
4 -1 4 10.2 0.9
4 -1 4 8.36 0.93
-4 1 -4 6.92 0.78
-4 1 -4 9.55 1.08
-4 1 -4 11.29 1.13
-4 1 -4 10.11 0.97
-4 1 -4 7.85 0.97
-4 1 -4 6.71 0.84
-4 1 -5 0.25 0.42
4 -1 5 0.07 0.29
4 -1 5 0.39 0.3
4 -1 5 0.36 0.31
-4 1 -5 0.11 0.4
4 -1 5 0.6 0.41
-4 1 -5 -0.13 0.54
-4 1 -5 0.01 0.36
4 -1 6 9.58 0.88
4 -1 6 9.98 0.92
4 -1 6 7.18 0.83
-4 1 -6 12.03 1.16
4 -1 6 6.84 0.72
-4 1 -6 10.27 1.05
-4 1 -6 8.08 1.07
-4 1 -6 7.84 0.88
4 -1 7 3.1 0.53
4 -1 7 3.77 0.6
4 -1 7 2.43 0.43
4 -1 7 2.58 0.5
-4 1 -7 3.11 0.67
-4 1 -7 1.77 0.74
4 -1 8 2.2 0.4
4 -1 8 2.62 0.5
4 -1 8 1.94 0.37
-4 1 -8 2.67 0.62
-4 1 -8 1.3 0.67
4 -1 9 1.73 0.34
4 -1 9 2.44 0.44
-4 1 -9 2.58 0.59
-4 1 -9 3.42 0.65
-4 1 -9 2.15 0.63
-4 1 -10 7.2 0.72
-4 1 -10 7.16 0.9
-4 1 -11 0.2 0.3
-4 1 -11 0.85 0.33
-4 0 13 0.38 0.22
-4 0 12 3.85 0.5
-4 0 11 11.32 0.88
-4 0 10 20.82 1.27
-4 0 9 49.65 1.98
-4 0 9 48.18 1.91
4 0 -9 45.68 1.89
-4 0 8 25.1 1.42
4 0 -8 20.59 1.49
4 0 -8 22.07 1.6
-4 0 8 27.06 1.47
4 0 -8 23.05 1.47
-4 0 7 1.48 0.6
4 0 -7 1.33 0.45
-4 0 7 2.48 0.52
4 0 -7 1.91 0.64
4 0 -7 1.8 0.59
-4 0 7 3.25 0.59
4 0 -7 1.96 0.61
-4 0 6 0.78 0.46
-4 0 6 1.27 0.51
4 0 -6 2.63 0.57
-4 0 6 1.24 0.4
4 0 -6 3.06 0.7
4 0 -6 2.6 0.68
-4 0 6 1.92 0.49
4 0 -6 3.1 0.66
-4 0 5 5.86 0.87
-4 0 5 7.93 1.04
4 0 -5 8.13 0.92
-4 0 5 7.43 0.8
4 0 -5 7.12 0.92
4 0 -5 8.13 1
-4 0 5 9.09 0.9
4 0 -5 9.57 1.02
-4 0 4 11.74 1.09
4 0 -4 14.98 1.11
-4 0 4 13.39 1.28
4 0 -4 13.31 1.23
4 0 -4 16.39 1.22
-4 0 4 11.55 0.95
4 0 -4 14.97 1.21
-4 0 4 11.86 1.12
4 0 -4 16.03 1.32
-4 0 4 16.6 1.18
4 0 -4 20.37 1.42
-4 0 4 14.18 1.13
-4 0 4 11.95 0.95
4 0 -4 13.42 1.04
-4 0 3 19.4 1.34
4 0 -3 19.44 1.32
-4 0 3 19.08 1.19
-4 0 3 23.18 1.6
4 0 -3 19.12 1.32
4 0 -3 18.48 1.41
-4 0 3 16.43 1.19
4 0 -3 17 1.25
-4 0 3 20.28 1.41
4 0 -3 17.13 1.32
-4 0 3 27.16 1.49
4 0 -3 26.73 1.61
4 0 -3 11.7 1.02
-4 0 3 22.1 1.42
-4 0 3 21.72 1.41
4 0 -3 13.26 1.01
4 0 -3 13.56 1.01
-4 0 3 14.19 1
4 0 -3 16.1 1.13
4 0 -2 7.04 0.7
-4 0 2 5.61 0.76
4 0 -2 6.44 0.81
-4 0 2 6.24 0.76
-4 0 2 8.73 0.99
-4 0 2 6.71 0.78
4 0 -2 6.72 0.88
4 0 -2 6.66 0.91
-4 0 2 6.48 0.86
-4 0 2 6.1 0.82
-4 0 2 8.81 0.93
4 0 -2 9.21 1.02
-4 0 2 5.86 0.89
4 0 -2 4.11 0.64
-4 0 2 7.37 0.88
4 0 -2 4.81 0.65
4 0 -2 4.22 0.6
-4 0 2 5.5 0.65
4 0 -2 5.88 0.73
-4 0 1 2.23 0.57
4 0 -1 2.01 0.47
-4 0 1 1.42 0.5
-4 0 1 0.88 0.54
4 0 -1 1.23 0.47
-4 0 1 2.29 0.62
-4 0 1 1.93 0.57
-4 0 1 2.99 0.65
4 0 -1 1.59 0.56
-4 0 1 1.88 0.57
-4 0 1 1.64 0.52
-4 0 1 3.53 0.7
4 0 -1 1.18 0.59
4 0 -1 1.09 0.36
4 0 -1 2.96 0.71
4 0 -1 1.29 0.4
4 0 -1 1.3 0.41
-4 0 1 1.44 0.37
4 0 -1 1.17 0.41
4 0 0 11.7 0.91
-4 0 0 7.51 0.84
4 0 0 12.72 1.08
-4 0 0 8.55 0.89
-4 0 0 11.4 1.12
-4 0 0 8.24 0.87
4 0 0 11.85 1.07
4 0 0 11.2 1.12
-4 0 0 9.49 1
-4 0 0 8.06 0.93
-4 0 0 11.14 1.02
-4 0 0 5.43 0.92
4 0 0 14.3 1.14
4 0 0 9.86 0.84
4 0 0 10.33 0.83
-4 0 0 10.95 1.03
4 0 0 11.46 0.88
-4 0 0 8.74 0.81
4 0 0 8.99 0.88
-4 0 -1 2.53 0.58
4 0 1 3.4 0.55
4 0 1 3.6 0.64
-4 0 -1 2.2 0.59
-4 0 -1 3.68 0.69
-4 0 -1 2.31 0.59
4 0 1 2.83 0.6
-4 0 -1 2.82 0.61
-4 0 -1 2.51 0.54
-4 0 -1 3.93 0.72
4 0 1 3.35 0.7
4 0 1 3.01 0.5
4 0 1 3.55 0.65
4 0 1 3.29 0.49
4 0 1 3.02 0.49
4 0 1 2.48 0.52
4 0 2 3.63 0.56
4 0 2 2.35 0.43
4 0 2 3.79 0.65
-4 0 -2 3.73 0.68
-4 0 -2 5.1 0.79
-4 0 -2 3.05 0.61
4 0 2 2.14 0.53
-4 0 -2 4.2 0.74
-4 0 -2 3.51 0.61
-4 0 -2 4.96 0.78
4 0 2 2.67 0.56
-4 0 -2 4.35 0.7
4 0 3 52.99 1.99
4 0 3 35.27 1.55
4 0 3 50.78 2.16
-4 0 -3 30.95 1.57
-4 0 -3 47.37 2.16
-4 0 -3 34.82 1.59
4 0 3 40.93 1.92
-4 0 -3 50.24 2.35
-4 0 -3 46.66 2.05
-4 0 -3 38.14 1.99
4 0 4 7.46 0.81
-4 0 -4 3.52 0.73
4 0 4 5.67 0.67
4 0 4 6.98 0.89
-4 0 -4 4.62 0.77
-4 0 -4 6.77 0.88
-4 0 -4 3.59 0.7
4 0 4 5.22 0.71
-4 0 -4 5 0.81
-4 0 -4 5.62 0.86
-4 0 -5 1 0.46
4 0 5 1.35 0.43
4 0 5 1.34 0.39
4 0 5 1.5 0.49
-4 0 -5 1.65 0.62
-4 0 -5 1.97 0.58
-4 0 -5 1.08 0.62
-4 0 -5 0.99 0.62
-4 0 -5 1.85 0.55
4 0 6 1.95 0.47
4 0 6 1.41 0.43
4 0 6 1.8 0.46
-4 0 -6 2.31 0.69
-4 0 -6 2.53 0.64
-4 0 -6 1.76 0.63
-4 0 -6 1.62 0.68
4 0 7 4.58 0.62
4 0 7 5.74 0.68
4 0 7 5.22 0.68
-4 0 -7 4.92 0.8
-4 0 -7 4.46 0.77
-4 0 -7 3.93 0.71
-4 0 -7 5.68 0.86
4 0 8 1.71 0.43
4 0 8 1.49 0.35
4 0 8 1.81 0.4
4 0 8 2.03 0.41
-4 0 -8 2.43 0.59
-4 0 -8 2.95 0.55
-4 0 -8 2.31 0.6
-4 0 -8 3.58 0.66
4 0 9 11.31 0.77
4 0 9 7.92 0.57
4 0 9 12.02 0.8
4 0 9 8.78 0.63
-4 0 -9 13.31 0.93
-4 0 -9 10.28 0.84
-4 0 -9 16.71 1.09
-4 0 -10 5.33 0.58
-4 0 -10 2.79 0.51
4 1 -12 0.59 0.37
-4 -1 11 1.7 0.34
-4 -1 10 20.06 0.82
-4 -1 10 19.12 1.05
-4 -1 9 6.46 0.6
-4 -1 9 7.89 0.6
-4 -1 9 6.46 0.66
4 1 -9 7.35 0.87
-4 -1 9 6.69 0.85
4 1 -9 9.07 0.88
-4 -1 8 0.7 0.34
-4 -1 8 0.41 0.52
-4 -1 8 0.63 0.33
4 1 -8 0.58 0.49
-4 -1 8 0.67 0.48
4 1 -8 1.1 0.43
4 1 -8 1.59 0.44
-4 -1 7 1.62 0.43
-4 -1 7 1.73 0.62
-4 -1 7 2.18 0.42
4 1 -7 3.23 0.71
-4 -1 7 2.64 0.61
4 1 -7 3.69 0.65
-4 -1 6 6.3 0.69
-4 -1 6 5.61 0.88
-4 -1 6 8.3 0.75
4 1 -6 6.42 0.71
4 1 -6 5.72 0.91
4 1 -6 6.31 0.91
-4 -1 6 6.53 0.8
4 1 -6 7.96 0.84
-4 -1 5 1.49 0.5
-4 -1 5 1.5 0.59
-4 -1 5 1.73 0.49
4 1 -5 0.82 0.34
4 1 -5 0.89 0.59
4 1 -5 1.17 0.51
-4 -1 5 1.29 0.48
4 1 -5 1.42 0.5
-4 -1 4 28.8 1.45
-4 -1 4 27.82 1.76
-4 -1 4 33.57 1.49
4 1 -4 32.22 1.55
4 1 -4 27.33 1.73
4 1 -4 30.45 1.78
-4 -1 4 33.96 1.6
4 1 -4 33.74 1.63
-4 -1 4 28.27 1.72
-4 -1 3 5 0.75
-4 -1 3 5.79 0.71
-4 -1 3 8.83 1.03
-4 -1 3 7.86 0.82
4 1 -3 11 0.98
4 1 -3 8.61 0.98
-4 -1 3 9.99 0.91
4 1 -3 11.91 1.02
-4 -1 3 6.84 0.94
-4 -1 2 2.97 0.72
-4 -1 2 2.62 0.67
4 1 -2 3.87 0.55
-4 -1 2 2.85 0.57
-4 -1 2 4.44 0.79
-4 -1 2 4.29 0.66
4 1 -2 4.41 0.67
4 1 -2 2.98 0.78
-4 -1 2 5.95 0.8
4 1 -2 4.94 0.74
4 1 -2 3.35 0.71
4 1 -1 4.08 0.52
4 1 -1 4.61 0.63
-4 -1 1 3.82 0.65
-4 -1 1 5.79 0.82
-4 -1 1 4.16 0.66
4 1 -1 5.38 0.73
-4 -1 1 6.66 0.79
4 1 -1 5.43 0.72
4 1 -1 3.86 0.73
-4 -1 1 4.55 0.81
-4 -1 0 2.59 0.66
4 1 0 3.46 0.5
4 1 0 4.19 0.61
-4 -1 0 3.06 0.65
-4 -1 0 3.2 0.66
-4 -1 0 2.76 0.63
4 1 0 4.5 0.68
-4 -1 0 3.16 0.62
4 1 0 3.4 0.67
4 1 0 3.46 0.6
4 1 1 3.81 0.55
4 1 1 4.65 0.66
-4 -1 -1 4.39 0.73
-4 -1 -1 4.58 0.75
-4 -1 -1 2.66 0.58
-4 -1 -1 3.89 0.7
4 1 1 4.53 0.69
-4 -1 -1 3.72 0.69
4 1 1 3.75 0.62
-4 -1 -1 4.7 0.81
4 1 2 7.91 0.77
4 1 2 9.48 0.9
-4 -1 -2 6.11 0.84
-4 -1 -2 7.11 0.89
-4 -1 -2 3.19 0.61
-4 -1 -2 5.59 0.79
4 1 2 6.82 0.85
-4 -1 -2 4.89 0.77
4 1 2 7.57 0.79
-4 -1 -2 5.56 0.84
-4 -1 -3 0.73 0.45
4 1 3 0.57 0.34
4 1 3 0.63 0.29
4 1 3 0.69 0.38
-4 -1 -3 1.29 0.58
-4 -1 -3 1.12 0.5
-4 -1 -3 1.38 0.6
4 1 3 0.4 0.35
-4 -1 -3 0.82 0.5
4 1 4 3.24 0.58
4 1 4 2 0.41
4 1 4 3.66 0.63
-4 -1 -4 2.97 0.69
-4 -1 -4 2.2 0.54
-4 -1 -4 1.96 0.65
4 1 4 2.51 0.52
-4 -1 -4 1.61 0.59
4 1 5 1.07 0.39
4 1 5 0.71 0.28
4 1 5 0.97 0.43
-4 -1 -5 1 0.55
-4 -1 -5 0.68 0.58
4 1 5 0.33 0.27
-4 -1 -5 0.93 0.48
4 1 6 5.36 0.64
4 1 6 5.08 0.68
-4 -1 -6 4.58 0.71
-4 -1 -6 4.2 0.74
-4 -1 -6 4.13 0.68
4 1 7 11.52 0.92
4 1 7 10.31 0.79
4 1 7 11.62 0.88
-4 -1 -7 15.75 1.02
-4 -1 -7 13.96 0.99
4 1 8 21.29 1.05
4 1 8 19.71 0.93
4 1 8 20.35 0.98
-4 -1 -8 18.46 1
-4 -1 -8 21.19 1.09
4 1 9 8.03 0.53
-4 -1 -9 7.31 0.56
-4 -1 -9 8.66 0.64
4 2 -11 3.18 0.62
4 2 -11 1.95 0.41
-4 -2 10 1.44 0.26
4 2 -10 1.33 0.41
4 2 -10 1.87 0.35
-4 -2 9 0.34 0.25
-4 -2 9 0.42 0.25
4 2 -9 -0.14 0.33
-4 -2 9 0.34 0.3
4 2 -9 0.55 0.28
-4 -2 8 1.58 0.41
-4 -2 8 2.24 0.42
4 2 -8 1.02 0.52
-4 -2 8 1.14 0.42
4 2 -8 1.28 0.42
-4 -2 7 8.59 0.75
-4 -2 7 5.94 0.84
-4 -2 7 9.29 0.73
4 2 -7 9.38 1.07
4 2 -7 5.64 0.76
-4 -2 7 7.5 0.75
4 2 -7 7.6 0.82
-4 -2 6 1.16 0.42
-4 -2 6 0.7 0.47
-4 -2 6 1.33 0.44
4 2 -6 0.97 0.58
4 2 -6 0.56 0.44
-4 -2 6 0.98 0.42
4 2 -6 0.74 0.42
-4 -2 5 4.35 0.62
-4 -2 5 2.56 0.64
-4 -2 5 4.39 0.62
4 2 -5 2.82 0.49
4 2 -5 3.87 0.81
4 2 -5 2.98 0.67
-4 -2 5 3.39 0.59
4 2 -5 3 0.64
4 2 -5 2.39 0.44
-4 -2 4 6.76 0.76
-4 -2 4 5.18 0.8
-4 -2 4 7.21 0.77
4 2 -4 7.88 0.74
4 2 -4 7.16 0.99
4 2 -4 6 0.85
-4 -2 4 5.5 0.7
4 2 -4 5.99 0.66
4 2 -4 6.93 0.89
-4 -2 3 3.55 0.63
-4 -2 3 2.14 0.63
-4 -2 3 2.07 0.48
-4 -2 3 3.74 0.65
4 2 -3 2.83 0.53
4 2 -3 2.24 0.69
-4 -2 3 2.17 0.52
4 2 -3 2.94 0.63
4 2 -3 2.63 0.53
-4 -2 2 5.25 0.75
-4 -2 2 2.52 0.76
-4 -2 2 2.42 0.52
-4 -2 2 7.19 0.83
4 2 -2 7.17 0.83
4 2 -2 2.42 0.63
-4 -2 2 4 0.71
4 2 -2 7.13 0.78
4 2 -2 6.35 0.84
4 2 -1 8.55 0.72
-4 -2 1 10.75 0.95
-4 -2 1 7.77 0.95
-4 -2 1 9.62 0.87
-4 -2 1 10.09 0.92
4 2 -1 11.22 0.95
-4 -2 1 7.96 0.87
4 2 -1 10.68 0.9
4 2 -1 8.77 0.96
4 2 0 0.48 0.28
4 2 0 0.46 0.26
-4 -2 0 0.48 0.48
-4 -2 0 0.13 0.36
-4 -2 0 0.35 0.43
-4 -2 0 0.63 0.54
4 2 0 0.61 0.41
-4 -2 0 0.6 0.39
4 2 0 0.58 0.38
4 2 0 0.44 0.33
4 2 1 3.78 0.51
4 2 1 4.16 0.57
-4 -2 -1 6.02 0.78
-4 -2 -1 4.57 0.65
-4 -2 -1 5.84 0.78
4 2 1 4.9 0.7
4 2 1 3.67 0.56
4 2 2 0.55 0.29
4 2 2 0.68 0.31
-4 -2 -2 1.4 0.5
-4 -2 -2 1 0.46
-4 -2 -2 1.6 0.59
4 2 2 0.31 0.35
-4 -2 -2 0.64 0.41
4 2 3 1.33 0.37
4 2 3 1.57 0.39
-4 -2 -3 1.65 0.51
-4 -2 -3 1.34 0.51
-4 -2 -3 2.02 0.58
4 2 3 1.02 0.38
-4 -2 -3 1.22 0.44
4 2 4 1.96 0.46
4 2 4 7.15 0.67
4 2 4 7.54 0.7
-4 -2 -4 7.61 0.73
-4 -2 -4 6.42 0.73
-4 -2 -4 7.88 0.79
4 2 4 5.22 0.6
-4 -2 -4 3.25 0.53
4 2 5 0.92 0.33
4 2 5 1.8 0.38
4 2 5 2.27 0.41
-4 -2 -5 3.5 0.51
-4 -2 -5 2.91 0.53
-4 -2 -5 4.37 0.61
4 2 5 1.76 0.33
-4 -2 -5 0.96 0.37
4 2 6 0.62 0.24
4 2 6 0.89 0.26
4 2 6 1.03 0.27
-4 -2 -6 1.85 0.44
-4 -2 -6 1.23 0.42
-4 -2 -6 1.78 0.43
-4 -2 -6 0.55 0.35
4 2 7 1.53 0.27
4 2 7 1.66 0.29
-4 -2 -7 2.37 0.41
-4 -3 9 2.21 0.3
-4 -3 9 3.05 0.3
4 3 -9 2.8 0.43
-4 -3 8 12.52 0.65
-4 -3 8 13.28 0.61
4 3 -8 12.19 0.87
4 3 -8 12.96 0.76
-4 -3 7 8.52 0.59
-4 -3 7 7.78 0.52
4 3 -7 9.27 0.83
4 3 -7 9.51 0.72
-4 -3 6 1.02 0.32
-4 -3 6 0.82 0.28
4 3 -6 0.73 0.42
4 3 -6 1.06 0.41
4 3 -6 0.87 0.31
-4 -3 5 2.9 0.43
-4 -3 5 1.67 0.28
-4 -3 5 2.2 0.37
4 3 -5 2.11 0.53
4 3 -5 3.07 0.56
4 3 -5 2.98 0.5
-4 -3 4 4.61 0.54
-4 -3 4 2.58 0.38
-4 -3 4 2.78 0.43
4 3 -4 3.78 0.45
4 3 -4 4.12 0.67
4 3 -4 4.47 0.61
-4 -3 3 12.94 0.81
-4 -3 3 11.91 0.78
4 3 -3 13.4 0.81
4 3 -3 12.74 1.03
4 3 -3 14.52 1.01
-4 -3 2 17.66 0.95
-4 -3 2 13.46 0.81
-4 -3 2 20.16 0.99
4 3 -2 17.54 0.96
4 3 -2 9.88 0.88
-4 -3 2 7.99 0.59
4 3 -2 13.91 1.01
-4 -3 1 20.89 1
-4 -3 1 16.29 0.9
-4 -3 1 13.41 0.82
4 3 -1 20.68 1.03
-4 -3 1 12.88 0.76
4 3 -1 15.37 1
-4 -3 0 1.06 0.34
-4 -3 0 1.06 0.38
-4 -3 0 0.6 0.34
4 3 0 0.59 0.28
-4 -3 0 0.74 0.29
4 3 0 0.51 0.27
4 3 1 0.63 0.23
-4 -3 -1 0.95 0.31
-4 -3 -1 0.71 0.32
-4 -3 -1 0.21 0.28
4 3 1 0.78 0.28
-4 -3 -1 0.8 0.29
4 3 2 0.76 0.23
4 3 2 0.67 0.23
-4 -3 -2 0.72 0.29
-4 -3 -2 0.69 0.31
-4 -3 -2 0.49 0.27
4 3 2 0.5 0.24
-4 -3 -2 0.78 0.32
4 3 3 2.22 0.32
-4 -3 -3 3.43 0.44
-4 -3 -3 2.44 0.38
4 3 3 2.82 0.37
-4 -3 -3 1.9 0.35
-4 -3 -4 4.19 0.41
5 -5 -4 2.59 0.33
5 -5 -3 6.32 0.51
5 -5 -3 7.64 0.52
5 -5 -2 1.87 0.31
5 -5 -2 2.02 0.3
-5 5 2 2.9 0.33
5 -5 -1 29.18 1.05
5 -5 -1 30.9 1
5 -5 -1 31.08 0.97
5 -5 0 1.87 0.31
5 -5 0 1.89 0.29
-5 5 0 1.33 0.23
5 -5 1 2.57 0.32
-5 5 -1 2.25 0.29
5 -5 1 2.33 0.31
-5 5 -1 2.43 0.31
-5 5 -1 2.25 0.3
-5 5 -1 1.97 0.28
5 -5 2 4.54 0.38
-5 5 -2 5.69 0.43
5 -5 2 4.83 0.43
-5 5 -2 5.35 0.43
-5 5 -2 5.49 0.45
-5 5 -2 4.75 0.41
-5 5 -3 8.37 0.51
5 -5 3 7.97 0.52
-5 5 -3 8.38 0.54
-5 5 -3 7.4 0.48
-5 5 -4 14.84 0.65
5 -5 4 12.65 0.61
-5 5 -4 14.48 0.69
-5 5 -4 12.19 0.55
-5 5 -5 1.55 0.21
5 -5 5 1.58 0.22
-5 5 -5 1.31 0.21
5 -4 -7 0.43 0.24
5 -4 -6 0.15 0.23
5 -4 -6 0.43 0.26
-5 4 6 0.2 0.15
5 -4 -5 0.3 0.25
5 -4 -5 0.6 0.32
-5 4 5 0.69 0.23
5 -4 -4 5.59 0.61
5 -4 -4 7.23 0.74
-5 4 4 6.73 0.58
5 -4 -3 1.3 0.4
-5 4 3 1.28 0.3
5 -4 -3 1.8 0.44
-5 4 3 1.14 0.31
-5 4 3 1.63 0.33
-5 4 2 17.2 0.98
5 -4 -2 13.35 1.04
5 -4 -2 16.07 1.09
-5 4 2 19.26 1.08
-5 4 2 16.07 0.96
-5 4 2 19.83 1.08
5 -4 -1 2.31 0.46
5 -4 -1 2.41 0.43
-5 4 1 1.88 0.38
5 -4 -1 2.29 0.47
-5 4 1 1.82 0.39
-5 4 1 1.53 0.39
-5 4 1 1.66 0.36
-5 4 0 0.52 0.23
5 -4 0 1.05 0.4
-5 4 0 0.69 0.3
5 -4 0 1.44 0.34
5 -4 0 1.25 0.38
-5 4 0 0.7 0.3
-5 4 -1 0.27 0.21
5 -4 1 0.02 0.25
-5 4 -1 0.73 0.3
5 -4 1 0.13 0.22
5 -4 1 0.15 0.24
-5 4 -1 0.29 0.24
5 -4 2 19.74 1.04
-5 4 -2 23.36 1.21
5 -4 2 20.62 1.07
5 -4 2 18.67 0.95
-5 4 -2 22.77 1.24
-5 4 -2 18.4 1.01
-5 4 -3 0.18 0.16
5 -4 3 0.15 0.21
5 -4 3 0.11 0.2
-5 4 -3 0.09 0.22
-5 4 -3 0.32 0.24
5 -4 4 4.92 0.45
-5 4 -4 6.69 0.63
5 -4 4 5.33 0.52
-5 4 -4 5.85 0.62
-5 4 -4 5.93 0.49
-5 4 -5 5.19 0.52
5 -4 5 4.93 0.48
-5 4 -5 4.91 0.52
-5 4 -6 5.95 0.52
5 -4 6 5.19 0.45
-5 4 -6 4.95 0.43
-5 4 -6 6.57 0.53
-5 4 -7 3.96 0.38
5 -4 7 3.74 0.35
-5 4 -7 4.55 0.4
5 -3 -8 5.35 0.64
-5 3 8 4.94 0.48
5 -3 -7 0.56 0.34
-5 3 7 1.04 0.3
5 -3 -6 -0.14 0.24
5 -3 -6 0.24 0.32
-5 3 6 -0.04 0.23
-5 3 5 18.66 1.12
5 -3 -5 20.44 1.16
5 -3 -5 22.38 1.48
-5 3 4 9.65 0.86
5 -3 -4 11.26 0.93
5 -3 -4 11.75 1.09
-5 3 4 12.13 0.96
-5 3 3 2.69 0.52
5 -3 -3 2.31 0.51
5 -3 -3 2.23 0.64
-5 3 3 2.54 0.56
-5 3 3 2.39 0.5
-5 3 3 2.98 0.52
-5 3 2 -0.09 0.2
5 -3 -2 0.26 0.37
-5 3 2 0.07 0.26
5 -3 -2 0.61 0.47
-5 3 2 0.1 0.25
5 -3 -1 3.91 0.67
-5 3 1 4.06 0.62
5 -3 -1 4.21 0.73
-5 3 1 3.78 0.63
-5 3 1 3.21 0.54
5 -3 0 3.65 0.65
-5 3 0 4.62 0.66
5 -3 0 4.13 0.55
5 -3 0 3.09 0.62
-5 3 0 4.14 0.64
-5 3 0 3.77 0.56
5 -3 1 17.22 1.14
-5 3 -1 18.79 1.25
5 -3 1 14.66 0.97
5 -3 1 15.92 1.15
-5 3 -1 15.48 1.03
-5 3 -1 17.67 1.22
-5 3 -1 15.99 1.02
5 -3 2 13.48 0.99
-5 3 -2 10.2 0.92
5 -3 2 11.97 0.88
5 -3 2 11.92 0.95
-5 3 -2 9.74 0.84
-5 3 -2 10.85 0.97
-5 3 -2 9.75 0.76
5 -3 3 2.56 0.49
5 -3 3 2.97 0.47
-5 3 -3 2.24 0.47
5 -3 3 2.31 0.44
-5 3 -3 2.2 0.44
-5 3 -3 2.25 0.49
5 -3 4 7.02 0.66
-5 3 -4 4.69 0.65
5 -3 4 6.69 0.65
5 -3 4 4.59 0.52
-5 3 -4 5.16 0.63
-5 3 -4 5.83 0.68
-5 3 -4 3.76 0.47
5 -3 5 0.38 0.21
5 -3 5 0.62 0.25
-5 3 -5 0.82 0.31
-5 3 -5 0.53 0.3
-5 3 -5 0.7 0.29
-5 3 -5 0.69 0.26
5 -3 6 2.81 0.33
-5 3 -6 4.19 0.5
5 -3 6 3.72 0.45
-5 3 -6 3.58 0.5
-5 3 -6 2.92 0.4
-5 3 -7 5.4 0.5
5 -3 7 4.76 0.46
-5 3 -7 3.79 0.51
-5 3 -7 2.89 0.39
5 -3 8 1.37 0.24
-5 3 -8 1.24 0.32
-5 2 10 0.97 0.24
-5 2 9 2.72 0.4
5 -2 -8 2.14 0.45
-5 2 8 1.76 0.38
5 -2 -7 2.36 0.49
-5 2 7 3.42 0.53
5 -2 -6 11.64 1.05
-5 2 6 11.93 0.97
-5 2 5 3.39 0.6
5 -2 -5 2.15 0.43
5 -2 -5 2.33 0.57
-5 2 5 3.72 0.6
5 -2 -4 1.88 0.44
-5 2 4 3.07 0.57
5 -2 -4 2.15 0.58
-5 2 4 2.59 0.61
-5 2 4 2.76 0.57
5 -2 -4 1.79 0.56
5 -2 -3 0.62 0.37
-5 2 3 0.11 0.31
5 -2 -3 0.49 0.41
-5 2 3 0.39 0.35
-5 2 3 0.1 0.29
-5 2 3 0.09 0.28
-5 2 3 0.1 0.29
5 -2 -3 0.58 0.52
5 -2 -2 9.35 0.9
-5 2 2 8.02 0.89
5 -2 -2 8.28 1.02
-5 2 2 7 0.82
-5 2 2 8.04 0.9
-5 2 2 7.83 0.73
5 -2 -2 6.16 0.9
5 -2 -1 22.81 1.34
-5 2 1 23.35 1.44
5 -2 -1 22.69 1.56
-5 2 1 21.01 1.37
5 -2 -1 17.32 1.34
-5 2 1 22.04 1.44
5 -2 0 72.07 2.34
-5 2 0 59.73 2.24
5 -2 0 65.74 2.49
-5 2 0 56.45 2.21
5 -2 0 64.75 2.36
-5 2 0 61.68 2.34
-5 2 0 57.99 1.88
5 -2 1 54.8 2.03
-5 2 -1 50.45 2.04
5 -2 1 40.88 1.56
5 -2 1 46.15 2.03
-5 2 -1 47.33 2.02
5 -2 1 39.94 1.82
-5 2 -1 49.47 2.08
-5 2 -1 44.87 1.68
5 -2 2 21.55 1.27
-5 2 -2 20.05 1.27
5 -2 2 14.56 0.96
5 -2 2 18.28 1.26
-5 2 -2 19.54 1.32
5 -2 2 13.55 1.02
-5 2 -2 19.03 1.29
-5 2 -2 16.17 1.08
5 -2 3 1.59 0.44
5 -2 3 0.78 0.27
-5 2 -3 1.43 0.4
5 -2 3 0.77 0.37
-5 2 -3 2.01 0.51
-5 2 -3 1.55 0.41
-5 2 -3 1.32 0.43
5 -2 4 5.21 0.63
-5 2 -4 4.04 0.59
5 -2 4 4.95 0.57
5 -2 4 4.02 0.58
-5 2 -4 3.76 0.65
-5 2 -4 4.44 0.61
-5 2 -4 2.69 0.53
5 -2 5 2.46 0.43
-5 2 -5 3.43 0.53
5 -2 5 2.37 0.41
5 -2 5 2.05 0.4
-5 2 -5 3.7 0.6
-5 2 -5 3.02 0.51
-5 2 -5 2.72 0.53
5 -2 6 13.48 0.79
5 -2 6 17.11 0.95
5 -2 6 11.41 0.72
-5 2 -6 18.22 1.16
-5 2 -6 14.14 0.93
5 -2 7 0.98 0.24
5 -2 7 1.61 0.3
-5 2 -7 1.06 0.31
-5 2 -7 1.81 0.39
-5 2 -7 1.76 0.39
5 -2 8 1.87 0.29
-5 2 -8 1.49 0.38
-5 1 10 0.29 0.2
5 -1 -10 0.17 0.26
-5 1 9 4.17 0.5
-5 1 8 5.72 0.62
-5 1 8 4.29 0.47
5 -1 -7 14.39 1.01
-5 1 7 13.37 0.97
-5 1 7 13.88 0.87
5 -1 -6 5.59 0.67
-5 1 6 3.63 0.62
5 -1 -6 5.13 0.68
-5 1 6 5.23 0.63
-5 1 6 4.95 0.59
-5 1 5 4.53 0.72
5 -1 -5 5.16 0.68
-5 1 5 4.7 0.73
5 -1 -5 4.96 0.72
-5 1 5 4.37 0.64
-5 1 5 5.25 0.64
-5 1 4 5.62 0.79
5 -1 -4 6.75 0.8
-5 1 4 5.4 0.8
5 -1 -4 7.53 0.89
-5 1 4 5.03 0.71
-5 1 4 6.74 0.71
5 -1 -4 6.72 0.86
5 -1 -3 4.24 0.57
-5 1 3 3.88 0.68
5 -1 -3 4.78 0.69
-5 1 3 3.78 0.71
5 -1 -3 4.55 0.77
-5 1 3 2.8 0.54
-5 1 3 3.7 0.68
-5 1 3 4.07 0.62
5 -1 -3 3.87 0.74
5 -1 -2 9.45 0.81
-5 1 2 8.35 0.89
5 -1 -2 8.86 0.91
-5 1 2 8.21 0.96
5 -1 -2 10.19 1.02
-5 1 2 5.58 0.78
-5 1 2 8 0.9
-5 1 2 9.08 0.85
5 -1 -2 6.4 0.87
5 -1 -1 2.88 0.56
-5 1 1 3.97 0.72
5 -1 -1 2.82 0.65
-5 1 1 3.84 0.77
5 -1 -1 1.69 0.56
-5 1 1 2.84 0.62
5 -1 -1 3.16 0.66
5 -1 0 20.83 1.22
-5 1 0 19.23 1.25
5 -1 0 19.11 1.33
-5 1 0 21.81 1.48
5 -1 0 19.79 1.33
-5 1 0 18.7 1.31
-5 1 0 18.75 1.23
5 -1 1 9.44 0.87
-5 1 -1 8.79 0.87
5 -1 1 10.12 1
-5 1 -1 10.76 1.06
5 -1 1 8.48 0.9
-5 1 -1 8.64 0.93
-5 1 -1 8.84 0.89
5 -1 2 3.5 0.57
-5 1 -2 3.17 0.53
5 -1 2 2.52 0.41
5 -1 2 3.12 0.61
-5 1 -2 2.54 0.47
-5 1 -2 4.19 0.7
5 -1 2 2.13 0.51
-5 1 -2 2.66 0.56
-5 1 -2 3.39 0.61
5 -1 3 6.9 0.72
-5 1 -3 3.98 0.58
5 -1 3 4.37 0.52
5 -1 3 5.73 0.74
-5 1 -3 3.41 0.51
-5 1 -3 5.68 0.8
5 -1 3 4.94 0.63
-5 1 -3 3.96 0.61
-5 1 -3 4.1 0.65
5 -1 4 4.98 0.6
5 -1 4 3.98 0.5
5 -1 4 4.14 0.6
-5 1 -4 2.86 0.49
-5 1 -4 5 0.72
-5 1 -4 3.3 0.63
5 -1 5 1.72 0.39
5 -1 5 1.54 0.34
5 -1 5 1.75 0.4
-5 1 -5 1.03 0.37
-5 1 -5 1.95 0.49
-5 1 -5 1.04 0.44
5 -1 6 7.82 0.64
5 -1 6 7.81 0.62
5 -1 6 7.23 0.62
-5 1 -6 7.33 0.6
-5 1 -6 8.43 0.78
5 -1 7 1.25 0.3
5 -1 7 1.91 0.32
5 -1 7 1.78 0.3
5 -1 7 1.46 0.27
-5 1 -7 1.75 0.35
-5 1 -7 2.55 0.45
-5 1 -7 2.04 0.4
5 -1 8 2.39 0.28
-5 1 -8 2.42 0.35
5 0 -10 2.27 0.49
-5 0 9 15.11 0.78
-5 0 9 12.39 0.72
-5 0 8 5.16 0.51
-5 0 8 5.31 0.56
-5 0 7 3.33 0.61
5 0 -7 5.33 0.57
-5 0 7 4.21 0.49
-5 0 7 4.9 0.61
-5 0 6 0.57 0.45
5 0 -6 0.7 0.31
-5 0 6 0.64 0.37
-5 0 5 4.44 0.75
5 0 -5 5.16 0.7
-5 0 5 6.04 0.7
-5 0 4 4.06 0.64
5 0 -4 6.22 0.64
-5 0 4 4.61 0.77
5 0 -4 6.25 0.75
-5 0 4 5.56 0.68
-5 0 3 5.39 0.71
5 0 -3 3.49 0.54
-5 0 3 2.53 0.45
-5 0 3 9.26 1.04
5 0 -3 6.9 0.84
-5 0 3 5.93 0.73
5 0 -2 16.48 0.95
-5 0 2 14.35 1.1
5 0 -2 18.1 1.14
-5 0 2 12.44 0.85
-5 0 2 17.7 1.38
5 0 -2 19.04 1.29
-5 0 2 19.65 1.2
5 0 -2 14.58 1.08
5 0 -2 13.75 1.15
5 0 -1 9.22 0.76
-5 0 1 7.03 0.77
5 0 -1 10.14 0.93
-5 0 1 6.77 0.69
-5 0 1 11.13 1.11
5 0 -1 10.27 1
-5 0 1 12.11 0.99
5 0 -1 5.81 0.76
5 0 0 4.9 0.58
5 0 0 6.13 0.74
-5 0 0 3.8 0.57
-5 0 0 5.32 0.78
-5 0 0 3.03 0.47
5 0 0 6.13 0.76
-5 0 0 6.14 0.75
5 0 1 0.69 0.3
5 0 1 0.34 0.3
-5 0 -1 0.49 0.4
-5 0 -1 0.61 0.41
-5 0 -1 0.65 0.34
5 0 1 0.65 0.36
-5 0 -1 0.45 0.4
5 0 2 1.83 0.41
5 0 2 1.61 0.44
-5 0 -2 1.32 0.47
-5 0 -2 1.42 0.47
-5 0 -2 0.86 0.38
5 0 2 1.51 0.43
-5 0 -2 1.21 0.46
5 0 3 3.78 0.54
5 0 3 3.98 0.58
-5 0 -3 3.71 0.57
-5 0 -3 4.95 0.69
-5 0 -3 3 0.46
5 0 3 2.68 0.45
-5 0 -3 3.14 0.56
5 0 4 3.22 0.46
5 0 4 1.75 0.31
5 0 4 2.54 0.46
-5 0 -4 2.93 0.52
-5 0 -4 3.54 0.55
-5 0 -4 2.86 0.42
-5 0 -4 2.59 0.5
5 0 5 0.17 0.21
5 0 5 0.08 0.14
5 0 5 0.14 0.19
-5 0 -5 0.78 0.36
-5 0 -5 0.53 0.29
-5 0 -5 0.55 0.29
-5 0 -5 0.34 0.29
5 0 6 2.13 0.35
5 0 6 2.34 0.35
-5 0 -6 2.68 0.41
-5 0 -6 2.19 0.39
-5 0 -6 2.53 0.38
-5 0 -6 2.77 0.44
5 0 7 0.87 0.21
-5 0 -7 1.6 0.31
5 1 -9 8 0.72
5 1 -9 9.21 0.65
5 1 -8 7.39 0.77
5 1 -8 8.4 0.7
-5 -1 7 4.34 0.62
5 1 -7 5.77 0.74
-5 -1 7 4.69 0.52
-5 -1 6 1.22 0.29
-5 -1 6 2.8 0.58
-5 -1 6 1.44 0.27
5 1 -6 1.51 0.32
5 1 -6 1.95 0.54
-5 -1 6 1.96 0.41
5 1 -6 2.19 0.47
-5 -1 5 5.79 0.53
-5 -1 5 5.11 0.74
-5 -1 5 4.86 0.43
5 1 -5 7.37 0.65
5 1 -5 6.24 0.79
-5 -1 5 8.75 0.73
5 1 -5 7.42 0.8
-5 -1 4 6.54 0.6
-5 -1 4 7.86 0.87
-5 -1 4 4.91 0.47
5 1 -4 9.82 0.8
5 1 -4 7.93 0.86
-5 -1 4 9.42 0.76
5 1 -4 9.88 0.91
-5 -1 3 7.41 0.66
-5 -1 3 12.33 1.05
-5 -1 3 6.07 0.56
5 1 -3 9.53 0.82
-5 -1 3 11.01 0.83
5 1 -3 8.47 0.85
5 1 -2 9.41 0.71
-5 -1 2 9.07 0.75
-5 -1 2 10.5 0.98
-5 -1 2 8.88 0.67
5 1 -2 11.75 0.91
-5 -1 2 12.08 0.85
5 1 -2 8.23 0.82
5 1 -1 3.96 0.45
5 1 -1 5.02 0.55
-5 -1 1 4.69 0.57
-5 -1 1 5.72 0.74
-5 -1 1 3.95 0.48
5 1 -1 6.83 0.72
-5 -1 1 5.14 0.6
5 1 -1 2.98 0.5
5 1 0 2.7 0.4
5 1 0 3.3 0.47
-5 -1 0 2.8 0.5
-5 -1 0 3.22 0.56
-5 -1 0 2.12 0.39
5 1 0 3.94 0.56
-5 -1 0 3.14 0.48
5 1 1 4.17 0.48
5 1 1 4.83 0.55
-5 -1 -1 4.22 0.56
-5 -1 -1 5.05 0.65
-5 -1 -1 3.84 0.47
5 1 1 5.29 0.6
-5 -1 -1 4.57 0.54
5 1 2 8.11 0.64
5 1 2 9.61 0.74
-5 -1 -2 11.41 0.79
-5 -1 -2 10.12 0.8
-5 -1 -2 9.39 0.65
5 1 2 7.83 0.67
-5 -1 -2 12.69 0.78
5 1 3 10.31 0.68
5 1 3 10.96 0.75
-5 -1 -3 12.82 0.78
-5 -1 -3 10.51 0.65
5 1 3 8.02 0.61
-5 -1 -3 15.11 0.79
5 1 4 0.34 0.23
5 1 4 0.49 0.21
5 1 4 0.32 0.18
-5 -1 -4 0.58 0.29
-5 -1 -4 0.69 0.3
-5 -1 -4 0.74 0.28
5 1 5 0.68 0.19
5 1 5 0.78 0.21
-5 -1 -5 0.88 0.27
-5 -1 -5 1.18 0.26
5 2 -7 1.91 0.31
-5 -2 6 3.9 0.35
-5 -2 6 3.06 0.28
5 2 -6 4.34 0.49
-5 -2 6 2.77 0.35
5 2 -6 4.87 0.5
-5 -2 5 1.22 0.29
-5 -2 5 0.77 0.25
5 2 -5 0.87 0.24
5 2 -5 0.92 0.33
-5 -2 5 1.71 0.33
5 2 -5 1.17 0.33
-5 -2 4 14.51 0.69
5 2 -4 13.81 0.7
-5 -2 4 12.63 0.68
5 2 -4 13.06 0.82
-5 -2 3 8.36 0.56
-5 -2 3 4.76 0.57
-5 -2 3 10.41 0.57
5 2 -3 8.61 0.6
-5 -2 3 4.91 0.48
5 2 -3 5.93 0.57
-5 -2 2 4.1 0.42
-5 -2 2 3.08 0.47
-5 -2 2 3.88 0.41
-5 -2 2 3.78 0.43
5 2 -2 3.09 0.42
-5 -2 1 5.21 0.46
5 2 -1 5.46 0.5
-5 -2 0 5.6 0.47
5 2 0 4.5 0.46
-5 -2 -1 6.48 0.46
5 2 1 7.61 0.54
-5 -2 -2 1.76 0.26
-5 -2 -2 1.3 0.22
6 -3 -4 2.05 0.28
6 -3 -4 1.24 0.25
-6 3 4 1.73 0.23
-6 3 3 0.55 0.21
6 -3 -3 0.58 0.21
6 -3 -3 0.29 0.21
-6 3 3 0.49 0.18
-6 3 2 6.51 0.54
6 -3 -2 7.56 0.55
6 -3 -2 6.36 0.49
-6 3 2 7.03 0.5
6 -3 -1 3.2 0.36
-6 3 1 2.78 0.37
6 -3 -1 2.57 0.34
6 -3 -1 1.91 0.28
-6 3 1 1.51 0.28
-6 3 1 1.94 0.34
6 -3 0 0.94 0.23
-6 3 0 0.58 0.21
6 -3 0 0.5 0.2
-6 3 0 0.36 0.19
-6 3 0 0.56 0.22
6 -3 1 1.52 0.26
-6 3 -1 2.48 0.33
6 -3 1 1.29 0.24
-6 3 -1 1.31 0.26
-6 3 -1 2.2 0.34
6 -3 2 6.36 0.43
-6 3 -2 6.17 0.49
6 -2 -5 19.79 0.84
-6 2 5 15.84 0.68
6 -2 -4 5.03 0.45
6 -2 -4 4.96 0.48
-6 2 4 3.92 0.38
-6 2 3 4.82 0.49
6 -2 -3 6.99 0.45
6 -2 -3 6.67 0.54
6 -2 -3 6.94 0.58
-6 2 3 5.18 0.44
-6 2 2 1.69 0.34
6 -2 -2 1.63 0.27
6 -2 -2 1.16 0.28
-6 2 2 1.31 0.29
6 -2 -2 1.54 0.33
-6 2 2 0.87 0.24
6 -2 -1 1.73 0.28
-6 2 1 1.48 0.31
6 -2 -1 1.55 0.3
-6 2 1 1.13 0.3
6 -2 -1 1.74 0.32
-6 2 1 1.08 0.26
-6 2 1 1.53 0.27
6 -2 0 1.87 0.31
-6 2 0 1.41 0.3
6 -2 0 1.41 0.29
-6 2 0 1.18 0.3
6 -2 0 0.59 0.24
-6 2 0 1.14 0.25
-6 2 -1 17.59 0.84
6 -2 1 16.43 0.8
-6 2 -1 16.12 0.81
-6 2 -1 18.27 0.67
6 -2 2 6.5 0.47
6 -2 2 5.45 0.45
-6 2 -2 5.56 0.49
-6 2 -2 6.5 0.41
6 -2 3 2.55 0.29
-6 2 -3 2.71 0.32
6 -1 -5 1.62 0.29
6 -1 -5 1.22 0.27
-6 1 4 2.83 0.37
-6 1 4 3.26 0.33
6 -1 -4 3.78 0.41
6 -1 -3 0.94 0.25
-6 1 3 1.1 0.32
6 -1 -3 1.11 0.29
-6 1 3 1.39 0.28
6 -1 -2 10.05 0.63
-6 1 2 12.01 0.77
6 -1 -2 11.5 0.71
-6 1 2 12.24 0.64
6 -1 -1 26.29 0.88
6 -1 -1 26.56 1.04
6 -1 -1 23.04 0.97
-6 1 1 23.36 0.86
6 -1 0 37.3 1.05
6 -1 0 40.33 1.23
-6 1 0 35.22 1.27
6 -1 0 32.16 1.05
-6 1 0 39.72 1.1
6 -1 1 3.62 0.36
6 -1 1 3.23 0.38
-6 1 -1 4.12 0.47
-6 1 -1 4.09 0.4
6 -1 2 2.59 0.29
6 -1 2 2.34 0.3
-6 1 -2 2.95 0.37
-6 1 -2 3.34 0.34
-6 0 4 1.01 0.25
-6 0 4 1.64 0.23
-6 0 3 4.02 0.43
6 0 -3 3.84 0.37
-6 0 3 4.31 0.36
-6 0 2 3.67 0.42
6 0 -2 4.18 0.39
-6 0 2 4.82 0.39
-6 0 1 0.79 0.23
6 0 -1 0.73 0.2
-6 0 1 1.22 0.23
-6 0 0 3.17 0.3
