#------------------------------------------------------------------------------
#$Date: 2019-11-23 22:35:38 +0200 (Sat, 23 Nov 2019) $
#$Revision: 235375 $
#$URL: file:///home/coder/svn-repositories/cod/cif/1/55/36/1553652.cif $
#------------------------------------------------------------------------------
#
# This file is available in the Crystallography Open Database (COD),
# http://www.crystallography.net/
#
# All data on this site have been placed in the public domain by the
# contributors.
#
data_1553652
loop_
_publ_author_name
'Li, Tianyue'
'Hu, Yue'
'Morrison, Carole A.'
'Wu, Wenjun'
'Han, Hongwei'
'Robertson, Neil'
_publ_section_title
;
 Lead-free pseudo-three-dimensional organic--inorganic iodobismuthates for
 photovoltaic applications
;
_journal_issue                   2
_journal_name_full               'Sustainable Energy &amp; Fuels'
_journal_page_first              308
_journal_paper_doi               10.1039/C6SE00061D
_journal_volume                  1
_journal_year                    2017
_chemical_formula_moiety         'Bi I4, C6 H8 N'
_chemical_formula_sum            'C6 H8 Bi I4 N'
_chemical_formula_weight         810.71
_chemical_name_systematic        '1-Methylpyridinium iodobismuthate'
_space_group_crystal_system      monoclinic
_space_group_IT_number           14
_space_group_name_Hall           '-P 2ybc'
_space_group_name_H-M_alt        'P 1 21/c 1'
_atom_sites_solution_hydrogens   geom
_audit_creation_date             2015-12-11
_audit_creation_method
;
Olex2 1.2-beta
(compiled 2015.11.10 svn.r3248 for OlexSys, GUI svn.r5133)
;
_audit_update_record
;
2016-10-03 deposited with the CCDC.
2017-01-30 downloaded from the CCDC.
;
_cell_angle_alpha                90
_cell_angle_beta                 92.959(6)
_cell_angle_gamma                90
_cell_formula_units_Z            4
_cell_length_a                   7.7618(5)
_cell_length_b                   14.0412(8)
_cell_length_c                   13.1959(8)
_cell_measurement_reflns_used    6531
_cell_measurement_temperature    120.00
_cell_measurement_theta_max      30.3020
_cell_measurement_theta_min      4.1260
_cell_volume                     1436.24(15)
_computing_cell_refinement
;
CrysAlisPro, Agilent Technologies,
Version 1.171.37.35 (release 13-08-2014 CrysAlis171 .NET)
(compiled Aug 13 2014,18:06:01)
;
_computing_data_collection
;
CrysAlisPro, Agilent Technologies,
Version 1.171.37.35 (release 13-08-2014 CrysAlis171 .NET)
(compiled Aug 13 2014,18:06:01)
;
_computing_data_reduction
;
CrysAlisPro, Agilent Technologies,
Version 1.171.37.35 (release 13-08-2014 CrysAlis171 .NET)
(compiled Aug 13 2014,18:06:01)
;
_computing_molecular_graphics    'Olex2 (Dolomanov et al., 2009)'
_computing_publication_material  'Olex2 (Dolomanov et al., 2009)'
_computing_structure_refinement  'ShelXL (Sheldrick, 2015)'
_diffrn_ambient_environment      N~2~
_diffrn_ambient_temperature      120.00
_diffrn_detector                 'CCD plate'
_diffrn_detector_area_resol_mean 5.1574
_diffrn_detector_type            Atlas
_diffrn_measured_fraction_theta_full 0.999
_diffrn_measured_fraction_theta_max 0.958
_diffrn_measurement_details
;
#__ type_ start__ end____ width___ exp.time_
  1 omega -103.00  -55.00   1.0000   10.0000
omega____ theta____ kappa____ phi______ frames
    -      -14.6872  178.0000   60.0000 48

#__ type_ start__ end____ width___ exp.time_
  2 omega  -20.00   27.00   1.0000   10.0000
omega____ theta____ kappa____ phi______ frames
    -      -14.6872  -99.0000  -30.0000 47

#__ type_ start__ end____ width___ exp.time_
  3 omega  -20.00   27.00   1.0000   10.0000
omega____ theta____ kappa____ phi______ frames
    -      -14.6872  -99.0000   60.0000 47

#__ type_ start__ end____ width___ exp.time_
  4 omega  -20.00   27.00   1.0000   10.0000
omega____ theta____ kappa____ phi______ frames
    -      -14.6872  -99.0000 -120.0000 47

#__ type_ start__ end____ width___ exp.time_
  5 omega -103.00  -55.00   1.0000   10.0000
omega____ theta____ kappa____ phi______ frames
    -      -14.6872  178.0000  -30.0000 48

#__ type_ start__ end____ width___ exp.time_
  6 omega  -65.00   62.00   1.0000   10.0000
omega____ theta____ kappa____ phi______ frames
    -       16.2497  -19.0000  -60.0000 127

#__ type_ start__ end____ width___ exp.time_
  7 omega   35.00  106.00   1.0000   10.0000
omega____ theta____ kappa____ phi______ frames
    -       16.2497  178.0000   90.0000 71

#__ type_ start__ end____ width___ exp.time_
  8 omega   35.00  106.00   1.0000   10.0000
omega____ theta____ kappa____ phi______ frames
    -       16.2497  178.0000  -30.0000 71

#__ type_ start__ end____ width___ exp.time_
  9 omega  -10.00   92.00   1.0000   10.0000
omega____ theta____ kappa____ phi______ frames
    -       16.2497   38.0000 -150.0000 102

#__ type_ start__ end____ width___ exp.time_
 10 omega  -30.00   47.00   1.0000   10.0000
omega____ theta____ kappa____ phi______ frames
    -       16.2497   19.0000  120.0000 77
;
_diffrn_measurement_device       'four-circle diffractometer'
_diffrn_measurement_device_type  'Rigaku Oxford Diffraction SuperNova'
_diffrn_measurement_method       '\w scans'
_diffrn_orient_matrix_UB_11      -0.0777978000
_diffrn_orient_matrix_UB_12      0.0182711000
_diffrn_orient_matrix_UB_13      0.0182000000
_diffrn_orient_matrix_UB_21      0.0015935000
_diffrn_orient_matrix_UB_22      -0.0357103000
_diffrn_orient_matrix_UB_23      0.0380635000
_diffrn_orient_matrix_UB_31      0.0481534000
_diffrn_orient_matrix_UB_32      0.0307176000
_diffrn_orient_matrix_UB_33      0.0334024000
_diffrn_radiation_monochromator  mirror
_diffrn_radiation_probe          x-ray
_diffrn_radiation_type           MoK\a
_diffrn_radiation_wavelength     0.71073
_diffrn_reflns_av_unetI/netI     0.0917
_diffrn_reflns_Laue_measured_fraction_full 0.999
_diffrn_reflns_Laue_measured_fraction_max 0.958
_diffrn_reflns_limit_h_max       11
_diffrn_reflns_limit_h_min       -11
_diffrn_reflns_limit_k_max       20
_diffrn_reflns_limit_k_min       -20
_diffrn_reflns_limit_l_max       18
_diffrn_reflns_limit_l_min       -18
_diffrn_reflns_number            7443
_diffrn_reflns_point_group_measured_fraction_full 0.999
_diffrn_reflns_point_group_measured_fraction_max 0.958
_diffrn_reflns_theta_full        26.000
_diffrn_reflns_theta_max         30.967
_diffrn_reflns_theta_min         2.901
_diffrn_source                   'SuperNova (Mo) X-ray Source'
_exptl_absorpt_coefficient_mu    20.836
_exptl_absorpt_correction_T_max  1.00000
_exptl_absorpt_correction_T_min  0.89487
_exptl_absorpt_correction_type   multi-scan
_exptl_absorpt_process_details
;
CrysAlisPro, Agilent Technologies,
Version 1.171.37.35 (release 13-08-2014 CrysAlis171 .NET)
(compiled Aug 13 2014,18:06:01)
Empirical absorption correction using spherical harmonics,
 implemented in SCALE3 ABSPACK scaling algorithm.
Empirical absorption correction using spherical harmonics,
 implemented in SCALE3 ABSPACK scaling algorithm.
;
_exptl_crystal_colour            red
_exptl_crystal_colour_primary    red
_exptl_crystal_density_diffrn    3.749
_exptl_crystal_description       block
_exptl_crystal_F_000             1384
_exptl_crystal_recrystallization_method
'The material was recrystallised from a mixture of ethanol and water by solvent layering'
_exptl_crystal_size_max          0.0925
_exptl_crystal_size_mid          0.0617
_exptl_crystal_size_min          0.058
_refine_diff_density_max         2.285
_refine_diff_density_min         -1.785
_refine_diff_density_rms         0.372
_refine_ls_extinction_coef       0.00018(4)
_refine_ls_extinction_expression Fc^*^=kFc[1+0.001xFc^2^\l^3^/sin(2\q)]^-1/4^
_refine_ls_extinction_method     SHELXL
_refine_ls_goodness_of_fit_ref   0.924
_refine_ls_hydrogen_treatment    constr
_refine_ls_matrix_type           full
_refine_ls_number_parameters     112
_refine_ls_number_reflns         7443
_refine_ls_number_restraints     0
_refine_ls_restrained_S_all      0.924
_refine_ls_R_factor_all          0.0659
_refine_ls_R_factor_gt           0.0427
_refine_ls_shift/su_max          0.001
_refine_ls_shift/su_mean         0.000
_refine_ls_structure_factor_coef Fsqd
_refine_ls_weighting_details
'w=1/[\s^2^(Fo^2^)+(0.0317P)^2^] where P=(Fo^2^+2Fc^2^)/3'
_refine_ls_weighting_scheme      calc
_refine_ls_wR_factor_gt          0.0750
_refine_ls_wR_factor_ref         0.0784
_reflns_Friedel_coverage         0.000
_reflns_number_gt                5413
_reflns_number_total             7443
_reflns_threshold_expression     'I > 2\s(I)'
_cod_data_source_file            c6se00061d2.cif
_cod_data_source_block           nr15013
_cod_database_code               1553652
_shelxl_version_number           2014/6
_chemical_oxdiff_formula         'C20 H32 N4 Bi2 I10'
_chemical_oxdiff_usercomment     '@120 K Me-Py-1'
_shelx_space_group_comment
;
The symmetry employed for this shelxl refinement is uniquely defined
by the following loop, which should always be used as a source of
symmetry information in preference to the above space-group names.
They are only intended as comments.
;
_diffrn_oxdiff_twin_integration_method simultaneous
_olex2_refinement_description
;
1. Twinned data refinement
 Scales: 0.5477(7) 0.4523(7)
2. Fixed Uiso
 At 1.2 times of:
  All C(H) groups
 At 1.5 times of:
  All C(H,H,H) groups
3.a Aromatic/amide H refined with riding coordinates:
 C1(H1), C2(H2), C3(H3), C4(H4), C5(H5)
3.b Idealised Me refined as rotating group:
 C6(H6a,H6b,H6c)
;
_shelx_res_file
;
TITL nr15013-twin2_twin1_hklf4_a.res in P2(1)/c
REM Old TITL NR15013-twin2_twin1_hklf4 in P21/c #14
REM SHELXT solution in P2(1)/c
REM R1 0.118, Rweak 0.016, Alpha 0.063, Orientation as input
REM Formula found by SHELXT: C3 N6 I4 Bi
CELL 0.71073 7.7618 14.0412 13.1959 90 92.959 90
ZERR 4 0.0005 0.0008 0.0008 0 0.006 0
LATT 1
SYMM -X,0.5+Y,0.5-Z
SFAC C H Bi I N
UNIT 24 32 4 16 4

L.S. 16
PLAN  5
TEMP -153
BOND $H
LIST 4
MORE -1
CONF
fmap 2
acta 52
REM <olex2.extras>
REM <HklSrc "%.\\NR15013.hkl">
REM </olex2.extras>

WGHT    0.031700
EXTI    0.000179
BASF   0.45230
FVAR       0.69541
BI1   3    0.249402    0.410083    0.509400    11.00000    0.01059    0.00991 =
         0.01175    0.00057    0.00082   -0.00035
I1    4    0.411565    0.278662    0.655725    11.00000    0.01612    0.01637 =
         0.01411    0.00257   -0.00107    0.00194
I2    4   -0.059782    0.434046    0.647144    11.00000    0.01523    0.01320 =
         0.01456    0.00239    0.00394    0.00235
I3    4    0.089645    0.255096    0.390778    11.00000    0.01989    0.01428 =
         0.01462   -0.00193   -0.00008   -0.00360
I4    4    0.563296    0.409915    0.372598    11.00000    0.01405    0.01346 =
         0.01420   -0.00256    0.00345   -0.00190
N1    5    0.795285    0.106790    0.565767    11.00000    0.00811    0.01892 =
         0.02415   -0.00389   -0.00035    0.00105
C1    1    0.799902    0.012628    0.555381    11.00000    0.02602    0.01677 =
         0.01706    0.00549    0.00307    0.00663
AFIX  43
H1    2    0.854832   -0.025533    0.606978    11.00000   -1.20000
AFIX   0
C2    1    0.726376   -0.028742    0.471351    11.00000    0.01255    0.01917 =
         0.04167    0.00141   -0.00113   -0.00609
AFIX  43
H2    2    0.725495   -0.096126    0.464863    11.00000   -1.20000
AFIX   0
C3    1    0.652925    0.027182    0.395377    11.00000    0.03184    0.03878 =
         0.01856   -0.00465    0.01156   -0.00976
AFIX  43
H3    2    0.604889   -0.001216    0.334982    11.00000   -1.20000
AFIX   0
C4    1    0.649279    0.124225    0.407145    11.00000    0.01756    0.03967 =
         0.02365    0.01195    0.00209   -0.00577
AFIX  43
H4    2    0.598561    0.163689    0.355287    11.00000   -1.20000
AFIX   0
C5    1    0.720570    0.163655    0.495647    11.00000    0.00425    0.01710 =
         0.02161    0.00385   -0.00267   -0.00295
AFIX  43
H5    2    0.716346    0.230502    0.506350    11.00000   -1.20000
AFIX   0
C6    1    0.885481    0.151047    0.656761    11.00000    0.01728    0.02203 =
         0.01785    0.00105   -0.00347    0.00135
AFIX 137
H6A   2    0.802541    0.187844    0.694350    11.00000   -1.50000
H6B   2    0.976945    0.193361    0.635011    11.00000   -1.50000
H6C   2    0.936134    0.100973    0.700620    11.00000   -1.50000
AFIX   0
HKLF 5

REM  nr15013-twin2_twin1_hklf4_a.res in P2(1)/c
REM R1 =  0.0427 for    5413 Fo > 4sig(Fo)  and  0.0659 for all    7443 data
REM    112 parameters refined using      0 restraints

END

WGHT      0.0317      0.0000

REM Highest difference peak  2.285,  deepest hole -1.785,  1-sigma level  0.372
Q1    1   0.2370  0.3904  0.5789  11.00000  0.05    1.76
Q2    1   0.3495  0.3947  0.5577  11.00000  0.05    1.65
Q3    1   0.4025  0.4102  0.5006  11.00000  0.05    1.61
Q4    1   0.1449  0.4135  0.4644  11.00000  0.05    1.54
Q5    1   0.7453  0.2623  0.6593  11.00000  0.05    1.51
;
_shelx_res_checksum              54527
_shelx_hkl_file
;
   0   0  -2 38656.9 494.217  -2
   0   0   2 38656.9 494.217   1
   0   0  -4 61554.8 448.798  -2
   0   0   4 61554.8 448.798   1
   0   0  -6 81069.7 599.735  -2
   0   0   6 81069.7 599.735   1
   0   0   8 105209. 1143.84  -2
   0   0  -8 105209. 1143.84   1
   0   0  10 389.088 189.923  -2
   0   0 -10 389.088 189.923   1
   0   0 -12 2906.41 471.132  -2
   0   0  12 2906.41 471.132   1
   0   0 -14 9506.16 689.241  -2
   0   0  14 9506.16 689.241   1
   0   0 -16 587.712 913.409  -2
   0   0  16 587.712 913.409   1
   0  -1  -2 32.7235 85.6997  -2
   0   1   2 32.7235 85.6997   1
   0  -1  -3 3906.39 95.9004  -2
   0   1   3 3906.39 95.9004   1
   0  -1  -4 17845.9 205.656  -2
   0   1   4 17845.9 205.656   1
   0  -1  -5 7630.63 136.751  -2
   0   1   5 7630.63 136.751   1
   0  -1  -6 12651.4 205.477  -2
   0   1   6 12651.4 205.477   1
   0  -1   7 87946.5 535.224  -2
   0   1  -7 87946.5 535.224   1
   0   1   8 50861.4 463.939  -2
   0  -1  -8 50861.4 463.939   1
   0   1   9 10982.1 270.301  -2
   0  -1  -9 10982.1 270.301   1
   0   1  10 4892.61 258.425  -2
   0  -1 -10 4892.61 258.425   1
   0  -1 -11 572.104 189.325  -2
   0   1  11 572.104 189.325   1
   0  -1 -12 8881.97 421.867  -2
   0   1  12 8881.97 421.867   1
   0   1  13 7320.58 446.487  -2
   0  -1 -13 7320.58 446.487   1
   0  -1 -14 17050.5 615.000  -2
   0   1  14 17050.5 615.000   1
   0  -1 -15 8284.81 634.929  -2
   0   1  15 8284.81 634.929   1
   0   1  16 8068.81 843.063  -2
   0  -1 -16 8068.81 843.063   1
   0   1 -17 440.761 737.422  -2
   0  -1  17 440.761 737.422   1
   0  -2   0 165.809 93.2579  -2
   0   2   0 165.809 93.2579   1
   0  -2  -1 673.237 85.9366  -2
   0   2   1 673.237 85.9366   1
   0  -2   2 10813.8 140.362  -2
   0   2  -2 10813.8 140.362   1
   0   2   3 215.186 89.3557  -2
   0  -2  -3 215.186 89.3557   1
   0  -2  -4 21154.4 261.850  -2
   0   2   4 21154.4 261.850   1
   0   2   5 128.739 70.6636  -2
   0  -2  -5 128.739 70.6636   1
   0   2  -6 6030.78 151.802  -2
   0  -2   6 6030.78 151.802   1
   0  -2  -7 17868.5 242.632  -2
   0   2   7 17868.5 242.632   1
   0  -2   8 2586.58 123.137  -2
   0   2  -8 2586.58 123.137   1
   0  -2   9 5125.04 180.977  -2
   0   2  -9 5125.04 180.977   1
   0  -2  10 287.275 113.415  -2
   0   2 -10 287.275 113.415   1
   0  -2  11 676.559 164.483  -2
   0   2 -11 676.559 164.483   1
   0   2 -12 374.571 164.698  -2
   0  -2  12 374.571 164.698   1
   0  -2 -13 8467.42 580.828  -2
   0   2  13 8467.42 580.828   1
   0  -2 -14 8453.65 706.183  -2
   0   2  14 8453.65 706.183   1
   0  -2 -15 17972.4 891.361  -2
   0   2  15 17972.4 891.361   1
   0  -2 -16 3909.84 538.761  -2
   0   2  16 3909.84 538.761   1
   0  -2 -17 396.188 520.504  -2
   0   2  17 396.188 520.504   1
   0   3  -1 3008.66 87.7142  -2
   0  -3   1 3008.66 87.7142   1
   0  -3   2 1585.76 62.8207  -2
   0   3  -2 1585.76 62.8207   1
   0   3   3 172.835 72.2756  -2
   0  -3  -3 172.835 72.2756   1
   0  -3  -4 12104.8 241.634  -2
   0   3   4 12104.8 241.634   1
   0  -3  -5 109.122 100.661  -2
   0   3   5 109.122 100.661   1
   0   3   6 3648.87 165.135  -2
   0  -3  -6 3648.87 165.135   1
   0  -3  -7 871.970 117.646  -2
   0   3   7 871.970 117.646   1
   0  -3  -8 256.233 108.266  -2
   0   3   8 256.233 108.266   1
   0   3   9 267.241 111.249  -2
   0  -3  -9 267.241 111.249   1
   0  -3 -10 4683.59 241.798  -2
   0   3  10 4683.59 241.798   1
   0  -3 -11 194.239 211.137  -2
   0   3  11 194.239 211.137   1
   0  -3 -12 12154.3 494.000  -2
   0   3  12 12154.3 494.000   1
   0  -3 -13 172.702 287.257  -2
   0   3  13 172.702 287.257   1
   0   3  14 7236.34 584.279  -2
   0  -3 -14 7236.34 584.279   1
   0  -3 -15 388.121 429.255  -2
   0   3  15 388.121 429.255   1
   0  -3 -16 1644.30 465.245  -2
   0   3  16 1644.30 465.245   1
   0   3 -17 211.311 506.979  -2
   0  -3  17 211.311 506.979   1
   0   4   0 270.199 74.6940  -2
   0  -4   0 270.199 74.6940   1
   0  -4  -1 181.525 54.4566  -2
   0   4   1 181.525 54.4566   1
   0   4   2 15451.1 161.995  -2
   0  -4  -2 15451.1 161.995   1
   0  -4  -3 56.9498 48.6058  -2
   0   4   3 56.9498 48.6058   1
   0  -4  -4 32832.6 329.403  -2
   0   4   4 32832.6 329.403   1
   0  -4  -5 1617.60 111.583  -2
   0   4   5 1617.60 111.583   1
   0   4   6 8690.84 229.519  -2
   0  -4  -6 8690.84 229.519   1
   0  -4  -7 2897.21 164.983  -2
   0   4   7 2897.21 164.983   1
   0   4  -8 5977.89 216.986  -2
   0  -4   8 5977.89 216.986   1
   0   4  -9 1901.44 148.611  -2
   0  -4   9 1901.44 148.611   1
   0   4  10 2381.70 187.399  -2
   0  -4 -10 2381.70 187.399   1
   0  -4 -11 1115.42 174.656  -2
   0   4  11 1115.42 174.656   1
   0   4  12 153.734 253.474  -2
   0  -4 -12 153.734 253.474   1
   0   4  13 3629.12 441.915  -2
   0  -4 -13 3629.12 441.915   1
   0   4  14 7339.51 594.928  -2
   0  -4 -14 7339.51 594.928   1
   0  -4 -15 6372.15 593.779  -2
   0   4  15 6372.15 593.779   1
   0   4  16 8516.02 815.270  -2
   0  -4 -16 8516.02 815.270   1
   0   4  17 946.822 574.365  -2
   0  -4 -17 946.822 574.365   1
   0   4  18 929.057 912.477  -2
   0  -4 -18 929.057 912.477   1
   0  -5  -1 54937.7 308.286  -2
   0   5   1 54937.7 308.286   1
   0   5  -2 272.976 66.4923  -2
   0  -5   2 272.976 66.4923   1
   0  -5  -3 19244.8 194.628  -2
   0   5   3 19244.8 194.628   1
   0  -5  -4 10914.8 184.325  -2
   0   5   4 10914.8 184.325   1
   0  -5  -5 8593.65 191.495  -2
   0   5   5 8593.65 191.495   1
   0   5   6 3026.75 143.770  -2
   0  -5  -6 3026.75 143.770   1
   0   5   7 34264.7 400.356  -2
   0  -5  -7 34264.7 400.356   1
   0  -5   8 36231.4 432.554  -2
   0   5  -8 36231.4 432.554   1
   0  -5  -9 29814.1 426.371  -2
   0   5   9 29814.1 426.371   1
   0   5 -10 1459.49 175.055  -2
   0  -5  10 1459.49 175.055   1
   0  -5 -11 689.121 176.781  -2
   0   5  11 689.121 176.781   1
   0  -5 -12 10777.7 403.404  -2
   0   5  12 10777.7 403.404   1
   0  -5 -13 725.942 342.166  -2
   0   5  13 725.942 342.166   1
   0   5  14 7768.40 616.777  -2
   0  -5 -14 7768.40 616.777   1
   0  -5 -15 13507.1 800.942  -2
   0   5  15 13507.1 800.942   1
   0  -5 -16 7125.69 602.365  -2
   0   5  16 7125.69 602.365   1
   0  -5 -17 3213.16 516.279  -2
   0   5  17 3213.16 516.279   1
   0   5  18 449.771 1003.40  -2
   0  -5 -18 449.771 1003.40   1
   0   6   0 238750. 1136.40  -2
   0  -6   0 238750. 1136.40   1
   0   6   1 20016.3 210.713  -2
   0  -6  -1 20016.3 210.713   1
   0  -6  -2 18958.5 237.901  -2
   0   6   2 18958.5 237.901   1
   0   6   3 1151.12 82.3528  -2
   0  -6  -3 1151.12 82.3528   1
   0   6  -4 18196.1 212.272  -2
   0  -6   4 18196.1 212.272   1
   0  -6  -5 27698.6 318.223  -2
   0   6   5 27698.6 318.223   1
   0  -6   6 29519.5 389.086  -2
   0   6  -6 29519.5 389.086   1
   0   6   7 1362.16 125.945  -2
   0  -6  -7 1362.16 125.945   1
   0  -6  -8 72255.7 704.877  -2
   0   6   8 72255.7 704.877   1
   0  -6   9 5138.77 210.944  -2
   0   6  -9 5138.77 210.944   1
   0  -6  10 3258.09 193.866  -2
   0   6 -10 3258.09 193.866   1
   0   6 -11 10251.2 298.392  -2
   0  -6  11 10251.2 298.392   1
   0  -6 -12 612.335 162.480  -2
   0   6  12 612.335 162.480   1
   0  -6 -13 1516.90 282.242  -2
   0   6  13 1516.90 282.242   1
   0  -6 -14 4319.52 466.031  -2
   0   6  14 4319.52 466.031   1
   0   6  15 1848.42 400.316  -2
   0  -6 -15 1848.42 400.316   1
   0  -6 -16 2151.62 441.761  -2
   0   6  16 2151.62 441.761   1
   0  -6 -17 943.939 478.094  -2
   0   6  17 943.939 478.094   1
   0  -7   1 100044. 504.900  -2
   0   7  -1 100044. 504.900   1
   0  -7   2 21473.4 256.675  -2
   0   7  -2 21473.4 256.675   1
   0  -7  -3 17432.8 251.328  -2
   0   7   3 17432.8 251.328   1
   0  -7  -4 199.348 66.5619  -2
   0   7   4 199.348 66.5619   1
   0   7   5 2404.65 113.085  -2
   0  -7  -5 2404.65 113.085   1
   0  -7  -6 26014.4 363.916  -2
   0   7   6 26014.4 363.916   1
   0  -7  -7 71925.1 645.121  -2
   0   7   7 71925.1 645.121   1
   0  -7  -8 8223.84 240.462  -2
   0   7   8 8223.84 240.462   1
   0   7   9 951.880 140.554  -2
   0  -7  -9 951.880 140.554   1
   0   7 -10 2009.34 189.472  -2
   0  -7  10 2009.34 189.472   1
   0   7  11 1034.74 157.676  -2
   0  -7 -11 1034.74 157.676   1
   0  -7 -12 227.867 276.425  -2
   0   7  12 227.867 276.425   1
   0   7  13 11068.3 627.096  -2
   0  -7 -13 11068.3 627.096   1
   0   7  14 8031.53 517.404  -2
   0  -7 -14 8031.53 517.404   1
   0  -7 -15 1742.51 382.032  -2
   0   7  15 1742.51 382.032   1
   0  -7 -16 5594.15 566.912  -2
   0   7  16 5594.15 566.912   1
   0  -7 -17 718.357 960.262  -2
   0   7  17 718.357 960.262   1
   0  -8   0 443.844 124.553  -2
   0   8   0 443.844 124.553   1
   0  -8  -1 374.101 74.4728  -2
   0   8   1 374.101 74.4728   1
   0   8   2 525.236 91.1377  -2
   0  -8  -2 525.236 91.1377   1
   0   8  -3 1288.44 108.262  -2
   0  -8   3 1288.44 108.262   1
   0   8   4 1034.53 122.399  -2
   0  -8  -4 1034.53 122.399   1
   0  -8  -5 209.507 138.188  -2
   0   8   5 209.507 138.188   1
   0   8   6 17204.4 250.354  -2
   0  -8  -6 17204.4 250.354   1
   0   8   7 27940.1 402.965  -2
   0  -8  -7 27940.1 402.965   1
   0  -8  -8 630.105 129.597  -2
   0   8   8 630.105 129.597   1
   0   8   9 3766.36 199.217  -2
   0  -8  -9 3766.36 199.217   1
   0   8  10 7490.83 269.408  -2
   0  -8 -10 7490.83 269.408   1
   0   8  11 2750.74 348.591  -2
   0  -8 -11 2750.74 348.591   1
   0   8  12 502.550 281.261  -2
   0  -8 -12 502.550 281.261   1
   0  -8 -13 9140.65 602.860  -2
   0   8  13 9140.65 602.860   1
   0  -8 -14 8304.09 601.765  -2
   0   8  14 8304.09 601.765   1
   0   8  15 16331.7 825.307  -2
   0  -8 -15 16331.7 825.307   1
   0  -8 -16 50.5594 570.979  -2
   0   8  16 50.5594 570.979   1
   0  -8 -17-350.641 1052.38  -2
   0   8  17-350.641 1052.38   1
   0  -9  -1 9000.36 199.017  -2
   0   9   1 9000.36 199.017   1
   0  -9  -2 4915.34 188.855  -2
   0   9   2 4915.34 188.855   1
   0  -9  -3 110.144 91.4139  -2
   0   9   3 110.144 91.4139   1
   0  -9  -4 1894.20 158.503  -2
   0   9   4 1894.20 158.503   1
   0   9  -5 1304.25 168.719  -2
   0  -9   5 1304.25 168.719   1
   0   9   6 416.315 145.873  -2
   0  -9  -6 416.315 145.873   1
   0  -9  -7 4310.37 153.225  -2
   0   9   7 4310.37 153.225   1
   0  -9  -8 489.022 133.904  -2
   0   9   8 489.022 133.904   1
   0  -9  -9 2644.25 237.815  -2
   0   9   9 2644.25 237.815   1
   0   9  10 1301.55 283.106  -2
   0  -9 -10 1301.55 283.106   1
   0   9  11 1168.65 287.679  -2
   0  -9 -11 1168.65 287.679   1
   0   9  12 7528.83 492.567  -2
   0  -9 -12 7528.83 492.567   1
   0  -9 -13 330.908 310.624  -2
   0   9  13 330.908 310.624   1
   0  -9 -14 9884.83 642.987  -2
   0   9  14 9884.83 642.987   1
   0   9  15 211.325 555.951  -2
   0  -9 -15 211.325 555.951   1
   0  -9 -16 973.016 708.289  -2
   0   9  16 973.016 708.289   1
   0 -10   0 5951.02 272.122  -2
   0  10   0 5951.02 272.122   1
   0  10   1 582.631 95.3353  -2
   0 -10  -1 582.631 95.3353   1
   0  10   2 11141.0 267.492  -2
   0 -10  -2 11141.0 267.492   1
   0 -10  -3 259.047 124.073  -2
   0  10   3 259.047 124.073   1
   0  10   4 17081.1 415.106  -2
   0 -10  -4 17081.1 415.106   1
   0  10   5 3947.32 243.037  -2
   0 -10  -5 3947.32 243.037   1
   0 -10  -6 11298.7 453.959  -2
   0  10   6 11298.7 453.959   1
   0  10   7 358.774 216.674  -2
   0 -10  -7 358.774 216.674   1
   0  10   8 4420.54 366.174  -2
   0 -10  -8 4420.54 366.174   1
   0  10   9 507.937 242.539  -2
   0 -10  -9 507.937 242.539   1
   0 -10 -10 1241.83 279.251  -2
   0  10  10 1241.83 279.251   1
   0  10  11 2653.23 388.675  -2
   0 -10 -11 2653.23 388.675   1
   0  10  12 1152.40 340.070  -2
   0 -10 -12 1152.40 340.070   1
   0 -10 -13 921.415 296.588  -2
   0  10  13 921.415 296.588   1
   0 -10 -14 4716.95 745.995  -2
   0  10  14 4716.95 745.995   1
   0 -10 -15 692.684 557.148  -2
   0  10  15 692.684 557.148   1
   0 -10 -16 5029.39 1382.85  -2
   0  10  16 5029.39 1382.85   1
   0  11  -1 14168.4 269.728  -2
   0 -11   1 14168.4 269.728   1
   0  11  -2 689.144 134.888  -2
   0 -11   2 689.144 134.888   1
   0  11   3 24795.3 415.442  -2
   0 -11  -3 24795.3 415.442   1
   0  11   4 2410.83 186.950  -2
   0 -11  -4 2410.83 186.950   1
   0 -11  -5 6193.12 365.459  -2
   0  11   5 6193.12 365.459   1
   0 -11  -6 371.410 230.799  -2
   0  11   6 371.410 230.799   1
   0 -11  -7 8814.16 497.868  -2
   0  11   7 8814.16 497.868   1
   0  11   8 4251.77 422.177  -2
   0 -11  -8 4251.77 422.177   1
   0 -11  -9 22345.7 794.443  -2
   0  11   9 22345.7 794.443   1
   0  11  10 148.140 292.269  -2
   0 -11 -10 148.140 292.269   1
   0 -11 -11 2370.27 376.842  -2
   0  11  11 2370.27 376.842   1
   0  11  12 3496.20 445.435  -2
   0 -11 -12 3496.20 445.435   1
   0  11  13 249.708 531.009  -2
   0 -11 -13 249.708 531.009   1
   0 -11 -14 273.175 538.203  -2
   0  11  14 273.175 538.203   1
   0 -11 -15 10035.9 1621.46  -2
   0  11  15 10035.9 1621.46   1
   0 -12   0 46598.2 656.175  -2
   0  12   0 46598.2 656.175   1
   0 -12   1 10756.6 231.721  -2
   0  12  -1 10756.6 231.721   1
   0  12  -2 15817.0 348.542  -2
   0 -12   2 15817.0 348.542   1
   0  12   3 1053.04 156.568  -2
   0 -12  -3 1053.04 156.568   1
   0 -12  -4 461.695 143.547  -2
   0  12   4 461.695 143.547   1
   0  12   5 16884.9 582.483  -2
   0 -12  -5 16884.9 582.483   1
   0 -12   6 2654.80 326.303  -2
   0  12  -6 2654.80 326.303   1
   0 -12  -7 495.053 312.950  -2
   0  12   7 495.053 312.950   1
   0 -12  -8 29854.8 965.448  -2
   0  12   8 29854.8 965.448   1
   0 -12  -9 4806.87 476.473  -2
   0  12   9 4806.87 476.473   1
   0 -12 -10 11054.7 697.059  -2
   0  12  10 11054.7 697.059   1
   0  12  11 8388.40 583.454  -2
   0 -12 -11 8388.40 583.454   1
   0  12  12 792.611 530.589  -2
   0 -12 -12 792.611 530.589   1
   0 -12 -13 3839.42 692.604  -2
   0  12  13 3839.42 692.604   1
   0 -12 -14 52.7492 782.562  -2
   0  12  14 52.7492 782.562   1
   0 -12 -15 891.661 930.817  -2
   0  12  15 891.661 930.817   1
   0 -13  -1 21829.8 302.166  -2
   0  13   1 21829.8 302.166   1
   0  13  -2 32933.0 588.807  -2
   0 -13   2 32933.0 588.807   1
   0  13  -3 3631.38 246.918  -2
   0 -13   3 3631.38 246.918   1
   0 -13   4 3958.98 285.826  -2
   0  13  -4 3958.98 285.826   1
   0 -13  -5 95.0831 210.760  -2
   0  13   5 95.0831 210.760   1
   0  13   6 29798.0 849.264  -2
   0 -13  -6 29798.0 849.264   1
   0 -13   7 17706.5 635.992  -2
   0  13  -7 17706.5 635.992   1
   0 -13   8 289.447 306.260  -2
   0  13  -8 289.447 306.260   1
   0  13   9 1262.93 371.509  -2
   0 -13  -9 1262.93 371.509   1
   0 -13 -10 392.026 373.355  -2
   0  13  10 392.026 373.355   1
   0 -13 -11 416.624 698.924  -2
   0  13  11 416.624 698.924   1
   0  13  12 3597.46 873.061  -2
   0 -13 -12 3597.46 873.061   1
   0 -14   0 885.573 199.812  -2
   0  14   0 885.573 199.812   1
   0 -14  -1 2795.13 202.655  -2
   0  14   1 2795.13 202.655   1
   0  14  -2 2949.46 210.796  -2
   0 -14   2 2949.46 210.796   1
   0 -14  -3 2284.49 255.096  -2
   0  14   3 2284.49 255.096   1
   0 -14   4 859.254 204.621  -2
   0  14  -4 859.254 204.621   1
   0 -14   5 4540.39 430.722  -2
   0  14  -5 4540.39 430.722   1
   0 -14  -6 9400.98 540.631  -2
   0  14   6 9400.98 540.631   1
   0 -14   7 8223.03 503.863  -2
   0  14  -7 8223.03 503.863   1
   0 -14  -8 313.370 280.861  -2
   0  14   8 313.370 280.861   1
   0 -14   9 110.119 350.411  -2
   0  14  -9 110.119 350.411   1
   0 -14 -10 12863.2 984.798  -2
   0  14  10 12863.2 984.798   1
   0 -14 -11 1066.63 656.900  -2
   0  14  11 1066.63 656.900   1
   0 -15  -1 5293.13 297.475  -2
   0  15   1 5293.13 297.475   1
   0 -15   2 2971.49 231.166  -2
   0  15  -2 2971.49 231.166   1
   0 -15  -3 1889.19 272.207  -2
   0  15   3 1889.19 272.207   1
   0 -15   4 343.177 206.533  -2
   0  15  -4 343.177 206.533   1
   0  15  -5 388.265 261.714  -2
   0 -15   5 388.265 261.714   1
   0  15   6 828.773 349.341  -2
   0 -15  -6 828.773 349.341   1
   0 -15  -7 1877.00 352.108  -2
   0  15   7 1877.00 352.108   1
   0 -15   8 1018.97 493.732  -2
   0  15  -8 1018.97 493.732   1
   0 -15  -9 5863.96 749.432  -2
   0  15   9 5863.96 749.432   1
   0 -15  10 480.509 493.549  -2
   0  15 -10 480.509 493.549   1
   0 -15  11 1317.22 849.765  -2
   0  15 -11 1317.22 849.765   1
   0 -15  12 3075.82 1117.77  -2
   0  15 -12 3075.82 1117.77   1
   0  16   0 8996.91 554.502  -2
   0 -16   0 8996.91 554.502   1
   0 -16  -1 224.953 184.863  -2
   0  16   1 224.953 184.863   1
   0 -16  -2 5159.88 351.808  -2
   0  16   2 5159.88 351.808   1
   0 -16   3 584.091 230.503  -2
   0  16  -3 584.091 230.503   1
   0  16   4 6146.96 411.223  -2
   0 -16  -4 6146.96 411.223   1
   0 -16  -5 291.396 279.365  -2
   0  16   5 291.396 279.365   1
   0 -16   6 12130.3 667.752  -2
   0  16  -6 12130.3 667.752   1
   0 -16  -7 213.021 392.113  -2
   0  16   7 213.021 392.113   1
   0  16   8 4786.19 643.736  -2
   0 -16  -8 4786.19 643.736   1
   0 -16   9 282.393 498.528  -2
   0  16  -9 282.393 498.528   1
   0 -17  -1 5618.44 436.159  -2
   0  17   1 5618.44 436.159   1
   0 -17   2 1755.93 339.422  -2
   0  17  -2 1755.93 339.422   1
   0 -17  -3 9051.39 609.112  -2
   0  17   3 9051.39 609.112   1
   0 -17  -4 110.018 409.526  -2
   0  17   4 110.018 409.526   1
   0 -17  -5 4668.87 652.987  -2
   0  17   5 4668.87 652.987   1
   0 -17  -6 297.140 455.462  -2
   0  17   6 297.140 455.462   1
   0 -17   7 3992.85 721.195  -2
   0  17  -7 3992.85 721.195   1
   0 -17   8 694.995 1031.39  -2
   0  17  -8 694.995 1031.39   1
   0 -18   0 4750.18 646.147  -2
   0  18   0 4750.18 646.147   1
   0 -18   1 1216.87 312.548  -2
   0  18  -1 1216.87 312.548   1
   0 -18   2 5761.11 504.724  -2
   0  18  -2 5761.11 504.724   1
   0 -18   3 638.961 380.044  -2
   0  18  -3 638.961 380.044   1
   0  18   4 1407.19 470.384  -2
   0 -18  -4 1407.19 470.384   1
   0 -18  -5 3282.52 584.375  -2
   0  18   5 3282.52 584.375   1
   0  18   6 784.416 496.789  -2
   0 -18  -6 784.416 496.789   1
   0 -18   7 1320.61 1063.66  -2
   0  18  -7 1320.61 1063.66   1
   0  19   1 1684.44 424.802  -2
   0 -19  -1 1684.44 424.802   1
   0  19   2 13762.4 934.755  -2
   0 -19  -2 13762.4 934.755   1
   0 -19  -3 253.546 420.444  -2
   0  19   3 253.546 420.444   1
   0 -19   4 1549.32 535.855  -2
   0  19  -4 1549.32 535.855   1
   0 -19   5 766.089 806.855  -2
   0  19  -5 766.089 806.855   1
   0 -20  -1 3920.55 638.024  -2
   0  20   1 3920.55 638.024   1
   0 -20  -2 1496.11 728.763  -2
   0  20   2 1496.11 728.763   1
   0 -20   3 1089.01 1035.24  -2
   0  20  -3 1089.01 1035.24   1
   1   0  16 7143.19 946.052  -2
   1   0 -16 7143.19 946.052   1
   1   0  14 6677.86 542.453  -2
   1   0 -14 6677.86 542.453   1
   1   0  12 2976.73 392.379  -2
   1   0 -12 2976.73 392.379   1
  -1   0 -10 7625.73 463.595  -2
  -1   0  10 7625.73 463.595   1
  -1   0  -8 13687.0 299.497  -2
  -1   0   8 13687.0 299.497   1
  -1   0  -6 6312.77 203.388  -2
  -1   0   6 6312.77 203.388   1
  -1   0  -4 176.314 210.616  -2
  -1   0   4 176.314 210.616   1
  -1   0   2 1281.31 175.810   1
  -1   0  -2 913.639 272.161  -2
  -1   0   2 913.639 272.161   1
  -1   0  -2 41.3467 97.9555   1
   1   0  -4 211.886 115.893  -2
   1   0   4 211.886 115.893   1
  -1   0   6 8193.83 216.158  -2
  -1   0  -6 8193.83 216.158   1
  -1   0   8 14278.4 326.769  -2
  -1   0  -8 14278.4 326.769   1
  -1   0  10 6595.60 295.090  -2
  -1   0 -10 6595.60 295.090   1
   1   0 -12 3410.54 649.412  -2
   1   0  12 3410.54 649.412   1
   1   0 -14 6985.05 945.659  -2
   1   0  14 6985.05 945.659   1
   1   0 -16 7248.58 1360.72  -2
   1   0  16 7248.58 1360.72   1
   1   1  18 4664.19 1279.65  -2
   1  -1 -18 4664.19 1279.65   1
   1   1  17 5430.86 747.886  -2
   1  -1 -17 5430.86 747.886   1
  -1  -1 -16 3202.59 596.514  -2
  -1   1  16 3202.59 596.514   1
  -1  -1 -15 1323.67 346.723  -2
  -1   1  15 1323.67 346.723   1
   1   1  14 2675.97 306.592  -2
   1  -1 -14 2675.97 306.592   1
  -1  -1 -13 5818.99 369.275  -2
  -1   1  13 5818.99 369.275   1
  -1   1 -12 6116.88 334.278  -2
  -1  -1  12 6116.88 334.278   1
  -1   1 -11 5012.37 249.820  -2
  -1  -1  11 5012.37 249.820   1
   1  -1  10 4404.15 229.761  -2
   1   1 -10 4404.15 229.761   1
   1  -1   9 4794.25 225.330  -2
   1   1  -9 4794.25 225.330   1
  -1  -1  -8 6425.62 181.596  -2
  -1   1   8 6425.62 181.596   1
  -1   1  -7 2128.42 135.122  -2
  -1  -1   7 2128.42 135.122   1
   1   1   6 7956.88 189.480  -2
   1  -1  -6 7956.88 189.480   1
  -1  -1  -5 4214.54 183.060  -2
  -1   1   5 4214.54 183.060   1
  -1   1   4 768.782 277.921   1
   1   1   4 1501.65 159.178  -2
   1  -1  -4 1501.65 159.178   1
   1  -1  -3 350.493 251.614   1
  -1  -1  -3 1605.23 171.883  -2
  -1   1   3 1605.23 171.883   1
   1  -1  -2 14454.7 304.463   1
  -1   1  -2 14783.5 316.308  -2
  -1  -1   2 14783.5 316.308   1
  -1  -1   1 33.8099 76.8045   1
  -1   1  -1 257.598 107.718  -2
  -1  -1   1 257.598 107.718   1
  -1  -1  -1 314.883 77.5261   1
  -1   1   1 476.563 219.784  -2
  -1  -1  -1 476.563 219.784   1
  -1  -1  -2 160.929 83.6638   1
  -1   1   2 13056.4 512.880  -2
  -1  -1  -2 13056.4 512.880   1
  -1  -1  -3 1059.82 273.011   1
   1  -1  -3 1671.59 110.322  -2
   1   1   3 1671.59 110.322   1
  -1   1  -4 817.788 157.148   1
  -1   1   4 1781.46 122.044  -2
  -1  -1  -4 1781.46 122.044   1
   1  -1  -5 3702.73 115.145  -2
   1   1   5 3702.73 115.145   1
   1  -1  -6 9349.37 160.455  -2
   1   1   6 9349.37 160.455   1
   1  -1  -7 2182.58 112.530  -2
   1   1   7 2182.58 112.530   1
   1  -1   8 5876.95 615.558   1
  -1   1   8 6740.23 185.459  -2
  -1  -1  -8 6740.23 185.459   1
  -1  -1   9 6264.47 193.876  -2
  -1   1  -9 6264.47 193.876   1
   1   1 -10 5257.40 216.892  -2
   1  -1  10 5257.40 216.892   1
   1  -1 -11 5096.93 245.035  -2
   1   1  11 5096.93 245.035   1
   1   1 -12 5002.47 284.103  -2
   1  -1  12 5002.47 284.103   1
   1  -1 -13 5064.58 419.865  -2
   1   1  13 5064.58 419.865   1
  -1  -1  14 2373.03 483.287  -2
  -1   1 -14 2373.03 483.287   1
   1   1 -15 2378.80 665.594  -2
   1  -1  15 2378.80 665.594   1
   1   1 -16 2642.49 733.965  -2
   1  -1  16 2642.49 733.965   1
   1  -1 -17 7421.31 1024.46  -2
   1   1  17 7421.31 1024.46   1
   1   2  18 3264.08 1195.55  -2
   1  -2 -18 3264.08 1195.55   1
   1   2  17 2487.60 775.366  -2
   1  -2 -17 2487.60 775.366   1
  -1  -2 -16 5090.78 525.494  -2
  -1   2  16 5090.78 525.494   1
  -1  -2 -15 1200.76 347.631  -2
  -1   2  15 1200.76 347.631   1
  -1  -2  14 5319.11 501.226   1
  -1  -2 -14 7571.06 492.435  -2
  -1   2  14 7571.06 492.435   1
  -1  -2 -13 13417.3 463.043  -2
  -1   2  13 13417.3 463.043   1
   1  -2  12 19420.9 473.869  -2
   1   2 -12 19420.9 473.869   1
  -1   2 -11 14919.2 410.615  -2
  -1  -2  11 14919.2 410.615   1
   1   2  10 24724.0 472.252  -2
   1  -2 -10 24724.0 472.252   1
  -1  -2  -9 14841.1 336.613  -2
  -1   2   9 14841.1 336.613   1
  -1  -2  -8 8702.85 222.226  -2
  -1   2   8 8702.85 222.226   1
  -1   2  -7 11415.5 236.008  -2
  -1  -2   7 11415.5 236.008   1
   1   2   6 26290.5 340.831  -2
   1  -2  -6 26290.5 340.831   1
   1   2   5 44344.5 439.803  -2
   1  -2  -5 44344.5 439.803   1
   1   2   4 8687.20 225.877  -2
   1  -2  -4 8687.20 225.877   1
  -1   2   3 11026.0 375.971   1
   1  -2   3 43720.0 426.134  -2
   1   2  -3 43720.0 426.134   1
   1   2  -2 2027.68 108.578   1
  -1   2  -2 6195.55 204.984  -2
  -1  -2   2 6195.55 204.984   1
  -1   2   1 5018.54 110.583   1
  -1   2  -1 42239.2 444.493  -2
  -1  -2   1 42239.2 444.493   1
   1   2   0 182.848 62.8675   1
  -1   2   0 376.113 121.824  -2
  -1  -2   0 376.113 121.824   1
  -1  -2  -1 43273.7 407.057   1
  -1   2   1 44656.3 1009.44  -2
  -1  -2  -1 44656.3 1009.44   1
  -1  -2  -2 4535.03 249.885   1
   1  -2  -2 6392.82 298.466  -2
   1   2   2 6392.82 298.466   1
   1  -2  -3 51992.8 304.963  -2
   1   2   3 51992.8 304.963   1
  -1   2  -4 3065.69 191.193   1
  -1   2   4 8416.80 163.186  -2
  -1  -2  -4 8416.80 163.186   1
  -1   2   5 40395.5 314.498  -2
  -1  -2  -5 40395.5 314.498   1
  -1   2   6 27434.8 292.730  -2
  -1  -2  -6 27434.8 292.730   1
  -1   2   7 10545.9 188.585  -2
  -1  -2  -7 10545.9 188.585   1
  -1   2   8 7893.52 186.216  -2
  -1  -2  -8 7893.52 186.216   1
   1  -2  -9 17105.5 308.534  -2
   1   2   9 17105.5 308.534   1
  -1   2  10 31802.2 399.203  -2
  -1  -2 -10 31802.2 399.203   1
   1  -2 -11 15948.1 473.493  -2
   1   2  11 15948.1 473.493   1
  -1   2  12 16207.7 471.246  -2
  -1  -2 -12 16207.7 471.246   1
  -1   2  13 10085.7 412.126  -2
  -1  -2 -13 10085.7 412.126   1
   1  -2 -14 8391.34 515.270  -2
   1   2  14 8391.34 515.270   1
  -1   2  15 1842.53 555.643  -2
  -1  -2 -15 1842.53 555.643   1
   1  -2 -16 3276.03 782.970  -2
   1   2  16 3276.03 782.970   1
   1   2 -17 3967.76 865.233  -2
   1  -2  17 3967.76 865.233   1
   1   3  18 1334.69 1035.85  -2
   1  -3 -18 1334.69 1035.85   1
  -1  -3 -17 670.577 716.230  -2
  -1   3  17 670.577 716.230   1
  -1  -3 -16 3412.06 500.632  -2
  -1   3  16 3412.06 500.632   1
  -1  -3 -15 672.502 384.005  -2
  -1   3  15 672.502 384.005   1
  -1  -3 -14 3429.22 398.447  -2
  -1   3  14 3429.22 398.447   1
  -1  -3 -13 1596.34 224.797  -2
  -1   3  13 1596.34 224.797   1
  -1  -3 -12 12466.5 368.843  -2
  -1   3  12 12466.5 368.843   1
   1   3  11 1039.23 172.884  -2
   1  -3 -11 1039.23 172.884   1
   1  -3  10 21521.0 434.818  -2
   1   3 -10 21521.0 434.818   1
   1   3   9 3591.32 206.496  -2
   1  -3  -9 3591.32 206.496   1
  -1   3  -8 9037.63 239.653  -2
  -1  -3   8 9037.63 239.653   1
  -1   3  -7 5204.68 176.827  -2
  -1  -3   7 5204.68 176.827   1
  -1   3  -6 82741.7 635.981  -2
  -1  -3   6 82741.7 635.981   1
  -1  -3  -5 2119.28 145.372  -2
  -1   3   5 2119.28 145.372   1
  -1  -3  -4 131635. 665.336  -2
  -1   3   4 131635. 665.336   1
   1  -3  -3 6835.22 302.226   1
  -1  -3  -3 10940.0 237.097  -2
  -1   3   3 10940.0 237.097   1
  -1   3   2 24908.0 289.899   1
  -1  -3  -2 181202. 1017.54  -2
  -1   3   2 181202. 1017.54   1
   1   3  -1 16.4117 63.4311   1
  -1   3  -1 5473.43 200.848  -2
  -1  -3   1 5473.43 200.848   1
   1  -3   0 1465.06 77.6435   1
  -1   3   0 2807.56 150.604  -2
  -1  -3   0 2807.56 150.604   1
  -1   3  -1 6803.82 112.593   1
  -1   3   1 6554.51 332.959  -2
  -1  -3  -1 6554.51 332.959   1
   1   3   2 199213. 1590.54   1
   1  -3  -2 200279. 2232.62  -2
   1   3   2 200279. 2232.62   1
   1   3   3 4176.72 173.986   1
   1  -3  -3 10333.0 185.455  -2
   1   3   3 10333.0 185.455   1
  -1   3   4 125070. 538.567  -2
  -1  -3  -4 125070. 538.567   1
  -1   3   5 1922.40 119.245  -2
  -1  -3  -5 1922.40 119.245   1
  -1   3   6 70990.1 440.067  -2
  -1  -3  -6 70990.1 440.067   1
  -1   3   7 6026.72 175.225  -2
  -1  -3  -7 6026.72 175.225   1
  -1   3   8 11261.9 221.009  -2
  -1  -3  -8 11261.9 221.009   1
  -1   3   9 3005.48 175.884  -2
  -1  -3  -9 3005.48 175.884   1
   1  -3 -10 27241.0 429.861  -2
   1   3  10 27241.0 429.861   1
   1  -3 -11 1450.08 193.205  -2
   1   3  11 1450.08 193.205   1
   1   3 -12 11204.7 433.180  -2
   1  -3  12 11204.7 433.180   1
   1   3 -13 1870.93 270.105  -2
   1  -3  13 1870.93 270.105   1
   1  -3 -14 3508.29 411.451  -2
   1   3  14 3508.29 411.451   1
  -1   3  15 890.912 362.459  -2
  -1  -3 -15 890.912 362.459   1
   1  -3 -16 4017.93 814.719  -2
   1   3  16 4017.93 814.719   1
   1  -3 -17 1378.38 746.032  -2
   1   3  17 1378.38 746.032   1
   1  -4 -18 937.946 831.338   1
   1   4  18 3875.33 1194.28  -2
   1  -4 -18 3875.33 1194.28   1
  -1   4  17 2220.32 739.582   1
   1   4  17 2096.24 510.826  -2
   1  -4 -17 2096.24 510.826   1
  -1  -4 -16 2912.24 486.358  -2
  -1   4  16 2912.24 486.358   1
  -1  -4 -15 2713.48 442.231  -2
  -1   4  15 2713.48 442.231   1
   1   4  14 3090.99 432.518  -2
   1  -4 -14 3090.99 432.518   1
   1   4  13 3789.16 427.455  -2
   1  -4 -13 3789.16 427.455   1
   1   4  12 16217.0 604.418  -2
   1  -4 -12 16217.0 604.418   1
  -1  -4 -11 14159.2 323.743  -2
  -1   4  11 14159.2 323.743   1
   1  -4  10 14168.2 318.433  -2
   1   4 -10 14168.2 318.433   1
   1   4   9 24028.1 367.566  -2
   1  -4  -9 24028.1 367.566   1
   1   4   8 9450.77 217.744  -2
   1  -4  -8 9450.77 217.744   1
  -1  -4  -7 377.081 100.377  -2
  -1   4   7 377.081 100.377   1
   1   4   6 11275.2 276.952  -2
   1  -4  -6 11275.2 276.952   1
   1   4   5 66447.5 523.314  -2
   1  -4  -5 66447.5 523.314   1
  -1  -4  -4 15332.5 232.680  -2
  -1   4   4 15332.5 232.680   1
  -1   4   3 8777.14 398.142   1
  -1  -4  -3 61440.1 381.770  -2
  -1   4   3 61440.1 381.770   1
   1  -4  -2 97.1142 110.752   1
  -1  -4  -2 4764.25 116.860  -2
  -1   4   2 4764.25 116.860   1
   1  -4  -1 15402.3 182.506   1
   1   4   1 48767.0 349.775  -2
   1  -4  -1 48767.0 349.775   1
  -1  -4   0 3483.62 95.4401   1
  -1   4   0 6642.13 242.291  -2
  -1  -4   0 6642.13 242.291   1
   1   4   1 41201.0 342.808   1
  -1  -4   1 51515.3 423.218  -2
  -1   4  -1 51515.3 423.218   1
  -1  -4  -2 5817.53 168.637   1
   1  -4  -2 5667.39 240.221  -2
   1   4   2 5667.39 240.221   1
   1  -4   3 64419.6 341.112   1
  -1  -4   3 71082.5 511.059  -2
  -1   4  -3 71082.5 511.059   1
  -1   4   4 12786.6 198.555  -2
  -1  -4  -4 12786.6 198.555   1
   1  -4  -5 58013.4 452.749  -2
   1   4   5 58013.4 452.749   1
   1  -4  -6 11511.0 189.566  -2
   1   4   6 11511.0 189.566   1
  -1  -4   7 527.410 121.121  -2
  -1   4  -7 527.410 121.121   1
  -1   4   8 8864.26 262.283  -2
  -1  -4  -8 8864.26 262.283   1
  -1   4   9 31051.7 470.062  -2
  -1  -4  -9 31051.7 470.062   1
  -1   4  10 19698.3 402.722  -2
  -1  -4 -10 19698.3 402.722   1
   1  -4 -11 12995.9 398.988  -2
   1   4  11 12995.9 398.988   1
  -1   4  12 13556.7 439.904  -2
  -1  -4 -12 13556.7 439.904   1
   1  -4 -13 2921.02 309.401  -2
   1   4  13 2921.02 309.401   1
   1  -4 -14 3078.22 404.358  -2
   1   4  14 3078.22 404.358   1
  -1   4  15 3780.79 455.906  -2
  -1  -4 -15 3780.79 455.906   1
   1  -4 -16 3499.89 604.301  -2
   1   4  16 3499.89 604.301   1
   1   4 -17 2312.42 776.577  -2
   1  -4  17 2312.42 776.577   1
  -1  -5 -18 1385.38 736.379  -2
  -1   5  18 1385.38 736.379   1
  -1  -5 -17 9068.42 630.082  -2
  -1   5  17 9068.42 630.082   1
  -1  -5 -16 4101.43 485.465  -2
  -1   5  16 4101.43 485.465   1
   1   5  15 2399.86 406.144  -2
   1  -5 -15 2399.86 406.144   1
   1   5  14 769.947 336.967  -2
   1  -5 -14 769.947 336.967   1
  -1  -5 -13 11977.8 569.581  -2
  -1   5  13 11977.8 569.581   1
  -1  -5 -12 7301.58 449.700  -2
  -1   5  12 7301.58 449.700   1
   1   5  11 13475.0 556.217  -2
   1  -5 -11 13475.0 556.217   1
   1   5  10 4041.22 271.864  -2
   1  -5 -10 4041.22 271.864   1
  -1  -5  -9 12476.1 365.719  -2
  -1   5   9 12476.1 365.719   1
  -1  -5  -8 6370.88 235.181  -2
  -1   5   8 6370.88 235.181   1
   1   5   7 904.635 137.569  -2
   1  -5  -7 904.635 137.569   1
   1  -5   6 1201.04 98.8049  -2
   1   5  -6 1201.04 98.8049   1
  -1  -5  -5 12277.1 214.591  -2
  -1   5   5 12277.1 214.591   1
  -1  -5  -4 2362.11 116.235  -2
  -1   5   4 2362.11 116.235   1
  -1  -5  -3 3704.54 107.438  -2
  -1   5   3 3704.54 107.438   1
  -1  -5   2 6145.86 427.983   1
   1   5   2 7234.33 118.265  -2
   1  -5  -2 7234.33 118.265   1
   1   5  -1 122.124 70.7705   1
   1   5   1 267.005 86.3053  -2
   1  -5  -1 267.005 86.3053   1
  -1  -5   0 9090.14 223.983   1
   1  -5   0 16284.4 211.713  -2
   1   5   0 16284.4 211.713   1
   1   5   1 5.33753 65.2686   1
  -1  -5   1 276.853 132.813  -2
  -1   5  -1 276.853 132.813   1
  -1  -5  -2 963.109 147.779   1
   1  -5  -2 6569.16 219.716  -2
   1   5   2 6569.16 219.716   1
  -1  -5  -3 4210.18 154.020   1
  -1   5   3 4147.02 138.555  -2
  -1  -5  -3 4147.02 138.555   1
   1  -5  -4 2169.43 103.662  -2
   1   5   4 2169.43 103.662   1
  -1   5   5 9896.51 207.834  -2
  -1  -5  -5 9896.51 207.834   1
  -1  -5   6 1216.99 90.5529  -2
  -1   5  -6 1216.99 90.5529   1
   1  -5  -7 736.813 92.6528  -2
   1   5   7 736.813 92.6528   1
  -1   5   8 6900.64 217.490  -2
  -1  -5  -8 6900.64 217.490   1
   1  -5  -9 14571.1 341.385  -2
   1   5   9 14571.1 341.385   1
  -1  -5  10 4459.72 197.645  -2
  -1   5 -10 4459.72 197.645   1
  -1   5  11 13612.6 355.340  -2
  -1  -5 -11 13612.6 355.340   1
   1   5 -12 6103.71 331.444  -2
   1  -5  12 6103.71 331.444   1
   1   5 -13 10015.8 404.440  -2
   1  -5  13 10015.8 404.440   1
   1  -5 -14 650.315 384.748  -2
   1   5  14 650.315 384.748   1
   1  -5 -15 2808.36 428.137  -2
   1   5  15 2808.36 428.137   1
   1   5 -16 3879.36 521.588  -2
   1  -5  16 3879.36 521.588   1
   1   5 -17 10135.7 997.218  -2
   1  -5  17 10135.7 997.218   1
   1   6  18 6050.11 1301.61  -2
   1  -6 -18 6050.11 1301.61   1
  -1  -6 -17 439.974 450.364  -2
  -1   6  17 439.974 450.364   1
   1   6  16 5439.46 526.842  -2
   1  -6 -16 5439.46 526.842   1
   1   6  15 1290.44 384.055  -2
   1  -6 -15 1290.44 384.055   1
   1   6  14 3855.61 429.583  -2
   1  -6 -14 3855.61 429.583   1
  -1  -6 -13 830.002 324.003  -2
  -1   6  13 830.002 324.003   1
   1   6  12 2055.50 335.686  -2
   1  -6 -12 2055.50 335.686   1
   1   6  11 506.984 237.940  -2
   1  -6 -11 506.984 237.940   1
   1   6  10 5188.31 294.180  -2
   1  -6 -10 5188.31 294.180   1
   1   6   9 1034.25 182.151  -2
   1  -6  -9 1034.25 182.151   1
   1   6   8 8657.89 284.071  -2
   1  -6  -8 8657.89 284.071   1
   1  -6   7 173.601 133.794  -2
   1   6  -7 173.601 133.794   1
  -1   6  -6 4118.29 140.231  -2
  -1  -6   6 4118.29 140.231   1
  -1  -6  -5 3434.32 134.322  -2
  -1   6   5 3434.32 134.322   1
  -1   6  -4 474.827 86.0180  -2
  -1  -6   4 474.827 86.0180   1
  -1  -6  -3 6965.55 137.556  -2
  -1   6   3 6965.55 137.556   1
  -1  -6  -2 451.032 69.9543  -2
  -1   6   2 451.032 69.9543   1
   1   6   1 2469.57 85.7596  -2
   1  -6  -1 2469.57 85.7596   1
   1   6   0 399.325 222.887   1
   1  -6   0 957.365 81.9814  -2
   1   6   0 957.365 81.9814   1
   1   6   1 2652.50 148.958   1
   1  -6  -1 2828.98 122.680  -2
   1   6   1 2828.98 122.680   1
   1   6   2 177.954 165.380   1
  -1   6   2 441.754 119.679  -2
  -1  -6  -2 441.754 119.679   1
  -1   6   3 7528.60 175.525  -2
  -1  -6  -3 7528.60 175.525   1
   1  -6   4 373.108 122.643   1
   1  -6  -4 549.631 82.9555  -2
   1   6   4 549.631 82.9555   1
   1  -6  -5 2868.58 117.539  -2
   1   6   5 2868.58 117.539   1
  -1   6   6 5194.21 190.313  -2
  -1  -6  -6 5194.21 190.313   1
   1  -6  -7 185.248 135.981  -2
   1   6   7 185.248 135.981   1
   1  -6  -8 8131.72 221.718  -2
   1   6   8 8131.72 221.718   1
  -1   6   9 1115.51 129.819  -2
  -1  -6  -9 1115.51 129.819   1
  -1   6  10 4600.96 205.827  -2
  -1  -6 -10 4600.96 205.827   1
   1  -6 -11 560.972 137.569  -2
   1   6  11 560.972 137.569   1
   1  -6 -12 2025.14 242.220  -2
   1   6  12 2025.14 242.220   1
  -1   6  13 623.825 286.704  -2
  -1  -6 -13 623.825 286.704   1
  -1   6  14 4139.86 400.071  -2
  -1  -6 -14 4139.86 400.071   1
  -1   6  15 979.302 407.437  -2
  -1  -6 -15 979.302 407.437   1
   1   6 -16 6414.82 551.680  -2
   1  -6  16 6414.82 551.680   1
   1  -6 -17 584.214 887.079  -2
   1   6  17 584.214 887.079   1
   1  -7 -17 18.2499 879.326   1
   1   7  17 718.560 529.340  -2
   1  -7 -17 718.560 529.340   1
  -1  -7 -16 791.010 410.159  -2
  -1   7  16 791.010 410.159   1
   1   7  15 2396.05 424.751  -2
   1  -7 -15 2396.05 424.751   1
  -1  -7 -14 2460.67 396.453  -2
  -1   7  14 2460.67 396.453   1
   1   7  13 2958.01 382.208  -2
   1  -7 -13 2958.01 382.208   1
  -1  -7 -12 5617.58 436.860  -2
  -1   7  12 5617.58 436.860   1
   1   7  11 1467.33 257.610  -2
   1  -7 -11 1467.33 257.610   1
  -1  -7  10 2639.02 187.567   1
  -1  -7 -10 7311.99 338.135  -2
  -1   7  10 7311.99 338.135   1
   1   7   9 2618.57 216.361  -2
   1  -7  -9 2618.57 216.361   1
   1   7   8 9750.65 311.179  -2
   1  -7  -8 9750.65 311.179   1
   1   7   7 2255.26 164.847  -2
   1  -7  -7 2255.26 164.847   1
   1   7   6 8756.74 206.518  -2
   1  -7  -6 8756.74 206.518   1
   1   7   5 163.525 87.7031  -2
   1  -7  -5 163.525 87.7031   1
  -1  -7  -4 5408.50 141.114  -2
  -1   7   4 5408.50 141.114   1
  -1   7  -3 1576.27 92.8034  -2
  -1  -7   3 1576.27 92.8034   1
   1   7   2 17332.4 198.505  -2
   1  -7  -2 17332.4 198.505   1
   1   7   1 1221.64 79.1843  -2
   1  -7  -1 1221.64 79.1843   1
  -1  -7   0 26165.6 240.424  -2
  -1   7   0 26165.6 240.424   1
   1   7   1 1215.82 106.182   1
  -1  -7   1 1556.98 114.936  -2
  -1   7  -1 1556.98 114.936   1
  -1   7   2 15506.8 264.527  -2
  -1  -7  -2 15506.8 264.527   1
  -1   7   3 1305.32 116.014  -2
  -1  -7  -3 1305.32 116.014   1
  -1   7   4 5262.43 162.211  -2
  -1  -7  -4 5262.43 162.211   1
   1  -7  -5 93.9720 89.9807  -2
   1   7   5 93.9720 89.9807   1
  -1   7   6 10281.9 274.391  -2
  -1  -7  -6 10281.9 274.391   1
  -1   7   7 2570.87 167.503  -2
  -1  -7  -7 2570.87 167.503   1
  -1   7   8 10104.2 301.180  -2
  -1  -7  -8 10104.2 301.180   1
  -1   7   9 2578.95 204.430  -2
  -1  -7  -9 2578.95 204.430   1
   1  -7 -10 7664.31 314.980  -2
   1   7  10 7664.31 314.980   1
  -1   7  11 1243.88 261.247  -2
  -1  -7 -11 1243.88 261.247   1
  -1   7  12 4562.38 302.327  -2
  -1  -7 -12 4562.38 302.327   1
  -1   7  13 2813.29 339.094  -2
  -1  -7 -13 2813.29 339.094   1
   1  -7 -14 1997.31 342.562  -2
   1   7  14 1997.31 342.562   1
  -1   7  15 2485.61 440.067  -2
  -1  -7 -15 2485.61 440.067   1
   1  -7 -16 1380.70 491.955  -2
   1   7  16 1380.70 491.955   1
   1  -7 -17 1801.89 1002.07  -2
   1   7  17 1801.89 1002.07   1
   1  -8 -17 2921.02 882.053   1
  -1  -8 -17 3759.57 1259.99  -2
  -1   8  17 3759.57 1259.99   1
  -1  -8 -16 1892.03 439.634  -2
  -1   8  16 1892.03 439.634   1
  -1  -8 -15 1694.95 410.171  -2
  -1   8  15 1694.95 410.171   1
  -1  -8 -14 5528.44 498.527  -2
  -1   8  14 5528.44 498.527   1
   1   8  13 11290.4 594.493  -2
   1  -8 -13 11290.4 594.493   1
   1   8  12 4789.31 422.658  -2
   1  -8 -12 4789.31 422.658   1
  -1  -8 -11 10085.0 539.623  -2
  -1   8  11 10085.0 539.623   1
  -1  -8 -10 9678.48 349.912  -2
  -1   8  10 9678.48 349.912   1
  -1   8  -9 4026.77 243.127  -2
  -1  -8   9 4026.77 243.127   1
  -1  -8  -8 1788.07 185.423  -2
  -1   8   8 1788.07 185.423   1
  -1  -8  -7 17493.7 356.729  -2
  -1   8   7 17493.7 356.729   1
  -1  -8  -6 7947.21 208.933  -2
  -1   8   6 7947.21 208.933   1
  -1   8  -5 22580.5 316.707  -2
  -1  -8   5 22580.5 316.707   1
   1   8   4 2196.10 116.045  -2
   1  -8  -4 2196.10 116.045   1
  -1  -8  -3 16639.7 245.708  -2
  -1   8   3 16639.7 245.708   1
   1  -8   2 1925.04 99.7733  -2
   1   8  -2 1925.04 99.7733   1
   1  -8   1 24361.0 246.032  -2
   1   8  -1 24361.0 246.032   1
  -1  -8   0 180.812 91.7144  -2
  -1   8   0 180.812 91.7144   1
   1   8   1 13806.2 342.620   1
  -1  -8   1 24661.6 282.940  -2
  -1   8  -1 24661.6 282.940   1
  -1   8   2 2123.18 125.634  -2
  -1  -8  -2 2123.18 125.634   1
   1  -8  -3 18460.3 286.081  -2
   1   8   3 18460.3 286.081   1
  -1   8   4 2416.71 151.307  -2
  -1  -8  -4 2416.71 151.307   1
  -1  -8   5 22637.0 333.009  -2
  -1   8  -5 22637.0 333.009   1
  -1   8  -6 4408.79 188.611   1
  -1   8   6 8160.33 288.163  -2
  -1  -8  -6 8160.33 288.163   1
   1  -8  -7 14953.1 387.007  -2
   1   8   7 14953.1 387.007   1
   1  -8  -8 1855.08 164.597  -2
   1   8   8 1855.08 164.597   1
  -1   8   9 4529.16 238.685  -2
  -1  -8  -9 4529.16 238.685   1
   1  -8 -10 10095.0 346.717  -2
   1   8  10 10095.0 346.717   1
   1  -8 -11 12904.4 513.259  -2
   1   8  11 12904.4 513.259   1
   1   8 -12 3819.55 287.929  -2
   1  -8  12 3819.55 287.929   1
   1  -8 -13 9055.06 486.839  -2
   1   8  13 9055.06 486.839   1
  -1   8  14 5344.12 509.520  -2
  -1  -8 -14 5344.12 509.520   1
  -1   8  15 1472.83 542.392  -2
  -1  -8 -15 1472.83 542.392   1
   1  -8 -16 1958.33 572.196  -2
   1   8  16 1958.33 572.196   1
   1  -8 -17 3551.40 1170.10  -2
   1   8  17 3551.40 1170.10   1
  -1  -9 -16 2428.70 603.601  -2
  -1   9  16 2428.70 603.601   1
   1   9  15 2296.66 447.795  -2
   1  -9 -15 2296.66 447.795   1
   1   9  14 5338.22 492.775  -2
   1  -9 -14 5338.22 492.775   1
  -1  -9 -13 4623.92 466.266  -2
  -1   9  13 4623.92 466.266   1
  -1  -9 -12 9271.20 551.060  -2
  -1   9  12 9271.20 551.060   1
  -1  -9 -11 3906.13 399.274  -2
  -1   9  11 3906.13 399.274   1
   1   9 -10 1971.49 413.319   1
  -1  -9 -10 10955.7 543.263  -2
  -1   9  10 10955.7 543.263   1
  -1   9  -9 8695.42 318.724  -2
  -1  -9   9 8695.42 318.724   1
   1   9   8 1934.92 185.740  -2
   1  -9  -8 1934.92 185.740   1
  -1  -9  -7 14181.7 320.984  -2
  -1   9   7 14181.7 320.984   1
  -1  -9  -6 36473.4 439.159  -2
  -1   9   6 36473.4 439.159   1
  -1  -9  -5 1993.08 140.951  -2
  -1   9   5 1993.08 140.951   1
  -1  -9  -4 37606.0 391.532  -2
  -1   9   4 37606.0 391.532   1
   1   9   3 19437.2 285.105  -2
   1  -9  -3 19437.2 285.105   1
   1  -9   2 42899.4 379.471  -2
   1   9  -2 42899.4 379.471   1
  -1   9  -1 10847.6 221.707  -2
  -1  -9   1 10847.6 221.707   1
   1  -9   0 2839.42 121.291  -2
   1   9   0 2839.42 121.291   1
   1   9   1 11922.8 327.560   1
  -1  -9   1 12239.9 243.457  -2
  -1   9  -1 12239.9 243.457   1
   1  -9  -2 49519.1 467.373  -2
   1   9   2 49519.1 467.373   1
   1   9  -3 18133.7 323.411  -2
   1  -9   3 18133.7 323.411   1
   1   9  -4 39641.6 470.327  -2
   1  -9   4 39641.6 470.327   1
   1  -9  -5 2038.87 159.356  -2
   1   9   5 2038.87 159.356   1
  -1   9  -6 548.439 128.360   1
  -1   9   6 29214.7 538.818  -2
  -1  -9  -6 29214.7 538.818   1
  -1   9   7 15774.2 420.544  -2
  -1  -9  -7 15774.2 420.544   1
  -1  -9  -8 654.409 72.9646   1
   1  -9  -8 1832.12 213.654  -2
   1   9   8 1832.12 213.654   1
  -1  -9  -9 268.161 105.756   1
  -1   9   9 7246.61 335.657  -2
  -1  -9  -9 7246.61 335.657   1
  -1   9  10 13649.2 507.282  -2
  -1  -9 -10 13649.2 507.282   1
   1  -9 -11 3774.96 347.514  -2
   1   9  11 3774.96 347.514   1
   1  -9 -12 9056.13 474.726  -2
   1   9  12 9056.13 474.726   1
   1  -9 -13 5393.31 489.886  -2
   1   9  13 5393.31 489.886   1
  -1   9  14 4805.44 610.546  -2
  -1  -9 -14 4805.44 610.546   1
  -1   9  15 3042.55 648.026  -2
  -1  -9 -15 3042.55 648.026   1
   1  -9 -16 1457.87 1044.23  -2
   1   9  16 1457.87 1044.23   1
  -1 -10 -16 1966.57 1014.03  -2
  -1  10  16 1966.57 1014.03   1
  -1 -10 -15 1873.19 498.603  -2
  -1  10  15 1873.19 498.603   1
   1  10  14 1793.97 407.354  -2
   1 -10 -14 1793.97 407.354   1
  -1 -10 -13 1554.11 377.242  -2
  -1  10  13 1554.11 377.242   1
  -1 -10 -12 5050.26 455.987  -2
  -1  10  12 5050.26 455.987   1
  -1 -10 -11 6996.02 490.839  -2
  -1  10  11 6996.02 490.839   1
  -1 -10 -10 5445.17 438.833  -2
  -1  10  10 5445.17 438.833   1
   1  10   9 12694.4 572.609  -2
   1 -10  -9 12694.4 572.609   1
  -1  10  -8 8671.42 284.762  -2
  -1 -10   8 8671.42 284.762   1
   1  10   7 246.182 126.309  -2
   1 -10  -7 246.182 126.309   1
   1  10   6 1596.88 179.902  -2
   1 -10  -6 1596.88 179.902   1
  -1 -10  -5 34667.2 547.026  -2
  -1  10   5 34667.2 547.026   1
   1  10   4 24089.4 371.270  -2
   1 -10  -4 24089.4 371.270   1
   1  10   3 29555.6 369.731  -2
   1 -10  -3 29555.6 369.731   1
  -1 -10  -2 9337.88 195.365  -2
  -1  10   2 9337.88 195.365   1
  -1 -10  -1 22803.5 295.468  -2
  -1  10   1 22803.5 295.468   1
   1  10   0 31830.1 337.681  -2
   1 -10   0 31830.1 337.681   1
   1  10   1 11917.8 226.293   1
  -1  10   1 24491.9 340.061  -2
  -1 -10  -1 24491.9 340.061   1
  -1  10   2 9065.63 244.311  -2
  -1 -10  -2 9065.63 244.311   1
  -1  10   3 36048.4 426.824  -2
  -1 -10  -3 36048.4 426.824   1
   1 -10  -4 23408.5 406.680  -2
   1  10   4 23408.5 406.680   1
  -1  10   5 30180.8 465.450  -2
  -1 -10  -5 30180.8 465.450   1
   1 -10  -6 1579.09 166.045  -2
   1  10   6 1579.09 166.045   1
  -1  10   7 353.249 187.552  -2
  -1 -10  -7 353.249 187.552   1
   1 -10  -8 10438.5 414.214  -2
   1  10   8 10438.5 414.214   1
   1 -10  -9 14429.3 515.533  -2
   1  10   9 14429.3 515.533   1
   1 -10 -10 5693.95 374.595  -2
   1  10  10 5693.95 374.595   1
  -1  10  11 5818.60 396.998  -2
  -1 -10 -11 5818.60 396.998   1
  -1  10  12 3642.44 427.771  -2
  -1 -10 -12 3642.44 427.771   1
   1 -10 -13 1331.27 488.123  -2
   1  10  13 1331.27 488.123   1
   1 -10 -14 1783.10 536.816  -2
   1  10  14 1783.10 536.816   1
   1 -10 -15 2556.03 752.539  -2
   1  10  15 2556.03 752.539   1
  -1 -11 -15 1154.66 904.854  -2
  -1  11  15 1154.66 904.854   1
   1  11  14 3023.13 530.229  -2
   1 -11 -14 3023.13 530.229   1
  -1 -11 -13 5538.68 508.654  -2
  -1  11  13 5538.68 508.654   1
  -1 -11 -12 7497.26 538.017  -2
  -1  11  12 7497.26 538.017   1
   1  11  11 10247.9 580.132  -2
   1 -11 -11 10247.9 580.132   1
   1  11  10 3930.46 412.765  -2
   1 -11 -10 3930.46 412.765   1
   1  11   9 7397.81 483.509  -2
   1 -11  -9 7397.81 483.509   1
  -1 -11  -8 11771.3 554.093  -2
  -1  11   8 11771.3 554.093   1
  -1 -11  -7 431.636 187.173  -2
  -1  11   7 431.636 187.173   1
  -1 -11  -6 3042.32 182.167  -2
  -1  11   6 3042.32 182.167   1
  -1 -11  -5 7501.39 218.793  -2
  -1  11   5 7501.39 218.793   1
  -1 -11  -4 6083.61 278.954  -2
  -1  11   4 6083.61 278.954   1
  -1 -11  -3 3173.75 156.706  -2
  -1  11   3 3173.75 156.706   1
  -1  11  -2 1771.93 117.985  -2
  -1 -11   2 1771.93 117.985   1
  -1  11  -1 1948.74 125.351  -2
  -1 -11   1 1948.74 125.351   1
   1  11   0 92.8911 98.6472  -2
   1 -11   0 92.8911 98.6472   1
   1  11   1 1366.77 78.0184   1
  -1 -11   1 2013.19 151.161  -2
  -1  11  -1 2013.19 151.161   1
  -1 -11   2 2168.69 168.241  -2
  -1  11  -2 2168.69 168.241   1
  -1  11   3 3043.18 202.864  -2
  -1 -11  -3 3043.18 202.864   1
  -1 -11   4 6477.62 259.416  -2
  -1  11  -4 6477.62 259.416   1
  -1 -11   5 6956.44 270.433  -2
  -1  11  -5 6956.44 270.433   1
  -1  11   6 3052.00 221.671  -2
  -1 -11  -6 3052.00 221.671   1
  -1  11   7 386.876 245.326  -2
  -1 -11  -7 386.876 245.326   1
   1 -11  -8 11863.6 528.756  -2
   1  11   8 11863.6 528.756   1
   1 -11  -9 9481.22 490.383  -2
   1  11   9 9481.22 490.383   1
  -1  11  10 3187.01 358.945  -2
  -1 -11 -10 3187.01 358.945   1
   1 -11 -11 10089.4 699.391  -2
   1  11  11 10089.4 699.391   1
  -1  11  12 8568.23 707.019  -2
  -1 -11 -12 8568.23 707.019   1
   1 -11 -13 4954.57 624.953  -2
   1  11  13 4954.57 624.953   1
  -1  11  14 1422.28 614.062  -2
  -1 -11 -14 1422.28 614.062   1
   1 -11 -15 2087.10 1044.69  -2
   1  11  15 2087.10 1044.69   1
  -1 -12 -14 777.240 896.289  -2
  -1  12  14 777.240 896.289   1
  -1 -12 -13 1482.55 479.315  -2
  -1  12  13 1482.55 479.315   1
  -1 -12 -12 2790.41 430.108  -2
  -1  12  12 2790.41 430.108   1
   1  12  11 1700.02 367.452  -2
   1 -12 -11 1700.02 367.452   1
  -1 -12 -10 2685.00 394.438  -2
  -1  12  10 2685.00 394.438   1
   1  12   9 1115.40 394.957  -2
   1 -12  -9 1115.40 394.957   1
  -1 -12  -8 1800.64 396.901  -2
  -1  12   8 1800.64 396.901   1
   1  12   7 1676.52 339.021  -2
   1 -12  -7 1676.52 339.021   1
   1  12   6 2569.24 392.090  -2
   1 -12  -6 2569.24 392.090   1
  -1  12  -5 3806.60 263.312  -2
  -1 -12   5 3806.60 263.312   1
  -1  12  -4 1106.91 218.915  -2
  -1 -12   4 1106.91 218.915   1
  -1  12   3 1396.60 141.133   1
  -1 -12  -3 6365.53 296.351  -2
  -1  12   3 6365.53 296.351   1
  -1 -12  -2 776.006 130.406  -2
  -1  12   2 776.006 130.406   1
  -1  12  -1 2082.69 131.126  -2
  -1 -12   1 2082.69 131.126   1
   1 -12   0 2439.17 141.508  -2
   1  12   0 2439.17 141.508   1
  -1 -12   1 2194.53 173.107  -2
  -1  12  -1 2194.53 173.107   1
  -1 -12   2 794.831 147.962  -2
  -1  12  -2 794.831 147.962   1
  -1  12   3 7162.08 286.459  -2
  -1 -12  -3 7162.08 286.459   1
   1 -12  -4 1799.40 193.749  -2
   1  12   4 1799.40 193.749   1
  -1  12   5 3584.71 263.379  -2
  -1 -12  -5 3584.71 263.379   1
  -1 -12   6 2376.87 206.379  -2
  -1  12  -6 2376.87 206.379   1
   1 -12  -7 1333.19 276.294  -2
   1  12   7 1333.19 276.294   1
  -1  12   8 1828.25 308.888  -2
  -1 -12  -8 1828.25 308.888   1
  -1  12   9 817.753 293.024  -2
  -1 -12  -9 817.753 293.024   1
  -1  12  10 3316.92 606.923  -2
  -1 -12 -10 3316.92 606.923   1
   1 -12 -11 1814.51 583.035  -2
   1  12  11 1814.51 583.035   1
  -1  12  12 2929.01 654.961  -2
  -1 -12 -12 2929.01 654.961   1
   1 -12 -13 2350.20 778.488  -2
   1  12  13 2350.20 778.488   1
   1 -12 -14 2170.82 982.765  -2
   1  12  14 2170.82 982.765   1
  -1 -13 -13 1443.69 763.220  -2
  -1  13  13 1443.69 763.220   1
   1 -13 -12 2935.64 745.044   1
   1  13  12 3186.30 848.349  -2
   1 -13 -12 3186.30 848.349   1
  -1 -13 -11 467.815 432.423  -2
  -1  13  11 467.815 432.423   1
  -1 -13 -10 7126.95 624.595  -2
  -1  13  10 7126.95 624.595   1
  -1 -13  -9 1554.61 365.618  -2
  -1  13   9 1554.61 365.618   1
   1 -13   8 7032.10 510.696  -2
   1  13  -8 7032.10 510.696   1
   1  13   7 1367.42 336.978  -2
   1 -13  -7 1367.42 336.978   1
  -1 -13  -6 4510.72 470.928  -2
  -1  13   6 4510.72 470.928   1
  -1  13  -5 544.675 288.975  -2
  -1 -13   5 544.675 288.975   1
  -1  13  -4 8032.25 497.231  -2
  -1 -13   4 8032.25 497.231   1
  -1 -13  -3 413.179 230.198  -2
  -1  13   3 413.179 230.198   1
  -1 -13  -2 10527.9 276.023  -2
  -1  13   2 10527.9 276.023   1
  -1 -13  -1 283.068 121.631  -2
  -1  13   1 283.068 121.631   1
   1  13   0 5052.69 224.048   1
   1 -13   0 9750.10 253.174  -2
   1  13   0 9750.10 253.174   1
  -1 -13   1 438.957 137.093  -2
  -1  13  -1 438.957 137.093   1
   1 -13  -2 11238.6 307.577  -2
   1  13   2 11238.6 307.577   1
   1 -13  -3 427.758 156.269  -2
   1  13   3 427.758 156.269   1
  -1  13   4 7488.02 282.196  -2
  -1 -13  -4 7488.02 282.196   1
  -1 -13   5 216.159 189.845  -2
  -1  13  -5 216.159 189.845   1
  -1 -13   6 4076.32 257.498  -2
  -1  13  -6 4076.32 257.498   1
  -1 -13   7 1943.44 274.622  -2
  -1  13  -7 1943.44 274.622   1
  -1  13   8 7617.88 479.258  -2
  -1 -13  -8 7617.88 479.258   1
  -1  13   9 1875.89 550.468  -2
  -1 -13  -9 1875.89 550.468   1
  -1  13  10 6753.07 769.262  -2
  -1 -13 -10 6753.07 769.262   1
  -1  13  11 328.533 586.974  -2
  -1 -13 -11 328.533 586.974   1
   1 -13 -12 2522.14 770.256  -2
   1  13  12 2522.14 770.256   1
   1  14  11 5617.10 991.978  -2
   1 -14 -11 5617.10 991.978   1
   1 -14  10 1119.48 400.444  -2
   1  14 -10 1119.48 400.444   1
   1 -14   9 3613.11 457.861  -2
   1  14  -9 3613.11 457.861   1
   1  14   8 654.057 347.194  -2
   1 -14  -8 654.057 347.194   1
  -1 -14  -7 11060.8 631.192  -2
  -1  14   7 11060.8 631.192   1
  -1 -14  -6 1230.08 414.222  -2
  -1  14   6 1230.08 414.222   1
  -1  14  -5 10051.4 565.831  -2
  -1 -14   5 10051.4 565.831   1
   1 -14   4 362.285 303.982  -2
   1  14  -4 362.285 303.982   1
  -1 -14  -3 8040.39 450.447  -2
  -1  14   3 8040.39 450.447   1
  -1  14  -2 784.793 246.191  -2
  -1 -14   2 784.793 246.191   1
  -1 -14  -1 14913.8 360.547  -2
  -1  14   1 14913.8 360.547   1
   1 -14   0 964.012 171.830  -2
   1  14   0 964.012 171.830   1
  -1 -14   1 14506.8 348.036  -2
  -1  14  -1 14506.8 348.036   1
  -1 -14   2 756.029 168.565  -2
  -1  14  -2 756.029 168.565   1
  -1 -14   3 7825.92 292.085  -2
  -1  14  -3 7825.92 292.085   1
   1  14  -4 595.575 173.186  -2
   1 -14   4 595.575 173.186   1
   1 -14  -5 11121.7 366.108  -2
   1  14   5 11121.7 366.108   1
  -1  14   6 879.657 224.960  -2
  -1 -14  -6 879.657 224.960   1
  -1  14   7 10090.8 529.211  -2
  -1 -14  -7 10090.8 529.211   1
  -1 -14   8 297.228 392.405  -2
  -1  14  -8 297.228 392.405   1
  -1  14   9 3548.62 637.535  -2
  -1 -14  -9 3548.62 637.535   1
  -1  14  10 1367.71 605.552  -2
  -1 -14 -10 1367.71 605.552   1
   1 -14 -11 6774.99 1014.89  -2
   1  14  11 6774.99 1014.89   1
   1 -15  12 5662.45 1191.32  -2
   1  15 -12 5662.45 1191.32   1
   1 -15  11 3412.77 1048.34  -2
   1  15 -11 3412.77 1048.34   1
   1 -15  10 3133.54 656.784  -2
   1  15 -10 3133.54 656.784   1
   1  15   9 3348.33 466.527  -2
   1 -15  -9 3348.33 466.527   1
   1 -15   8 4294.05 491.548  -2
   1  15  -8 4294.05 491.548   1
  -1 -15  -7 5440.81 554.007  -2
  -1  15   7 5440.81 554.007   1
  -1 -15  -6 12561.9 837.813  -2
  -1  15   6 12561.9 837.813   1
  -1  15  -5 707.106 336.040  -2
  -1 -15   5 707.106 336.040   1
   1 -15   4 10046.7 529.445  -2
   1  15  -4 10046.7 529.445   1
   1 -15   3 6307.63 444.943  -2
   1  15  -3 6307.63 444.943   1
   1 -15   2 5580.22 430.641  -2
   1  15  -2 5580.22 430.641   1
   1 -15   1 2814.98 290.047  -2
   1  15  -1 2814.98 290.047   1
   1 -15   0 3671.69 277.437  -2
   1  15   0 3671.69 277.437   1
  -1 -15   1 3250.09 236.253  -2
  -1  15  -1 3250.09 236.253   1
  -1 -15   2 6433.91 293.775  -2
  -1  15  -2 6433.91 293.775   1
   1  15  -3 6033.93 290.857  -2
   1 -15   3 6033.93 290.857   1
  -1 -15   4 11187.9 362.670  -2
  -1  15  -4 11187.9 362.670   1
   1 -15  -5 631.057 244.078  -2
   1  15   5 631.057 244.078   1
  -1 -15   6 11497.0 561.566  -2
  -1  15  -6 11497.0 561.566   1
  -1  15   7 6106.03 475.758  -2
  -1 -15  -7 6106.03 475.758   1
  -1 -15   8 3490.39 454.390  -2
  -1  15  -8 3490.39 454.390   1
   1 -15  -9 2749.95 785.463  -2
   1  15   9 2749.95 785.463   1
   1 -15 -10 4516.42 869.305  -2
   1  15  10 4516.42 869.305   1
   1 -16  11 1738.22 987.126  -2
   1  16 -11 1738.22 987.126   1
   1 -16  10 4738.99 1115.12  -2
   1  16 -10 4738.99 1115.12   1
   1 -16   9 1158.24 561.297  -2
   1  16  -9 1158.24 561.297   1
   1 -16  -8 2429.57 896.164   1
  -1 -16  -8 6664.82 713.348  -2
  -1  16   8 6664.82 713.348   1
   1 -16   7 745.592 421.080  -2
   1  16  -7 745.592 421.080   1
  -1 -16  -6 2802.70 541.337  -2
  -1  16   6 2802.70 541.337   1
   1 -16   5 4679.90 448.760  -2
   1  16  -5 4679.90 448.760   1
   1 -16   4 17196.0 678.384  -2
   1  16  -4 17196.0 678.384   1
   1 -16   3 3794.05 410.195  -2
   1  16  -3 3794.05 410.195   1
  -1  16  -2 8114.60 462.812  -2
  -1 -16   2 8114.60 462.812   1
  -1  16  -1 2664.08 300.121  -2
  -1 -16   1 2664.08 300.121   1
   1 -16   0 25093.7 654.214  -2
   1  16   0 25093.7 654.214   1
   1 -16  -1 2232.48 291.184  -2
   1  16   1 2232.48 291.184   1
   1 -16  -2 7487.15 397.520  -2
   1  16   2 7487.15 397.520   1
   1 -16  -3 4482.94 346.501  -2
   1  16   3 4482.94 346.501   1
  -1 -16   4 16338.6 652.909  -2
  -1  16  -4 16338.6 652.909   1
   1 -16  -5 3469.10 476.502  -2
   1  16   5 3469.10 476.502   1
  -1 -16   6 3366.77 501.768  -2
  -1  16  -6 3366.77 501.768   1
  -1  16   7 888.119 470.893  -2
  -1 -16  -7 888.119 470.893   1
  -1 -16   8 8057.52 734.915  -2
  -1  16  -8 8057.52 734.915   1
  -1 -16   9 960.645 1028.34  -2
  -1  16  -9 960.645 1028.34   1
   1  17  -9 1906.14 798.216   1
   1 -17   8 5612.24 1138.81  -2
   1  17  -8 5612.24 1138.81   1
  -1 -17  -7 3733.41 612.975  -2
  -1  17   7 3733.41 612.975   1
  -1 -17  -6 2090.25 418.021  -2
  -1  17   6 2090.25 418.021   1
  -1 -17   5 950.968 537.062   1
   1 -17   5 2353.85 458.638  -2
   1  17  -5 2353.85 458.638   1
   1  17   4 2581.06 369.974  -2
   1 -17  -4 2581.06 369.974   1
  -1 -17  -3 5940.85 446.928  -2
  -1  17   3 5940.85 446.928   1
  -1  17  -2 538.496 313.379  -2
  -1 -17   2 538.496 313.379   1
   1 -17   1 4978.86 410.177  -2
   1  17  -1 4978.86 410.177   1
   1 -17   0 743.376 277.057  -2
   1  17   0 743.376 277.057   1
  -1 -17   1 5031.57 368.810  -2
  -1  17  -1 5031.57 368.810   1
   1 -17  -2 657.797 270.912  -2
   1  17   2 657.797 270.912   1
  -1 -17   3 5228.97 541.801  -2
  -1  17  -3 5228.97 541.801   1
  -1 -17   4 2237.33 577.537  -2
  -1  17  -4 2237.33 577.537   1
  -1  17   5 2028.48 578.223  -2
  -1 -17  -5 2028.48 578.223   1
   1 -17  -6 2042.47 589.069  -2
   1  17   6 2042.47 589.069   1
  -1  17   7 4204.10 687.315  -2
  -1 -17  -7 4204.10 687.315   1
   1 -18   7 3658.14 1083.57  -2
   1  18  -7 3658.14 1083.57   1
   1 -18   6 947.558 922.811  -2
   1  18  -6 947.558 922.811   1
   1 -18   5 5016.89 589.924  -2
   1  18  -5 5016.89 589.924   1
   1  18   4 430.556 454.422  -2
   1 -18  -4 430.556 454.422   1
  -1  18  -3 3077.62 444.046  -2
  -1 -18   3 3077.62 444.046   1
  -1 -18  -2 373.796 377.002  -2
  -1  18   2 373.796 377.002   1
  -1 -18  -1 2073.74 389.709  -2
  -1  18   1 2073.74 389.709   1
  -1  18   0 638.108 358.166  -2
  -1 -18   0 638.108 358.166   1
   1 -18  -1 1832.22 365.007  -2
   1  18   1 1832.22 365.007   1
  -1 -18   2-198.623 506.072  -2
  -1  18  -2-198.623 506.072   1
   1 -18  -3 3475.39 613.597  -2
   1  18   3 3475.39 613.597   1
  -1 -18   4 412.945 540.393  -2
  -1  18  -4 412.945 540.393   1
  -1 -18   5 4481.67 707.119  -2
  -1  18  -5 4481.67 707.119   1
  -1 -18   6 1286.95 1034.61  -2
  -1  18  -6 1286.95 1034.61   1
   1 -19   5-188.112 989.371  -2
   1  19  -5-188.112 989.371   1
   1 -19   4 5225.22 696.114  -2
   1  19  -4 5225.22 696.114   1
   1 -19   3 379.799 465.145  -2
   1  19  -3 379.799 465.145   1
   1  19   2 6113.56 536.367  -2
   1 -19  -2 6113.56 536.367   1
  -1  19  -1 310.740 444.919  -2
  -1 -19   1 310.740 444.919   1
  -1  19   0 5727.62 580.619  -2
  -1 -19   0 5727.62 580.619   1
  -1  19   1 384.531 501.112  -2
  -1 -19  -1 384.531 501.112   1
  -1  19   2 6621.87 733.719  -2
  -1 -19  -2 6621.87 733.719   1
  -1 -19   3 537.818 561.811  -2
  -1  19  -3 537.818 561.811   1
   1 -19  -4 5355.51 899.922  -2
   1  19   4 5355.51 899.922   1
  -1 -20  -2 211.486 953.336  -2
  -1  20   2 211.486 953.336   1
  -1 -20   0 671.733 738.397  -2
  -1  20   0 671.733 738.397   1
  -1 -20   1 4191.17 1336.20  -2
  -1  20  -1 4191.17 1336.20   1
   2   0 -16 1601.98 560.378   1
  -2   0  14 1619.85 464.662   1
  -2   0 -14 1763.77 607.796  -2
  -2   0  14 1763.77 607.796   1
  -2   0  12 3135.12 491.857   1
  -2   0 -12 10723.6 861.666  -2
  -2   0  12 10723.6 861.666   1
  -2   0  10 30992.9 1046.52   1
  -2   0 -10 39666.8 1377.92  -2
  -2   0  10 39666.8 1377.92   1
   2   0  -8 4222.49 187.026   1
  -2   0   6 13320.9 575.479   1
  -2   0   4 68081.8 879.463   1
  -2   0   2 243645. 2343.26   1
  -2   0   0 1211.57 104.766   1
  -2   0  -2 14314.9 197.047   1
  -2   0  -4 119815. 682.234   1
   2   0   6 48562.8 602.897   1
   2   0   8 2898.40 201.219   1
  -2   0 -10 5651.49 478.495   1
   2   0 -10 28998.7 1444.02  -2
   2   0  10 28998.7 1444.02   1
   2   0  12 11992.5 506.015   1
   2   0  14 463.193 615.267   1
  -2   0  14 1744.08 1111.71  -2
  -2   0 -14 1744.08 1111.71   1
   2   0  16 2312.12 829.562   1
  -2   0  16 5932.16 1447.04  -2
  -2   0 -16 5932.16 1447.04   1
   2  -1 -17 2285.03 604.693   1
   2  -1  17 3375.74 815.917  -2
   2   1 -17 3375.74 815.917   1
   2  -1 -16 3040.16 591.252   1
   2  -1  16 4959.00 1143.90  -2
   2   1 -16 4959.00 1143.90   1
   2   1 -15 268.985 378.300   1
  -2  -1 -15 491.517 504.170  -2
  -2   1  15 491.517 504.170   1
  -2   1  14 4762.99 429.518   1
  -2  -1 -14 6502.24 528.160  -2
  -2   1  14 6502.24 528.160   1
   2   1 -13 191.894 276.816   1
  -2   1 -13 2563.53 436.194  -2
  -2  -1  13 2563.53 436.194   1
   2  -1 -12 643.598 268.760   1
  -2   1 -12 9840.45 590.597  -2
  -2  -1  12 9840.45 590.597   1
  -2   1  11 9619.68 297.655   1
  -2   1 -11 18373.0 958.863  -2
  -2  -1  11 18373.0 958.863   1
   2  -1 -10 25812.2 453.908   1
  -2   1 -10 31539.6 1168.42  -2
  -2  -1  10 31539.6 1168.42   1
   2  -1  -9 19969.1 365.765   1
   2  -1  -8 617.272 117.192   1
   2   1   8 9341.90 813.618  -2
   2  -1  -8 9341.90 813.618   1
  -2  -1   7 139.400 176.111   1
   2   1   7 1050.26 262.058  -2
   2  -1  -7 1050.26 262.058   1
  -2   1   6 11706.5 323.648   1
  -2   1   5 1375.67 148.886   1
  -2  -1   4 1974.90 132.627   1
  -2   1   3 54627.1 439.232   1
  -2   1   2 6511.00 128.505   1
  -2   1   1 8574.94 143.419   1
  -2  -1   0 134.114 52.0642   1
  -2  -1  -1 4967.62 85.3432   1
   2   1   2 1420.58 68.3106   1
  -2   1  -3 26039.4 279.179   1
  -2  -1  -4 9333.08 173.130   1
   2  -1   5 55457.2 372.830   1
  -2  -1  -6 13222.4 231.800   1
   2   1   7 772.673 98.9752   1
   2  -1   8 9053.05 238.422   1
   2   1  -8 8708.98 769.078  -2
   2  -1   8 8708.98 769.078   1
   2  -1   9 417.276 135.512   1
  -2  -1   9 19768.2 559.206  -2
  -2   1  -9 19768.2 559.206   1
  -2   1 -10 1931.09 150.365   1
   2  -1  11 13423.0 492.250   1
  -2  -1  11 22664.1 786.061  -2
  -2   1 -11 22664.1 786.061   1
   2  -1  12 17245.5 531.815   1
  -2   1  12 19354.2 1591.83  -2
  -2  -1 -12 19354.2 1591.83   1
  -2   1 -13 4147.38 370.868   1
  -2   1  13 4847.38 1144.29  -2
  -2  -1 -13 4847.38 1144.29   1
   2   1  14 2190.68 335.050   1
  -2   1  14 6582.56 1294.37  -2
  -2  -1 -14 6582.56 1294.37   1
   2  -1  15-21.6877 469.253   1
  -2   1  15 448.839 832.376  -2
  -2  -1 -15 448.839 832.376   1
   2  -1  16 1878.18 752.063   1
   2  -1 -16 4467.30 737.455  -2
   2   1  16 4467.30 737.455   1
   2   1  17 617.287 504.041   1
  -2   2  18 3967.88 713.553   1
  -2   2  17 9184.24 869.906   1
  -2  -2 -17 9963.83 984.949  -2
  -2   2  17 9963.83 984.949   1
   2   2 -16 1926.83 355.319   1
  -2  -2 -16 3887.52 1125.12  -2
  -2   2  16 3887.52 1125.12   1
   2   2 -15 1230.07 335.176   1
  -2  -2 -15 1644.02 734.110  -2
  -2   2  15 1644.02 734.110   1
  -2   2  14 2090.91 322.963   1
   2   2  14 2802.87 560.614  -2
   2  -2 -14 2802.87 560.614   1
   2   2 -13 255.359 279.380   1
  -2  -2 -13 4684.64 467.455  -2
  -2   2  13 4684.64 467.455   1
   2  -2 -12 160.294 157.323   1
  -2   2 -12 2943.12 420.272  -2
  -2  -2  12 2943.12 420.272   1
  -2   2  11 7584.45 297.369   1
  -2   2 -11 14104.5 796.636  -2
  -2  -2  11 14104.5 796.636   1
  -2  -2  10 4571.51 238.971   1
  -2   2 -10 6135.15 586.183  -2
  -2  -2  10 6135.15 586.183   1
  -2   2   9 7988.19 256.007   1
  -2  -2   8 1135.94 186.947   1
  -2  -2  -8 1709.80 560.796  -2
  -2   2   8 1709.80 560.796   1
   2  -2  -7 488.226 142.174   1
  -2   2  -7 601.620 299.954  -2
  -2  -2   7 601.620 299.954   1
   2  -2  -6 3167.72 193.157   1
   2  -2   6 3952.02 432.756  -2
   2   2  -6 3952.02 432.756   1
  -2  -2   5 104.404 108.961   1
  -2   2   4 3942.10 123.017   1
  -2   2   3 2903.92 115.082   1
   2   2  -2 155.453 53.4670   1
   2   2  -1 23.4076 43.6767   1
   2   2   0 6611.90 88.7202   1
   2   2   1 37.8065 36.2419   1
   2   2   2 21000.4 178.441   1
  -2  -2  -3 248.595 45.8143   1
  -2  -2  -4 2077.30 81.7626   1
   2  -2   5 4634.61 121.000   1
  -2   2  -6 223.635 64.2435   1
  -2   2  -7 127.824 91.7375   1
  -2  -2  -8 256.811 88.2241   1
  -2  -2   8 1387.31 533.658  -2
  -2   2  -8 1387.31 533.658   1
   2  -2   9 209.686 146.783   1
   2  -2  -9 7079.10 350.950  -2
   2   2   9 7079.10 350.950   1
   2   2  10 1882.84 165.391   1
   2  -2 -10 5439.72 574.626  -2
   2   2  10 5439.72 574.626   1
   2   2  11 10296.3 403.704   1
  -2   2  11 18017.3 706.674  -2
  -2  -2 -11 18017.3 706.674   1
   2  -2  12 4787.33 398.635   1
  -2   2  12 5031.18 742.234  -2
  -2  -2 -12 5031.18 742.234   1
   2  -2  13 6622.55 479.013   1
  -2   2  13 8035.16 879.692  -2
  -2  -2 -13 8035.16 879.692   1
   2  -2  14 504.189 286.597   1
  -2  -2  14 2840.65 1126.73  -2
  -2   2 -14 2840.65 1126.73   1
   2  -2  15 238.383 468.404   1
  -2  -2  15 1536.24 839.016  -2
  -2   2 -15 1536.24 839.016   1
   2  -2  16 1759.12 553.867   1
  -2  -2  16 4427.26 1011.38  -2
  -2   2 -16 4427.26 1011.38   1
   2  -2  17 2015.86 615.774   1
  -2   2  17 12748.6 1945.09  -2
  -2  -2 -17 12748.6 1945.09   1
  -2   3  18 2796.50 558.872   1
  -2   3  17 74.3485 550.363   1
  -2  -3 -17 16.6637 747.381  -2
  -2   3  17 16.6637 747.381   1
  -2   3  16 4517.01 921.105   1
  -2  -3 -16 5444.28 537.076  -2
  -2   3  16 5444.28 537.076   1
   2  -3 -15 287.311 452.793   1
  -2  -3 -15 255.843 476.848  -2
  -2   3  15 255.843 476.848   1
   2  -3 -14 2883.07 429.944   1
  -2  -3 -14 3686.65 622.445  -2
  -2   3  14 3686.65 622.445   1
   2  -3 -13 94.8144 337.203   1
  -2  -3 -13 371.040 331.095  -2
  -2   3  13 371.040 331.095   1
   2   3 -12 1881.90 272.166   1
   2   3  12 3852.36 332.009  -2
   2  -3 -12 3852.36 332.009   1
   2  -3 -11 50.3149 181.037   1
  -2   3 -11-29.6018 320.356  -2
  -2  -3  11-29.6018 320.356   1
   2  -3 -10 447.115 137.852   1
  -2  -3   9 201.301 120.633   1
   2   3  -8 2734.90 220.890   1
   2   3   8 8712.75 738.756  -2
   2  -3  -8 8712.75 738.756   1
  -2   3   7 166.525 162.744   1
   2   3   7 370.030 230.953  -2
   2  -3  -7 370.030 230.953   1
   2  -3  -6 9270.18 241.990   1
   2   3   6 9371.53 554.320  -2
   2  -3  -6 9371.53 554.320   1
   2  -3  -5 66.8758 100.552   1
  -2  -3  -5 810.672 547.118  -2
  -2   3   5 810.672 547.118   1
  -2   3   4 1207.65 118.224   1
   2  -3   4 2150.95 428.939  -2
   2   3  -4 2150.95 428.939   1
  -2   3   3 1232.82 78.3684   1
   2  -3   3 1524.45 373.415  -2
   2   3  -3 1524.45 373.415   1
  -2   3   2 81.8605 52.8355   1
  -2  -3   1 1329.69 53.1542   1
   2   3   0 48.6187 44.8217   1
  -2   3  -1 120.474 51.7369   1
   2   3   2 2005.57 97.9568   1
   2  -3   3 93.1481 102.078   1
   2  -3   4 608.629 69.1650   1
  -2  -3  -5 1099.73 85.7577   1
  -2   3  -6 203.085 79.5655   1
  -2  -3  -7 43.8491 55.8585   1
   2   3   8 4317.79 144.482   1
   2   3  -8 5100.36 639.855  -2
   2  -3   8 5100.36 639.855   1
  -2  -3  -9 76.0642 111.981   1
   2  -3  -9 177.953 414.376  -2
   2   3   9 177.953 414.376   1
   2   3  10 10558.6 299.314   1
  -2  -3  10 10528.9 484.142  -2
  -2   3 -10 10528.9 484.142   1
  -2  -3 -11 95.3562 148.637   1
  -2  -3  11 526.281 478.648  -2
  -2   3 -11 526.281 478.648   1
  -2  -3 -12 1226.93 253.627   1
  -2  -3  12 3446.53 891.790  -2
  -2   3 -12 3446.53 891.790   1
   2   3  13-2.97441 242.906   1
   2  -3  14 108.658 279.077   1
  -2   3  14 4246.89 858.405  -2
  -2  -3 -14 4246.89 858.405   1
   2  -3  15 94.0539 428.622   1
  -2   3  15 522.765 843.015  -2
  -2  -3 -15 522.765 843.015   1
   2   3 -16 4859.32 694.350  -2
   2  -3  16 4859.32 694.350   1
   2  -3  17 497.589 801.360   1
  -2   4  18 3673.62 585.335   1
   2  -4 -17 3558.16 441.744   1
  -2  -4 -17 4244.72 1211.35  -2
  -2   4  17 4244.72 1211.35   1
   2  -4 -16 927.481 497.672   1
  -2  -4 -16 2574.59 545.663  -2
  -2   4  16 2574.59 545.663   1
  -2   4  15 364.679 455.479   1
   2   4  15 822.677 432.533  -2
   2  -4 -15 822.677 432.533   1
   2  -4 -14 306.128 557.191   1
   2   4  14 2268.52 383.319  -2
   2  -4 -14 2268.52 383.319   1
  -2   4  13 1043.90 249.890   1
  -2  -4 -13 2147.92 766.299  -2
  -2   4  13 2147.92 766.299   1
   2  -4 -12 2134.24 247.757   1
  -2   4 -12 6839.51 386.863  -2
  -2  -4  12 6839.51 386.863   1
   2  -4 -11 3075.88 295.305   1
   2  -4  11 6639.15 353.517  -2
   2   4 -11 6639.15 353.517   1
   2  -4 -10 3950.72 251.192   1
  -2   4 -10 7494.49 516.753  -2
  -2  -4  10 7494.49 516.753   1
   2  -4  -9 1147.65 205.825   1
   2  -4   9 3028.41 672.203  -2
   2   4  -9 3028.41 672.203   1
  -2  -4   8 2668.36 233.076   1
  -2   4  -8 4253.25 376.079  -2
  -2  -4   8 4253.25 376.079   1
   2  -4  -7 638.815 147.466   1
   2   4   7 456.595 371.876  -2
   2  -4  -7 456.595 371.876   1
   2  -4  -6 9817.76 262.327   1
   2   4   6 9708.19 413.064  -2
   2  -4  -6 9708.19 413.064   1
   2  -4  -5 522.566 81.0942   1
   2  -4   5 1117.15 222.377  -2
   2   4  -5 1117.15 222.377   1
  -2  -4   4 5211.01 128.063   1
  -2   4   3 133.877 68.0087   1
  -2   4  -3 970.063 359.250  -2
  -2  -4   3 970.063 359.250   1
  -2  -4   2 258.622 65.2563   1
   2  -4   2 21829.2 726.518  -2
   2   4  -2 21829.2 726.518   1
   2   4  -1 601.635 62.0276   1
  -2   4  -1 936.198 295.389  -2
  -2  -4   1 936.198 295.389   1
  -2  -4   0 10851.0 144.033   1
   2   4   1 204.432 40.3685   1
  -2   4   1 538.560 335.650  -2
  -2  -4  -1 538.560 335.650   1
  -2   4  -2 23832.5 248.729   1
  -2  -4  -3 813.707 100.517   1
   2   4   4 3380.02 109.894   1
  -2  -4  -5 587.140 67.3008   1
   2   4   6 1104.32 95.1073   1
   2   4   7 49.2065 74.5607   1
  -2   4   7 778.230 463.987  -2
  -2  -4  -7 778.230 463.987   1
   2   4   8 2055.42 139.122   1
  -2   4   8 3584.14 312.847  -2
  -2  -4  -8 3584.14 312.847   1
  -2  -4  -9 716.080 72.1409   1
  -2  -4   9 2088.49 372.608  -2
  -2   4  -9 2088.49 372.608   1
  -2   4 -10 2092.36 116.458   1
  -2  -4  10 6072.78 499.294  -2
  -2   4 -10 6072.78 499.294   1
   2  -4  11 4324.19 253.641   1
  -2   4  11 7047.25 486.181  -2
  -2  -4 -11 7047.25 486.181   1
   2  -4  12 6869.51 388.967   1
  -2   4  12 9008.29 838.908  -2
  -2  -4 -12 9008.29 838.908   1
   2  -4  13 2050.53 308.636   1
  -2  -4  13 2280.49 945.244  -2
  -2   4 -13 2280.49 945.244   1
   2  -4  14 2192.67 519.563   1
  -2   4  14 2379.83 813.898  -2
  -2  -4 -14 2379.83 813.898   1
   2   4 -15 935.125 590.464  -2
   2  -4  15 935.125 590.464   1
   2  -4  16 1144.09 783.603   1
  -2   4  16 2103.32 797.384  -2
  -2  -4 -16 2103.32 797.384   1
   2  -4  17 1012.28 790.662   1
  -2   5  18 3456.08 696.285   1
   2  -5 -17 2633.23 507.348   1
  -2  -5 -17 4514.01 785.950  -2
  -2   5  17 4514.01 785.950   1
   2  -5 -16 604.072 408.864   1
  -2  -5 -16 1932.38 662.516  -2
  -2   5  16 1932.38 662.516   1
   2  -5 -15 337.487 661.710   1
  -2  -5 -15 1061.88 432.532  -2
  -2   5  15 1061.88 432.532   1
   2  -5 -14 6103.83 532.951   1
   2   5  14 7149.80 754.394  -2
   2  -5 -14 7149.80 754.394   1
   2   5 -13 750.755 263.580   1
  -2  -5 -13 6539.95 983.861  -2
  -2   5  13 6539.95 983.861   1
  -2   5  12 762.777 134.731   1
  -2  -5 -12 7848.52 713.992  -2
  -2   5  12 7848.52 713.992   1
   2  -5 -11 16523.2 467.085   1
  -2   5 -11 22288.4 578.230  -2
  -2  -5  11 22288.4 578.230   1
  -2  -5  10 17063.8 413.976   1
   2   5  10 18847.0 699.720  -2
   2  -5 -10 18847.0 699.720   1
  -2   5   9 6564.52 417.779   1
   2   5   9 6798.43 392.894  -2
   2  -5  -9 6798.43 392.894   1
  -2   5   8 206.264 305.565   1
  -2  -5  -8 4915.00 250.542  -2
  -2   5   8 4915.00 250.542   1
   2  -5  -7 771.471 150.046   1
   2   5   7 8644.82 453.481  -2
   2  -5  -7 8644.82 453.481   1
   2   5  -6 5429.29 266.009   1
  -2  -5  -6 14048.1 296.187  -2
  -2   5   6 14048.1 296.187   1
  -2   5   5 18134.2 326.506   1
  -2   5  -5 35694.8 476.244  -2
  -2  -5   5 35694.8 476.244   1
   2  -5  -4 2128.27 102.853   1
   2  -5   4 6845.68 320.451  -2
   2   5  -4 6845.68 320.451   1
   2   5  -3 31673.9 276.088   1
  -2   5  -3 45093.7 906.118  -2
  -2  -5   3 45093.7 906.118   1
  -2   5   2 647.379 54.0575   1
  -2   5  -2 2425.89 363.008  -2
  -2  -5   2 2425.89 363.008   1
   2   5  -1 10420.8 167.875   1
  -2   5  -1 16778.5 463.070  -2
  -2  -5   1 16778.5 463.070   1
  -2   5   0 3.50448 65.6541   1
  -2   5   0 131.063 173.871  -2
  -2  -5   0 131.063 173.871   1
  -2   5  -1 7072.70 121.723   1
  -2   5   1 15500.1 356.328  -2
  -2  -5  -1 15500.1 356.328   1
  -2   5  -2 2040.97 83.6075   1
  -2   5   2 2456.07 456.811  -2
  -2  -5  -2 2456.07 456.811   1
   2   5   3 15440.9 288.672   1
   2   5   4 5288.57 92.5264   1
  -2  -5  -5 20928.7 231.034   1
   2  -5  -5 37464.3 749.987  -2
   2   5   5 37464.3 749.987   1
  -2  -5  -6 10270.8 187.294   1
   2  -5  -6 16128.6 942.742  -2
   2   5   6 16128.6 942.742   1
  -2  -5  -7 9336.07 215.202   1
  -2  -5   7 9821.41 409.945  -2
  -2   5  -7 9821.41 409.945   1
  -2  -5  -8 5580.22 161.902   1
   2  -5  -8 6161.32 768.850  -2
   2   5   8 6161.32 768.850   1
  -2  -5  -9 844.264 153.308   1
  -2   5   9 6531.62 589.691  -2
  -2  -5  -9 6531.62 589.691   1
   2  -5  10 2297.28 231.035   1
  -2  -5  10 15466.2 520.247  -2
  -2   5 -10 15466.2 520.247   1
   2  -5  11 3477.21 265.783   1
   2  -5 -11 18161.3 542.227  -2
   2   5  11 18161.3 542.227   1
   2   5  12 11557.6 447.555   1
  -2   5  12 12022.5 728.402  -2
  -2  -5 -12 12022.5 728.402   1
   2  -5  13 9816.37 475.827   1
  -2  -5  13 9971.73 933.859  -2
  -2   5 -13 9971.73 933.859   1
   2  -5  14 2439.73 737.083   1
  -2   5  14 6887.35 864.642  -2
  -2  -5 -14 6887.35 864.642   1
   2  -5  15 880.093 647.081   1
  -2   5  15 1450.21 741.127  -2
  -2  -5 -15 1450.21 741.127   1
   2  -5  16 1729.64 539.077   1
  -2   5  16 2111.60 1508.81  -2
  -2  -5 -16 2111.60 1508.81   1
   2  -6 -17 531.589 773.283   1
   2   6  17 1187.37 474.569  -2
   2  -6 -17 1187.37 474.569   1
   2  -6 -16 500.921 779.036   1
   2   6  16 1260.01 469.970  -2
   2  -6 -16 1260.01 469.970   1
   2  -6 -15 1497.91 725.936   1
  -2  -6 -15 2419.17 452.422  -2
  -2   6  15 2419.17 452.422   1
   2  -6 -14 344.317 344.298   1
   2   6  14 1307.77 605.304  -2
   2  -6 -14 1307.77 605.304   1
   2  -6 -13 2768.73 409.789   1
  -2  -6 -13 3364.11 621.194  -2
  -2   6  13 3364.11 621.194   1
   2  -6 -12 5275.30 407.077   1
  -2  -6 -12 9929.48 1106.82  -2
  -2   6  12 9929.48 1106.82   1
  -2   6  11 2142.85 346.932   1
   2   6  11 2327.96 426.752  -2
   2  -6 -11 2327.96 426.752   1
  -2   6  10 22531.4 485.851   1
   2   6  10 21376.5 660.172  -2
   2  -6 -10 21376.5 660.172   1
  -2   6   9 341.351 303.544   1
   2   6   9 8571.79 384.884  -2
   2  -6  -9 8571.79 384.884   1
  -2   6   8 1077.48 268.178   1
   2   6   8 1095.37 199.574  -2
   2  -6  -8 1095.37 199.574   1
   2  -6  -7 9869.59 597.024   1
   2   6   7 11389.0 306.556  -2
   2  -6  -7 11389.0 306.556   1
  -2   6   6 3921.61 156.270   1
  -2   6  -6 32558.0 458.965  -2
  -2  -6   6 32558.0 458.965   1
  -2  -6   5 1898.89 126.244   1
  -2  -6  -5 4696.52 217.263  -2
  -2   6   5 4696.52 217.263   1
   2  -6  -4 40075.6 367.544   1
   2  -6   4 83662.3 889.138  -2
   2   6  -4 83662.3 889.138   1
   2  -6  -3 4233.66 115.929   1
  -2   6  -3 14579.4 331.772  -2
  -2  -6   3 14579.4 331.772   1
  -2   6   2 83089.8 449.616   1
  -2  -6  -2 90067.9 807.109  -2
  -2   6   2 90067.9 807.109   1
  -2   6   1 12065.8 199.095   1
  -2   6  -1 12509.4 389.415  -2
  -2  -6   1 12509.4 389.415   1
   2   6   0 1041.87 89.8765   1
  -2  -6   0 2027.36 169.502  -2
  -2   6   0 2027.36 169.502   1
  -2   6  -1 43.9712 49.7960   1
  -2   6   1 9993.46 312.441  -2
  -2  -6  -1 9993.46 312.441   1
  -2  -6  -2 2940.30 88.5610   1
  -2   6   2 70285.0 1677.19  -2
  -2  -6  -2 70285.0 1677.19   1
  -2  -6  -3 12264.6 178.733   1
  -2  -6   3 15835.0 621.785  -2
  -2   6  -3 15835.0 621.785   1
  -2  -6  -4 52260.0 341.279   1
  -2   6   4 82889.4 1930.82  -2
  -2  -6  -4 82889.4 1930.82   1
  -2   6  -5 3564.27 113.139   1
  -2   6   5 4452.08 227.319  -2
  -2  -6  -5 4452.08 227.319   1
   2   6   6 32693.4 438.251   1
  -2   6   6 35183.6 458.877  -2
  -2  -6  -6 35183.6 458.877   1
  -2  -6  -7 1385.91 93.5220   1
  -2   6   7 9705.08 256.209  -2
  -2  -6  -7 9705.08 256.209   1
   2   6   8 142.004 129.046   1
   2  -6  -8 915.665 188.210  -2
   2   6   8 915.665 188.210   1
  -2   6  -9 9123.97 336.463   1
   2  -6  -9 8874.08 447.019  -2
   2   6   9 8874.08 447.019   1
   2   6  10 1624.10 376.280   1
  -2   6  10 19924.2 520.466  -2
  -2  -6 -10 19924.2 520.466   1
   2   6  11 53.2977 254.670   1
  -2   6  11 2034.83 328.745  -2
  -2  -6 -11 2034.83 328.745   1
   2   6  12 7677.95 419.265   1
  -2  -6  12 11419.8 606.813  -2
  -2   6 -12 11419.8 606.813   1
   2   6  13 1774.25 279.416   1
  -2   6  13 4046.94 1175.54  -2
  -2  -6 -13 4046.94 1175.54   1
   2   6  14 1851.41 463.937   1
  -2   6  14 2133.13 734.455  -2
  -2  -6 -14 2133.13 734.455   1
   2  -6 -15 2590.68 594.550  -2
   2   6  15 2590.68 594.550   1
   2  -6  16 1300.25 759.381   1
   2  -6 -16 1717.47 675.192  -2
   2   6  16 1717.47 675.192   1
   2  -7 -17 845.923 549.525   1
   2   7  17 2771.58 760.839  -2
   2  -7 -17 2771.58 760.839   1
   2  -7 -16 1314.09 809.881   1
   2   7  16 2061.61 481.709  -2
   2  -7 -16 2061.61 481.709   1
   2  -7 -15 1745.69 739.674   1
   2   7  15 2897.01 500.367  -2
   2  -7 -15 2897.01 500.367   1
  -2   7  14 534.542 609.794   1
   2   7  14 1547.30 440.578  -2
   2  -7 -14 1547.30 440.578   1
  -2   7  13 494.883 326.836   1
   2   7  13 2203.94 594.550  -2
   2  -7 -13 2203.94 594.550   1
  -2   7  12 248.963 535.749   1
   2   7  12 4795.12 455.210  -2
   2  -7 -12 4795.12 455.210   1
  -2   7  11 2779.78 438.448   1
   2   7  11 14266.2 704.876  -2
   2  -7 -11 14266.2 704.876   1
  -2   7  10 10300.7 552.115   1
  -2  -7 -10 11121.6 754.226  -2
  -2   7  10 11121.6 754.226   1
   2  -7  -9 19531.9 389.690   1
  -2  -7  -9 18776.4 562.188  -2
  -2   7   9 18776.4 562.188   1
  -2  -7   8 6608.00 212.197   1
   2   7   8 7112.91 302.311  -2
   2  -7  -8 7112.91 302.311   1
  -2  -7   7 477.617 117.738   1
  -2   7  -7 1021.61 200.215  -2
  -2  -7   7 1021.61 200.215   1
   2  -7  -6 3937.57 158.926   1
   2   7   6 3943.71 287.294  -2
   2  -7  -6 3943.71 287.294   1
   2   7  -5 907.000 104.351   1
  -2   7  -5 37070.1 475.832  -2
  -2  -7   5 37070.1 475.832   1
  -2   7   4 2968.32 122.738   1
   2  -7   4 12538.3 337.446  -2
   2   7  -4 12538.3 337.446   1
   2   7  -3 61344.6 402.006   1
   2   7   3 71914.5 659.345  -2
   2  -7  -3 71914.5 659.345   1
  -2   7   2 8502.45 163.331   1
   2   7   2 12322.1 277.791  -2
   2  -7  -2 12322.1 277.791   1
   2  -7  -1 19627.8 302.839   1
  -2   7  -1 30253.5 405.459  -2
  -2  -7   1 30253.5 405.459   1
  -2   7   0 7631.07 195.183   1
  -2   7   0 14122.0 414.190  -2
  -2  -7   0 14122.0 414.190   1
   2   7   1 13268.1 182.189   1
  -2  -7   1 28821.7 526.654  -2
  -2   7  -1 28821.7 526.654   1
  -2  -7  -2 4283.44 125.018   1
  -2   7   2 10747.9 529.921  -2
  -2  -7  -2 10747.9 529.921   1
  -2  -7  -3 12627.6 198.743   1
  -2   7   3 62628.5 801.258  -2
  -2  -7  -3 62628.5 801.258   1
   2   7   4 10817.5 152.607   1
  -2   7   4 14289.1 448.375  -2
  -2  -7  -4 14289.1 448.375   1
   2   7   5 43086.5 379.642   1
  -2  -7   5 44186.2 738.840  -2
  -2   7  -5 44186.2 738.840   1
  -2  -7  -6 82.9341 79.8906   1
  -2  -7   6 3333.08 165.680  -2
  -2   7  -6 3333.08 165.680   1
  -2  -7  -7 716.848 84.8979   1
  -2   7   7 1043.43 162.612  -2
  -2  -7  -7 1043.43 162.612   1
  -2  -7  -8 1879.72 185.360   1
  -2   7   8 6932.73 249.832  -2
  -2  -7  -8 6932.73 249.832   1
  -2  -7  -9 6.53743 222.572   1
  -2   7   9 15775.9 334.240  -2
  -2  -7  -9 15775.9 334.240   1
  -2  -7 -10 974.353 262.237   1
  -2   7  10 9363.66 291.251  -2
  -2  -7 -10 9363.66 291.251   1
  -2  -7 -11 15347.5 909.787   1
  -2   7  11 14796.2 542.067  -2
  -2  -7 -11 14796.2 542.067   1
   2  -7  12 6319.02 399.873   1
  -2   7  12 6445.77 522.852  -2
  -2  -7 -12 6445.77 522.852   1
   2   7  13 676.737 421.715   1
   2  -7 -13 848.986 370.261  -2
   2   7  13 848.986 370.261   1
   2   7  14 2230.99 698.192   1
  -2   7  14 1974.55 481.544  -2
  -2  -7 -14 1974.55 481.544   1
  -2   7  15 2565.05 546.342  -2
  -2  -7 -15 2565.05 546.342   1
   2  -7  16 444.424 512.222   1
   2  -8 -17 8405.61 888.781   1
   2  -8 -16 2018.48 820.213   1
  -2  -8 -16 3158.84 519.800  -2
  -2   8  16 3158.84 519.800   1
   2  -8 -15 1752.53 777.389   1
  -2  -8 -15 2115.18 483.398  -2
  -2   8  15 2115.18 483.398   1
   2  -8 -14 356.765 670.381   1
  -2  -8 -14 1801.59 436.082  -2
  -2   8  14 1801.59 436.082   1
  -2   8  13 1145.81 464.863   1
  -2  -8 -13 6851.57 601.504  -2
  -2   8  13 6851.57 601.504   1
  -2   8  12 2876.21 475.485   1
   2   8  12 4895.26 552.152  -2
   2  -8 -12 4895.26 552.152   1
  -2   8  11 7571.97 873.210   1
   2   8  11 12720.3 593.903  -2
   2  -8 -11 12720.3 593.903   1
  -2   8  10 3261.42 437.226   1
   2   8  10 6150.64 536.568  -2
   2  -8 -10 6150.64 536.568   1
  -2   8   9 15833.1 271.529   1
   2   8   9 15243.1 523.221  -2
   2  -8  -9 15243.1 523.221   1
  -2  -8   8 5301.39 215.520   1
  -2  -8  -8 6743.55 309.346  -2
  -2   8   8 6743.55 309.346   1
  -2   8   7 543.127 134.454   1
   2   8   7 608.351 193.995  -2
   2  -8  -7 608.351 193.995   1
   2  -8  -6 91.0540 109.402   1
   2  -8   6 1032.04 182.037  -2
   2   8  -6 1032.04 182.037   1
  -2  -8   5 539.333 94.8897   1
  -2  -8  -5 5603.68 309.625  -2
  -2   8   5 5603.68 309.625   1
  -2   8   4 91.5018 77.2377   1
   2   8   4 5769.44 240.553  -2
   2  -8  -4 5769.44 240.553   1
   2  -8  -3 4689.16 147.418   1
  -2  -8  -3 5285.33 224.222  -2
  -2   8   3 5285.33 224.222   1
  -2   8   2 160.042 64.3374   1
  -2   8  -2 2752.74 237.951  -2
  -2  -8   2 2752.74 237.951   1
  -2  -8   1 532.451 94.8843   1
  -2   8  -1 690.014 218.617  -2
  -2  -8   1 690.014 218.617   1
  -2   8   0 177.328 40.4140   1
  -2  -8   0 626.659 171.391  -2
  -2   8   0 626.659 171.391   1
  -2  -8  -1 18.8159 54.8581   1
  -2   8   1 623.074 152.933  -2
  -2  -8  -1 623.074 152.933   1
  -2  -8  -2 2899.66 95.9147   1
  -2   8   2 3281.07 515.214  -2
  -2  -8  -2 3281.07 515.214   1
   2   8   3 360.379 59.9694   1
   2  -8  -3 4074.96 299.875  -2
   2   8   3 4074.96 299.875   1
   2  -8   4 7324.16 182.042   1
  -2  -8   4 6753.48 245.856  -2
  -2   8  -4 6753.48 245.856   1
   2   8   5 6171.50 198.651   1
  -2   8   5 5880.85 277.388  -2
  -2  -8  -5 5880.85 277.388   1
  -2  -8  -6 934.523 85.5496   1
   2  -8  -6 1014.07 143.243  -2
   2   8   6 1014.07 143.243   1
  -2  -8  -7 210.342 65.8630   1
  -2   8   7 706.821 137.926  -2
  -2  -8  -7 706.821 137.926   1
  -2  -8  -8 2134.53 184.468   1
  -2   8   8 6386.39 249.774  -2
  -2  -8  -8 6386.39 249.774   1
   2   8   9 479.229 194.735   1
  -2   8   9 12767.9 321.620  -2
  -2  -8  -9 12767.9 321.620   1
   2   8  10 3991.14 349.405   1
   2  -8 -10 7101.53 324.154  -2
   2   8  10 7101.53 324.154   1
  -2  -8 -11 7735.01 435.459   1
  -2   8  11 14021.1 479.354  -2
  -2  -8 -11 14021.1 479.354   1
   2   8  12 3342.42 310.879   1
  -2   8  12 5073.58 425.149  -2
  -2  -8 -12 5073.58 425.149   1
   2  -8  13 6862.58 967.958   1
   2  -8 -13 8168.32 611.585  -2
   2   8  13 8168.32 611.585   1
  -2   8  14 1567.99 438.321  -2
  -2  -8 -14 1567.99 438.321   1
   2  -8  15 319.483 478.116   1
   2  -8 -15 2425.18 658.443  -2
   2   8  15 2425.18 658.443   1
   2  -8  16 1072.15 743.909   1
   2   9  16 5886.72 600.126  -2
   2  -9 -16 5886.72 600.126   1
   2   9  15 917.428 426.211  -2
   2  -9 -15 917.428 426.211   1
   2   9  14 1612.23 414.582  -2
   2  -9 -14 1612.23 414.582   1
   2   9  13 2334.05 391.366  -2
   2  -9 -13 2334.05 391.366   1
  -2   9  12 850.816 536.559   1
   2   9  12 2215.02 428.429  -2
   2  -9 -12 2215.02 428.429   1
  -2  -9 -11 1013.48 326.734  -2
  -2   9  11 1013.48 326.734   1
  -2   9  10 1222.56 309.341   1
   2   9  10 6182.42 696.666  -2
   2  -9 -10 6182.42 696.666   1
  -2  -9   9 867.012 151.451   1
   2   9   9 1056.63 415.996  -2
   2  -9  -9 1056.63 415.996   1
   2  -9  -8 796.698 131.059   1
  -2  -9  -8 2164.88 238.849  -2
  -2   9   8 2164.88 238.849   1
  -2  -9   7 1397.93 170.852   1
   2   9   7 2696.78 252.454  -2
   2  -9  -7 2696.78 252.454   1
   2  -9  -6 1639.14 174.793   1
   2   9   6 1803.41 217.954  -2
   2  -9  -6 1803.41 217.954   1
  -2   9   5 152.267 102.812   1
  -2  -9  -5 6649.67 273.752  -2
  -2   9   5 6649.67 273.752   1
  -2   9   4 2647.04 137.385   1
   2  -9   4 2664.84 233.078  -2
   2   9  -4 2664.84 233.078   1
  -2   9   3 3682.44 150.882   1
  -2   9  -3 4546.86 260.798  -2
  -2  -9   3 4546.86 260.798   1
  -2   9   2 30.1901 107.220   1
  -2   9  -2 206.905 195.388  -2
  -2  -9   2 206.905 195.388   1
  -2   9   1 3720.80 151.305   1
  -2  -9  -1 4544.12 392.447  -2
  -2   9   1 4544.12 392.447   1
  -2  -9   0 1519.94 73.8749   1
  -2   9   0 3101.27 329.881  -2
  -2  -9   0 3101.27 329.881   1
  -2   9  -1 252.801 51.0991   1
  -2  -9   1 3370.92 250.192  -2
  -2   9  -1 3370.92 250.192   1
  -2   9  -2 33.3258 96.7043   1
  -2   9   2 157.808 259.530  -2
  -2  -9  -2 157.808 259.530   1
   2  -9   3 693.110 109.169   1
  -2  -9   3 3753.97 348.426  -2
  -2   9  -3 3753.97 348.426   1
  -2  -9  -4 155.136 88.5575   1
  -2   9   4 2267.91 291.582  -2
  -2  -9  -4 2267.91 291.582   1
   2   9   5 7404.80 189.223   1
  -2   9   5 7767.60 490.573  -2
  -2  -9  -5 7767.60 490.573   1
  -2   9  -6 47.8374 176.928   1
  -2   9   6 1515.52 163.923  -2
  -2  -9  -6 1515.52 163.923   1
   2   9   7 1709.27 157.260   1
  -2   9   7 2500.92 200.456  -2
  -2  -9  -7 2500.92 200.456   1
  -2  -9  -8 1350.66 145.354   1
  -2   9   8 1913.06 178.168  -2
  -2  -9  -8 1913.06 178.168   1
  -2  -9  -9 83.5127 147.416   1
  -2   9   9 809.138 200.784  -2
  -2  -9  -9 809.138 200.784   1
  -2  -9 -10 5053.57 330.718   1
  -2   9  10 5985.96 330.543  -2
  -2  -9 -10 5985.96 330.543   1
   2   9  11 801.209 587.871   1
  -2   9  11 1033.11 313.590  -2
  -2  -9 -11 1033.11 313.590   1
   2   9  12 3195.25 782.047   1
   2  -9 -12 2837.30 575.979  -2
   2   9  12 2837.30 575.979   1
   2  -9 -13 2353.51 497.708  -2
   2   9  13 2353.51 497.708   1
  -2   9  14 1346.67 436.276  -2
  -2  -9 -14 1346.67 436.276   1
   2  -9  15 637.230 466.974   1
  -2   9  15 2464.75 840.981  -2
  -2  -9 -15 2464.75 840.981   1
   2  -9  16 652.163 874.430   1
  -2  10  16-21.0947 699.633   1
   2  10  15 934.330 435.579  -2
   2 -10 -15 934.330 435.579   1
   2  10  14 2004.26 424.527  -2
   2 -10 -14 2004.26 424.527   1
   2  10  13 1475.77 396.614  -2
   2 -10 -13 1475.77 396.614   1
  -2  10  12 1441.52 546.246   1
   2  10  12 5698.29 516.861  -2
   2 -10 -12 5698.29 516.861   1
  -2  10  11 824.462 480.168   1
   2  10  11 1766.16 409.611  -2
   2 -10 -11 1766.16 409.611   1
  -2  10  10 2431.37 548.926   1
  -2 -10 -10 4596.40 453.819  -2
  -2  10  10 4596.40 453.819   1
  -2  10   9 258.415 398.967   1
   2  10   9 2131.30 400.855  -2
   2 -10  -9 2131.30 400.855   1
   2 -10  -8 4379.39 272.401   1
   2  10   8 5463.08 378.051  -2
   2 -10  -8 5463.08 378.051   1
  -2 -10   7 2234.59 186.244   1
   2  10   7 2278.74 239.417  -2
   2 -10  -7 2278.74 239.417   1
  -2  10   6 5841.43 251.703   1
   2  10   6 6723.81 315.381  -2
   2 -10  -6 6723.81 315.381   1
  -2 -10   5 478.109 175.782   1
  -2 -10  -5 723.063 154.346  -2
  -2  10   5 723.063 154.346   1
  -2  10   4 3250.25 163.589   1
   2 -10   4 8306.98 452.096  -2
   2  10  -4 8306.98 452.096   1
  -2  10   3 279.143 95.9807   1
   2 -10   3 1653.42 329.176  -2
   2  10  -3 1653.42 329.176   1
   2  10  -2 3347.73 178.828   1
   2 -10   2 11949.5 423.781  -2
   2  10  -2 11949.5 423.781   1
  -2  10   1 399.458 109.480   1
   2 -10   1 445.579 236.306  -2
   2  10  -1 445.579 236.306   1
  -2  10   0 7662.76 149.555   1
   2 -10   0 13934.4 561.729  -2
   2  10   0 13934.4 561.729   1
   2  10   1 57.9826 56.7161   1
  -2  10   1 442.136 270.958  -2
  -2 -10  -1 442.136 270.958   1
   2  10   2 10648.6 251.590   1
  -2  10   2 13643.9 531.593  -2
  -2 -10  -2 13643.9 531.593   1
  -2  10  -3 1707.34 168.987   1
  -2 -10   3 2024.74 231.647  -2
  -2  10  -3 2024.74 231.647   1
  -2 -10  -4 6467.98 220.267   1
  -2  10   4 8307.43 385.305  -2
  -2 -10  -4 8307.43 385.305   1
  -2 -10  -5 77.7686 95.7098   1
  -2  10   5 494.578 295.936  -2
  -2 -10  -5 494.578 295.936   1
  -2 -10  -6 1859.39 183.126   1
  -2  10   6 6121.89 332.030  -2
  -2 -10  -6 6121.89 332.030   1
  -2  10  -7 16.1438 102.968   1
  -2  10   7 1858.69 194.839  -2
  -2 -10  -7 1858.69 194.839   1
   2  10   8 721.773 491.091   1
  -2  10   8 4475.51 265.863  -2
  -2 -10  -8 4475.51 265.863   1
   2  10   9 1336.83 603.173   1
  -2  10   9 2136.77 247.732  -2
  -2 -10  -9 2136.77 247.732   1
   2  10  10 2707.38 703.183   1
  -2  10  10 5535.43 722.341  -2
  -2 -10 -10 5535.43 722.341   1
   2  10  11 477.555 593.283   1
  -2  10  11 1670.61 488.412  -2
  -2 -10 -11 1670.61 488.412   1
   2 -10 -12 5691.22 550.882  -2
   2  10  12 5691.22 550.882   1
   2 -10 -13 1175.78 491.833  -2
   2  10  13 1175.78 491.833   1
  -2  10  14 2336.25 480.030  -2
  -2 -10 -14 2336.25 480.030   1
   2  10  15 356.126 801.416   1
   2  10 -15 1551.07 984.351  -2
   2 -10  15 1551.07 984.351   1
   2  11  15 2555.84 689.898  -2
   2 -11 -15 2555.84 689.898   1
  -2 -11 -14 2702.62 434.432  -2
  -2  11  14 2702.62 434.432   1
  -2 -11 -13 7907.28 529.003  -2
  -2  11  13 7907.28 529.003   1
   2  11  12 2225.88 393.061  -2
   2 -11 -12 2225.88 393.061   1
   2 -11 -11 9560.03 1079.89   1
  -2 -11 -11 12626.4 619.570  -2
  -2  11  11 12626.4 619.570   1
   2  11  10 3148.17 371.168  -2
   2 -11 -10 3148.17 371.168   1
   2  11   9 3000.27 344.775  -2
   2 -11  -9 3000.27 344.775   1
  -2  11   8 451.702 366.169   1
   2  11   8 1601.29 393.146  -2
   2 -11  -8 1601.29 393.146   1
  -2  11   7 1977.02 250.130   1
   2  11   7 9193.53 604.639  -2
   2 -11  -7 9193.53 604.639   1
  -2 -11   6 981.222 421.082   1
  -2 -11  -6 1633.10 225.977  -2
  -2  11   6 1633.10 225.977   1
   2 -11  -5 14546.1 674.064   1
  -2 -11  -5 19953.5 454.437  -2
  -2  11   5 19953.5 454.437   1
  -2  11   4 46.1030 110.771   1
   2 -11   4 767.801 281.972  -2
   2  11  -4 767.801 281.972   1
  -2  11   3 7232.55 250.945   1
   2 -11   3 13098.3 492.169  -2
   2  11  -3 13098.3 492.169   1
  -2  11   2 104.414 113.748   1
  -2 -11  -2 529.019 298.549  -2
  -2  11   2 529.019 298.549   1
   2  11  -1 4408.76 186.695   1
   2  11   1 13844.6 384.185  -2
   2 -11  -1 13844.6 384.185   1
  -2  11   0 691.104 84.4331   1
  -2 -11   0 1669.42 264.324  -2
  -2  11   0 1669.42 264.324   1
   2  11   1 11240.3 204.943   1
  -2  11   1 14812.5 371.365  -2
  -2 -11  -1 14812.5 371.365   1
  -2  11  -2 641.040 129.850   1
  -2 -11   2 926.777 220.245  -2
  -2  11  -2 926.777 220.245   1
  -2  11  -3 6479.27 210.062   1
  -2 -11   3 14100.7 549.938  -2
  -2  11  -3 14100.7 549.938   1
   2  11   4 1158.39 143.140   1
  -2 -11   4 1167.93 228.167  -2
  -2  11  -4 1167.93 228.167   1
  -2  11  -5 6395.60 223.144   1
  -2  11   5 18239.6 550.872  -2
  -2 -11  -5 18239.6 550.872   1
   2  11   6 642.670 151.804   1
  -2  11   6 1579.70 263.369  -2
  -2 -11  -6 1579.70 263.369   1
   2  11   7 9105.01 367.825   1
  -2  11   7 10770.5 346.718  -2
  -2 -11  -7 10770.5 346.718   1
   2  11   8 1709.91 601.517   1
  -2  11   8 1608.55 222.382  -2
  -2 -11  -8 1608.55 222.382   1
   2  11   9 1323.52 601.058   1
  -2  11   9 2674.44 626.713  -2
  -2 -11  -9 2674.44 626.713   1
   2  11  10 1077.95 674.374   1
  -2  11  10 2701.11 656.141  -2
  -2 -11 -10 2701.11 656.141   1
  -2  11  11 9606.91 730.780  -2
  -2 -11 -11 9606.91 730.780   1
  -2  11  12 1937.37 593.163  -2
  -2 -11 -12 1937.37 593.163   1
  -2  11  13 7856.67 649.012  -2
  -2 -11 -13 7856.67 649.012   1
   2 -11  14 1431.23 704.899   1
   2 -11 -14 3041.66 646.235  -2
   2  11  14 3041.66 646.235   1
   2  11 -15 511.616 1032.83  -2
   2 -11  15 511.616 1032.83   1
   2 -12 -14 185.202 832.427   1
   2  12  14 4198.03 1142.68  -2
   2 -12 -14 4198.03 1142.68   1
  -2  12  13 1742.64 650.970   1
  -2 -12 -13 3317.13 519.036  -2
  -2  12  13 3317.13 519.036   1
  -2 -12 -12 9655.99 548.290  -2
  -2  12  12 9655.99 548.290   1
   2  12  11 2601.52 397.484  -2
   2 -12 -11 2601.52 397.484   1
  -2 -12 -10 8112.47 480.313  -2
  -2  12  10 8112.47 480.313   1
   2  12   9 7415.44 552.848  -2
   2 -12  -9 7415.44 552.848   1
   2  12   8 2687.38 375.657  -2
   2 -12  -8 2687.38 375.657   1
   2 -12  -7 6911.89 642.005   1
  -2 -12  -7 6877.47 572.773  -2
  -2  12   7 6877.47 572.773   1
   2 -12   6 13387.1 595.601  -2
   2  12  -6 13387.1 595.601   1
  -2  12   5 1952.02 269.348   1
  -2 -12  -5 5150.61 381.927  -2
  -2  12   5 5150.61 381.927   1
  -2  12   4 18885.0 510.318   1
  -2 -12  -4 27247.2 694.060  -2
  -2  12   4 27247.2 694.060   1
   2  12  -3 1606.78 173.454   1
  -2 -12  -3 7258.36 504.852  -2
  -2  12   3 7258.36 504.852   1
  -2  12   2 16956.7 594.899   1
   2 -12   2 16150.5 648.740  -2
   2  12  -2 16150.5 648.740   1
   2  12  -1 7866.70 301.384   1
   2 -12   1 8050.67 264.858  -2
   2  12  -1 8050.67 264.858   1
   2  12   0 1077.25 137.555   1
  -2  12   0 1879.02 183.071  -2
  -2 -12   0 1879.02 183.071   1
  -2  12  -1 76.0937 92.5996   1
  -2  12   1 6791.65 322.669  -2
  -2 -12  -1 6791.65 322.669   1
  -2  12  -2 390.572 124.936   1
  -2  12   2 14524.7 474.643  -2
  -2 -12  -2 14524.7 474.643   1
  -2  12  -3 6467.21 268.850   1
  -2 -12   3 8621.13 389.277  -2
  -2  12  -3 8621.13 389.277   1
   2  12   4 8510.67 280.754   1
  -2  12   4 25831.7 568.916  -2
  -2 -12  -4 25831.7 568.916   1
  -2  12  -5 3217.45 195.320   1
   2 -12  -5 4675.71 270.482  -2
   2  12   5 4675.71 270.482   1
   2  12   6 16686.1 479.215   1
  -2 -12   6 17936.8 511.876  -2
  -2  12  -6 17936.8 511.876   1
   2  12   7 1474.34 581.134   1
  -2  12   7 6336.48 304.986  -2
  -2 -12  -7 6336.48 304.986   1
   2  12   8 2181.30 688.023   1
  -2  12   8 2981.88 520.156  -2
  -2 -12  -8 2981.88 520.156   1
   2  12   9 7454.77 988.167   1
  -2  12   9 8489.09 689.959  -2
  -2 -12  -9 8489.09 689.959   1
   2  12  10 100.774 629.960   1
  -2  12  10 6235.68 843.871  -2
  -2 -12 -10 6235.68 843.871   1
   2  12  11 429.154 691.150   1
  -2  12  11 2330.05 734.676  -2
  -2 -12 -11 2330.05 734.676   1
  -2  12  12 10927.4 855.104  -2
  -2 -12 -12 10927.4 855.104   1
   2 -12 -13 3309.40 854.296  -2
   2  12  13 3309.40 854.296   1
   2  12 -14 4605.84 1124.22  -2
   2 -12  14 4605.84 1124.22   1
   2  13  13 402.326 951.179  -2
   2 -13 -13 402.326 951.179   1
   2  13  12 1015.50 483.228  -2
   2 -13 -12 1015.50 483.228   1
   2  13  11 3750.55 512.966  -2
   2 -13 -11 3750.55 512.966   1
  -2 -13 -10 4818.14 464.703  -2
  -2  13  10 4818.14 464.703   1
   2 -13   9 3884.01 439.720  -2
   2  13  -9 3884.01 439.720   1
   2 -13   8 11238.1 550.348  -2
   2  13  -8 11238.1 550.348   1
   2 -13   7 695.883 355.537  -2
   2  13  -7 695.883 355.537   1
  -2  13   6 134.016 519.835   1
  -2 -13  -6 2352.96 571.024  -2
  -2  13   6 2352.96 571.024   1
  -2 -13  -5 9861.11 625.238  -2
  -2  13   5 9861.11 625.238   1
  -2  13   4 9013.26 413.338   1
   2 -13   4 15246.7 700.270  -2
   2  13  -4 15246.7 700.270   1
  -2  13   3 15104.6 564.158   1
   2 -13   3 17839.9 473.915  -2
   2  13  -3 17839.9 473.915   1
   2  13  -2 6354.66 349.410   1
  -2 -13  -2 15407.7 472.609  -2
  -2  13   2 15407.7 472.609   1
   2  13  -1 4653.32 321.221   1
  -2 -13  -1 7273.07 376.350  -2
  -2  13   1 7273.07 376.350   1
   2  13   0 12967.0 491.982   1
  -2  13   0 24985.0 615.158  -2
  -2 -13   0 24985.0 615.158   1
   2  13   1 3062.42 231.121   1
  -2  13   1 6369.48 260.034  -2
  -2 -13  -1 6369.48 260.034   1
   2  13   2 10862.7 311.388   1
  -2 -13   2 16567.3 525.552  -2
  -2  13  -2 16567.3 525.552   1
   2  13   3 2217.94 230.944   1
  -2  13   3 15205.2 393.061  -2
  -2 -13  -3 15205.2 393.061   1
   2  13   4 9730.25 414.873   1
  -2 -13   4 17594.6 447.607  -2
  -2  13  -4 17594.6 447.607   1
   2  13   5 11447.9 373.069   1
   2 -13  -5 11383.2 334.976  -2
   2  13   5 11383.2 334.976   1
   2  13   6 3079.51 392.619   1
   2 -13  -6 2864.76 315.133  -2
   2  13   6 2864.76 315.133   1
   2  13   7 191.868 551.680   1
  -2  13   7 333.056 406.091  -2
  -2 -13  -7 333.056 406.091   1
   2  13   8 172.929 599.578   1
  -2  13   8 10632.4 739.375  -2
  -2 -13  -8 10632.4 739.375   1
  -2  13   9 3312.65 504.028  -2
  -2 -13  -9 3312.65 504.028   1
  -2  13  10 4788.51 547.915  -2
  -2 -13 -10 4788.51 547.915   1
  -2  13  11 3940.77 535.539  -2
  -2 -13 -11 3940.77 535.539   1
   2 -13 -12 1822.46 521.652  -2
   2  13  12 1822.46 521.652   1
  -2  13  13 160.826 1167.60  -2
  -2 -13 -13 160.826 1167.60   1
   2 -14 -12 5054.98 735.136   1
   2 -14  12 4981.43 1108.45  -2
   2  14 -12 4981.43 1108.45   1
   2  14  11 4896.08 498.502  -2
   2 -14 -11 4896.08 498.502   1
   2  14  10 3455.44 465.613  -2
   2 -14 -10 3455.44 465.613   1
  -2 -14  -9 8069.88 542.699  -2
  -2  14   9 8069.88 542.699   1
   2  14   8 8330.73 526.256  -2
   2 -14  -8 8330.73 526.256   1
   2  14   7 344.759 403.023  -2
   2 -14  -7 344.759 403.023   1
   2 -14   6 3579.18 501.098  -2
   2  14  -6 3579.18 501.098   1
   2 -14   5 2838.43 461.121  -2
   2  14  -5 2838.43 461.121   1
  -2 -14   4 1233.13 492.201   1
  -2 -14  -4 4083.68 487.381  -2
  -2  14   4 4083.68 487.381   1
  -2 -14   3 176.392 447.914   1
   2 -14   3 3538.56 465.777  -2
   2  14  -3 3538.56 465.777   1
   2  14  -2 814.666 197.391   1
  -2 -14  -2 799.008 390.756  -2
  -2  14   2 799.008 390.756   1
  -2  14   1 4522.76 378.909   1
   2 -14   1 4808.91 309.202  -2
   2  14  -1 4808.91 309.202   1
  -2  14   0 1185.94 272.665   1
  -2 -14   0 2436.23 274.344  -2
  -2  14   0 2436.23 274.344   1
  -2  14  -1 220.535 208.909   1
  -2  14   1 3774.03 221.962  -2
  -2 -14  -1 3774.03 221.962   1
   2  14   2 75.9337 150.291   1
  -2 -14   2 875.825 248.734  -2
  -2  14  -2 875.825 248.734   1
   2  14   3 3828.88 328.011   1
  -2 -14   3 4317.91 249.457  -2
  -2  14  -3 4317.91 249.457   1
  -2 -14  -4 3403.46 209.960   1
  -2 -14   4 4517.44 378.606  -2
  -2  14  -4 4517.44 378.606   1
   2  14   5 597.643 278.750   1
  -2 -14   5 2482.40 286.873  -2
  -2  14  -5 2482.40 286.873   1
  -2  14  -6 1736.41 356.158   1
  -2  14   6 3398.15 388.535  -2
  -2 -14  -6 3398.15 388.535   1
  -2  14  -7 387.123 322.476   1
  -2  14   7 925.760 438.885  -2
  -2 -14  -7 925.760 438.885   1
   2  14   8 5032.22 964.133   1
  -2  14   8 7770.62 606.422  -2
  -2 -14  -8 7770.62 606.422   1
   2  14   9 1008.11 706.556   1
  -2  14   9 6941.57 614.644  -2
  -2 -14  -9 6941.57 614.644   1
  -2  14  10 3855.03 567.125  -2
  -2 -14 -10 3855.03 567.125   1
  -2  14  11 5664.52 630.362  -2
  -2 -14 -11 5664.52 630.362   1
  -2  14  12 5228.05 1429.40  -2
  -2 -14 -12 5228.05 1429.40   1
   2  15 -12 209.260 768.156   1
  -2  15  11 1625.82 530.979   1
   2 -15  11 2209.55 1000.59  -2
   2  15 -11 2209.55 1000.59   1
   2 -15  10 2629.69 492.382  -2
   2  15 -10 2629.69 492.382   1
   2 -15   9 579.153 449.364  -2
   2  15  -9 579.153 449.364   1
  -2 -15  -8 1369.85 449.580  -2
  -2  15   8 1369.85 449.580   1
  -2 -15  -7 3152.36 483.996  -2
  -2  15   7 3152.36 483.996   1
  -2 -15  -6 996.982 463.532  -2
  -2  15   6 996.982 463.532   1
   2 -15   5 4698.51 540.793  -2
   2  15  -5 4698.51 540.793   1
  -2 -15   4 1894.93 574.854   1
  -2 -15  -4 1908.97 462.812  -2
  -2  15   4 1908.97 462.812   1
  -2 -15   3 2771.98 639.645   1
   2 -15   3 2379.93 393.123  -2
   2  15  -3 2379.93 393.123   1
  -2 -15   2 451.455 476.288   1
  -2 -15  -2 58.7611 351.415  -2
  -2  15   2 58.7611 351.415   1
   2  15  -1 2280.11 407.474   1
  -2 -15  -1 2405.34 461.208  -2
  -2  15   1 2405.34 461.208   1
  -2 -15   0 1215.75 220.383   1
  -2 -15   0 3277.16 458.878  -2
  -2  15   0 3277.16 458.878   1
  -2 -15  -1 419.877 196.232   1
   2 -15  -1 2444.38 426.723  -2
   2  15   1 2444.38 426.723   1
  -2 -15  -2 115.494 169.065   1
   2 -15  -2 156.573 378.635  -2
   2  15   2 156.573 378.635   1
   2 -15   3 235.398 226.407   1
   2 -15  -3 3088.89 306.007  -2
   2  15   3 3088.89 306.007   1
   2  15   4 183.857 326.894   1
  -2  15   4 1480.01 326.814  -2
  -2 -15  -4 1480.01 326.814   1
   2  15   5 2316.32 714.717   1
  -2  15   5 4965.49 420.463  -2
  -2 -15  -5 4965.49 420.463   1
  -2 -15  -6 590.404 607.626   1
   2 -15  -6 912.703 374.587  -2
   2  15   6 912.703 374.587   1
  -2 -15   7 4019.98 408.224  -2
  -2  15  -7 4019.98 408.224   1
  -2 -15   8 1948.00 386.487  -2
  -2  15  -8 1948.00 386.487   1
  -2 -15   9 701.637 446.814  -2
  -2  15  -9 701.637 446.814   1
  -2  15  10 3881.91 1190.14  -2
  -2 -15 -10 3881.91 1190.14   1
  -2  15  11 1279.67 1253.10  -2
  -2 -15 -11 1279.67 1253.10   1
  -2  15  12 1797.73 1334.19  -2
  -2 -15 -12 1797.73 1334.19   1
   2 -16  10 4525.09 1084.59  -2
   2  16 -10 4525.09 1084.59   1
   2 -16   9 494.129 540.308  -2
   2  16  -9 494.129 540.308   1
   2  16   8 5318.66 571.155  -2
   2 -16  -8 5318.66 571.155   1
  -2 -16  -7 579.654 460.195  -2
  -2  16   7 579.654 460.195   1
   2 -16   6 5084.42 597.718  -2
   2  16  -6 5084.42 597.718   1
  -2 -16  -5 807.915 477.574  -2
  -2  16   5 807.915 477.574   1
   2  16  -4 1835.10 642.041   1
  -2 -16  -4 7271.59 525.835  -2
  -2  16   4 7271.59 525.835   1
  -2 -16   3 299.316 544.115   1
   2 -16   3 288.666 384.541  -2
   2  16  -3 288.666 384.541   1
   2  16  -2 4507.02 529.824   1
   2 -16   2 7766.92 630.270  -2
   2  16  -2 7766.92 630.270   1
  -2 -16   1 110.760 367.219   1
   2 -16   1 334.513 356.200  -2
   2  16  -1 334.513 356.200   1
  -2 -16   0 3611.26 499.394   1
  -2 -16   0 7966.42 511.784  -2
  -2  16   0 7966.42 511.784   1
  -2 -16  -1 84.7652 366.095   1
  -2 -16   1 320.623 336.228  -2
  -2  16  -1 320.623 336.228   1
  -2 -16  -2 3410.71 403.418   1
   2 -16  -2 6895.46 580.860  -2
   2  16   2 6895.46 580.860   1
   2  16   3 185.991 359.731   1
   2 -16  -3 262.379 462.225  -2
   2  16   3 262.379 462.225   1
   2  16   4 6281.58 982.220   1
  -2 -16   4 8274.56 522.148  -2
  -2  16  -4 8274.56 522.148   1
  -2 -16   5 687.455 400.126  -2
  -2  16  -5 687.455 400.126   1
   2  16   6 2437.60 790.141   1
  -2  16   6 4978.01 512.557  -2
  -2 -16  -6 4978.01 512.557   1
  -2 -16   7 214.139 409.358  -2
  -2  16  -7 214.139 409.358   1
   2 -16  -8 4928.93 509.984  -2
   2  16   8 4928.93 509.984   1
  -2 -16   9 1732.19 892.874  -2
  -2  16  -9 1732.19 892.874   1
  -2 -16  10 3147.34 805.191  -2
  -2  16 -10 3147.34 805.191   1
   2 -17   9 2170.27 950.539  -2
   2  17  -9 2170.27 950.539   1
   2 -17  -8-54.8052 738.576   1
   2 -17   8-39.8057 695.872  -2
   2  17  -8-39.8057 695.872   1
   2 -17   7 5937.54 582.176  -2
   2  17  -7 5937.54 582.176   1
   2 -17   6 860.309 517.499  -2
   2  17  -6 860.309 517.499   1
   2 -17   5 6838.21 557.466  -2
   2  17  -5 6838.21 557.466   1
  -2  17  -4 1342.97 380.116  -2
  -2 -17   4 1342.97 380.116   1
  -2 -17   3 2681.75 489.614   1
   2 -17   3 5214.58 610.257  -2
   2  17  -3 5214.58 610.257   1
   2 -17  -2 115.820 412.894   1
  -2 -17  -2-12.5861 387.133  -2
  -2  17   2-12.5861 387.133   1
  -2 -17   1 3112.64 510.848   1
  -2 -17  -1 7993.26 526.567  -2
  -2  17   1 7993.26 526.567   1
  -2 -17   0 1110.93 420.483   1
   2 -17   0 1769.81 394.673  -2
   2  17   0 1769.81 394.673   1
   2 -17   1 5044.02 594.731   1
   2 -17  -1 6937.69 610.046  -2
   2  17   1 6937.69 610.046   1
  -2  17  -2 125.419 539.228   1
   2 -17  -2 355.340 486.251  -2
   2  17   2 355.340 486.251   1
   2  17   3 5688.70 668.216   1
   2 -17  -3 4432.50 724.491  -2
   2  17   3 4432.50 724.491   1
  -2 -17  -4 930.244 465.072   1
  -2 -17   4 2093.84 947.166  -2
  -2  17  -4 2093.84 947.166   1
  -2 -17   5 6631.37 675.704  -2
  -2  17  -5 6631.37 675.704   1
  -2  17   6 423.826 551.976  -2
  -2 -17  -6 423.826 551.976   1
  -2 -17   8 1559.72 929.364  -2
  -2  17  -8 1559.72 929.364   1
  -2 -17   9 2243.34 863.381  -2
  -2  17  -9 2243.34 863.381   1
  -2  18   7 1867.65 572.849   1
   2 -18   7 544.432 913.546  -2
   2  18  -7 544.432 913.546   1
   2  18  -6 1976.57 777.992   1
  -2 -18  -6 6054.90 816.892  -2
  -2  18   6 6054.90 816.892   1
   2 -18   5 793.791 471.097  -2
   2  18  -5 793.791 471.097   1
  -2  18  -4 5703.94 485.255  -2
  -2 -18   4 5703.94 485.255   1
  -2 -18   3-77.0288 433.047   1
   2 -18   3 1462.39 455.841  -2
   2  18  -3 1462.39 455.841   1
  -2 -18   2 2002.16 503.069   1
  -2 -18  -2 1696.02 527.352  -2
  -2  18   2 1696.02 527.352   1
  -2  18   1 1463.98 385.881   1
   2 -18   1 1546.06 635.315  -2
   2  18  -1 1546.06 635.315   1
  -2 -18   0 1801.97 396.372   1
   2 -18   0 3261.25 701.326  -2
   2  18   0 3261.25 701.326   1
  -2  18  -1 289.279 437.132   1
   2 -18  -1 1591.93 656.113  -2
   2  18   1 1591.93 656.113   1
  -2 -18  -2 433.117 702.337   1
   2 -18  -2 1163.37 642.541  -2
   2  18   2 1163.37 642.541   1
  -2 -18  -3 1838.38 771.844   1
  -2 -18   3 1892.02 701.900  -2
  -2  18  -3 1892.02 701.900   1
  -2 -18  -4 635.878 779.704   1
  -2 -18   4 3596.22 1141.01  -2
  -2  18  -4 3596.22 1141.01   1
   2  18   5 216.663 732.216   1
  -2 -18   5 1116.26 1029.54  -2
  -2  18  -5 1116.26 1029.54   1
   2 -19  -4 3732.87 907.161   1
  -2 -19  -4 9667.17 1380.48  -2
  -2  19   4 9667.17 1380.48   1
  -2  19   3 558.945 409.815   1
  -2 -19  -3 1153.57 995.287  -2
  -2  19   3 1153.57 995.287   1
  -2 -19   2 2312.90 453.968   1
  -2 -19  -2 5875.32 1178.27  -2
  -2  19   2 5875.32 1178.27   1
  -2  19   1 646.955 465.499   1
  -2 -19  -1 629.023 991.086  -2
  -2  19   1 629.023 991.086   1
  -2 -19   0 5672.15 704.411   1
  -2 -19   0 12317.0 1576.48  -2
  -2  19   0 12317.0 1576.48   1
  -2 -19  -1 349.948 707.725   1
  -2 -19   1 334.079 942.331  -2
  -2  19  -1 334.079 942.331   1
  -2 -19  -2 3723.31 1019.92   1
  -2 -19   2 7412.87 1331.61  -2
  -2  19  -2 7412.87 1331.61   1
   3   0 -16 3022.73 634.887   1
   3   0 -14 2997.60 410.033   1
   3   0 -12 4747.88 438.495   1
   3   0 -10 4477.81 166.329   1
   3   0  -8 140.979 297.806   1
  -3   0   6 122.036 222.174   1
   3   0  -4 4485.17 180.523   1
   3   0  -2 550.846 132.054   1
  -3   0   0 42.4469 84.8713   1
  -3   0  -2 20.3629 83.3244   1
  -3   0  -4 4821.18 166.574   1
   3   0   6 3483.66 162.961   1
   3   0   8 217.830 138.893   1
  -3   0 -10 1867.50 186.177   1
  -3   0 -12 13313.2 512.777   1
   3   0  14 4561.47 501.155   1
   3   0  16 113.810 580.879   1
   3  -1 -17 1007.57 460.259   1
   3  -1 -16 3028.52 449.053   1
   3  -1 -15 6324.12 439.616   1
   3   1 -14 3404.89 302.904   1
   3   1 -13 778.607 221.987   1
  -3  -1  12 151.243 208.408   1
   3  -1 -11 63.1587 109.188   1
   3   1 -10 1430.84 153.577   1
   3  -1  -9 4441.00 299.879   1
  -3   1   8 3298.87 292.574   1
  -3   1   7 3692.32 233.289   1
   3  -1  -6 619.756 119.893   1
   3  -1  -5 328.137 103.340   1
  -3   1   4 9978.25 219.473   1
  -3  -1   3 358.791 117.538   1
  -3   1   2 10337.0 169.665   1
   3   1  -1 54.9512 74.7712   1
  -3   1   0 453.152 63.4380   1
  -3   1  -1 68.2542 51.2939   1
  -3  -1  -2 1077.76 71.5411   1
  -3  -1  -3 46.5129 59.9796   1
  -3   1  -4 16523.8 213.241   1
  -3  -1  -5 1823.70 99.2430   1
  -3   1  -6 6893.20 153.287   1
  -3   1  -7 4625.87 135.310   1
   3   1   8 945.903 90.7399   1
  -3  -1  -9 75.7158 101.043   1
  -3   1 -10 153.621 111.290   1
  -3   1 -11 97.6186 131.405   1
  -3   1 -12 93.4073 154.995   1
  -3   1 -13 4244.07 248.001   1
  -3  -1 -14 3516.84 282.767   1
  -3  -1 -15 5410.44 449.213   1
   3  -1  16 2870.65 481.870   1
  -3   1 -17 573.332 1079.91   1
  -3   2  17 1077.04 352.523   1
   3  -2 -16 4866.93 427.230   1
  -3   2  15 7079.57 467.151   1
   3  -2 -14 7576.11 384.933   1
  -3   2  13 689.528 219.557   1
  -3  -2  12 5587.02 327.261   1
  -3   2  11 216.205 194.053   1
   3   2 -10 1344.25 205.959   1
   3  -2  -9 16530.8 502.954   1
  -3  -2   8 19421.9 453.150   1
   3  -2  -7 18926.6 387.723   1
  -3  -2   6 1821.43 109.677   1
  -3  -2   5 551.998 88.6699   1
   3  -2  -4 4775.51 139.593   1
   3   2  -3 9321.27 174.713   1
   3   2  -2 341.241 67.5924   1
  -3  -2   1 53666.6 324.805   1
   3   2   0 133.970 59.0285   1
   3   2   1 16524.9 162.353   1
  -3   2  -2 45.6031 53.6556   1
   3  -2   3 480.874 62.6055   1
  -3  -2  -4 9968.07 169.626   1
  -3   2  -5 9189.98 188.631   1
  -3  -2  -6 2475.80 114.520   1
  -3  -2  -7 23639.8 256.711   1
  -3  -2  -8 22655.6 266.579   1
  -3   2  -9 5164.18 175.650   1
   3   2  10 1242.04 117.743   1
  -3   2 -11 244.721 126.202   1
   3  -2  12 4010.93 221.334   1
   3  -2  13 2930.69 254.473   1
   3   2  14 5798.36 371.361   1
   3  -2  15 4566.11 511.116   1
   3  -2  16 2401.71 464.976   1
  -3   2 -17 135.875 1067.07   1
  -3   3  17 597.824 388.685   1
  -3   3  16 1015.81 305.266   1
  -3   3  15 281.200 286.555   1
   3  -3 -14 2604.63 306.050   1
  -3  -3  13 300.414 203.369   1
  -3   3  12 206.380 182.874   1
   3   3 -11 1458.77 171.416   1
   3   3 -10 2258.26 239.003   1
   3  -3  -9 1029.48 195.329   1
  -3   3   8 57412.6 868.572   1
  -3   3   7 163.680 125.753   1
  -3   3   6 17561.3 321.810   1
  -3  -3   5 4234.39 148.412   1
  -3   3   4 18821.3 244.958   1
  -3   3   3 215.035 61.7026   1
  -3  -3   2 15794.1 174.143   1
   3   3  -1 2112.16 77.2603   1
  -3  -3   0 165451. 527.709   1
  -3  -3  -1 4162.60 87.8851   1
   3  -3   2 3989.50 96.1524   1
   3   3   3 94.9542 43.2682   1
  -3  -3  -4 7395.94 116.386   1
  -3   3  -5 4699.18 125.168   1
  -3  -3  -6 39041.9 421.177   1
  -3   3  -7 671.602 90.9822   1
  -3   3  -8 28915.3 294.598   1
   3   3   9 772.589 83.6089   1
  -3   3 -10 230.345 92.9888   1
   3   3  11 2080.57 143.686   1
   3  -3  12 2901.39 273.211   1
   3  -3  13 113.320 220.037   1
  -3  -3 -14 4031.08 325.551   1
  -3  -3 -15 590.622 305.206   1
   3  -3  16 182.488 430.106   1
  -3   3 -17 1090.54 983.151   1
   3  -4 -17 121.628 327.226   1
  -3   4  16 4324.92 390.068   1
   3  -4 -15 2775.90 334.071   1
   3  -4 -14 8720.03 437.290   1
  -3  -4  13 3125.07 272.279   1
   3  -4 -12 1440.34 207.637   1
  -3   4  11 547.500 151.608   1
  -3  -4  10 2124.40 231.739   1
   3  -4  -9 4180.52 268.525   1
  -3   4   8 14833.4 428.661   1
  -3   4   7 32069.1 525.172   1
   3  -4  -6 9412.98 225.298   1
  -3   4   5 163.176 104.879   1
  -3   4   4 4195.28 130.968   1
   3   4  -3 1587.01 81.4671   1
   3   4  -2 2889.83 85.4468   1
   3   4  -1 58428.2 283.352   1
   3   4   0 286.980 50.8105   1
  -3  -4  -1 26837.6 211.504   1
  -3  -4  -2 1824.90 88.0342   1
  -3  -4  -3 9066.87 160.503   1
  -3  -4  -4 1512.76 81.1117   1
  -3   4  -5 6028.99 157.186   1
  -3  -4  -6 5490.65 171.363   1
  -3  -4  -7 37790.7 427.323   1
   3  -4   8 10742.0 229.623   1
   3   4   9 168.028 97.1872   1
   3   4  10 751.542 123.482   1
  -3  -4 -11 153.576 201.854   1
  -3  -4 -12 829.941 249.403   1
   3  -4  13 9239.38 474.597   1
   3  -4  14 5822.70 378.295   1
   3  -4  15 1556.33 329.227   1
   3  -4  16 2265.63 456.666   1
   3  -5 -17 389.787 341.179   1
   3  -5 -16 1064.21 301.907   1
  -3   5  15 11681.2 525.545   1
  -3   5  14 5313.77 377.817   1
   3   5 -13 3036.06 307.046   1
   3  -5 -12 222.101 174.549   1
   3  -5 -11 1746.00 217.054   1
   3  -5 -10 346.936 220.432   1
   3   5  -9 3718.12 266.922   1
   3  -5  -8 2062.03 181.743   1
  -3   5   7 13278.3 356.786   1
   3  -5  -6 1744.52 149.583   1
  -3   5   5 142.434 78.2164   1
  -3  -5   4 2558.59 115.839   1
  -3  -5   3 321.362 71.0617   1
   3   5  -2 6384.41 112.825   1
   3   5  -1 1286.87 76.8058   1
   3   5   0 53.0532 58.7525   1
  -3  -5  -1 245.829 50.2905   1
  -3   5  -2 378.672 68.8756   1
  -3  -5  -3 53.5380 69.9462   1
  -3   5  -4 6843.70 194.796   1
  -3  -5  -5 224.287 115.926   1
   3   5   6 8830.29 321.253   1
  -3  -5  -7 8717.47 232.101   1
  -3  -5  -8 18.8336 81.5258   1
   3  -5   9 1424.66 118.049   1
   3  -5  10 979.872 114.202   1
  -3  -5 -11 630.033 178.469   1
  -3  -5 -12 488.457 213.781   1
  -3  -5 -13 5706.12 317.027   1
   3   5  14 3113.53 324.887   1
  -3  -5 -15 7265.25 436.819   1
  -3   5 -16 346.499 418.165   1
  -3   6  17 459.465 358.912   1
   3  -6 -16 2031.76 361.361   1
   3  -6 -15 564.845 307.307   1
   3  -6 -14 3060.41 331.980   1
  -3   6  13 308.648 251.436   1
   3  -6 -12 2960.14 297.568   1
  -3   6  11 911.957 181.678   1
   3  -6 -10 4180.43 290.983   1
  -3   6   9 61.7971 188.637   1
   3  -6  -8 687.577 147.887   1
   3  -6  -7 1129.57 147.322   1
   3  -6  -6 95.1584 98.1812   1
  -3   6   5 1278.51 98.8968   1
   3  -6  -4 1642.35 97.3467   1
   3   6  -3 76.6848 65.9659   1
  -3  -6   2 1915.40 93.1961   1
  -3   6   1 2676.80 104.526   1
   3   6   0 161.174 65.9206   1
  -3   6  -1 5531.94 126.489   1
  -3  -6  -2 348.559 59.5178   1
  -3   6  -3 154.904 76.9832   1
  -3  -6  -4 2860.36 158.250   1
  -3  -6  -5 86.3695 97.0666   1
  -3  -6  -6 1697.91 167.643   1
   3  -6   7 2204.20 116.003   1
  -3  -6  -8 245.332 89.6667   1
  -3  -6  -9 557.872 98.5779   1
  -3  -6 -10 299.151 179.542   1
   3  -6  11 30.9712 169.766   1
  -3  -6 -12 7259.88 337.087   1
   3  -6  13 182.273 204.288   1
  -3  -6 -14 4094.67 346.099   1
   3  -6  15 304.878 331.746   1
   3  -6  16 67.4445 454.576   1
  -3   7  17 2002.81 502.522   1
   3  -7 -16 3092.04 402.433   1
   3  -7 -15 2174.49 366.879   1
   3  -7 -14 1695.47 317.127   1
   3  -7 -13 114.735 276.515   1
   3  -7 -12 696.118 258.263   1
  -3   7  11 1553.35 189.724   1
  -3   7  10 2723.73 262.524   1
   3  -7  -9 1250.00 210.064   1
  -3   7   8 2487.76 188.807   1
  -3   7   7 77.0913 100.360   1
  -3   7   6 3027.95 144.780   1
  -3   7   5 1417.77 97.5508   1
  -3   7   4 11938.5 182.167   1
  -3  -7   3 484.156 54.9362   1
   3  -7  -2 8650.99 172.156   1
   3   7  -1 638.002 78.7211   1
  -3  -7   0 740.523 78.6693   1
   3   7   1 145.451 63.7858   1
   3  -7   2 2986.38 78.3445   1
  -3   7  -3 143.324 93.7151   1
   3  -7   4 11584.9 204.416   1
  -3  -7  -5 2531.53 140.395   1
  -3   7  -6 8918.22 298.154   1
  -3   7  -7 727.728 140.119   1
   3  -7   8 3169.58 149.022   1
  -3  -7  -9 5.89147 68.6647   1
   3   7  10 469.294 171.065   1
   3  -7  11 1647.91 215.509   1
   3  -7  12 306.332 183.697   1
  -3  -7 -13 2061.87 232.356   1
   3  -7  14 3844.23 379.193   1
  -3  -7 -15 953.377 340.507   1
   3  -7  16 2493.42 542.963   1
  -3   8  17 2588.98 889.943   1
   3  -8 -16 3246.51 428.687   1
  -3   8  15 5852.72 463.248   1
   3  -8 -14 743.407 308.399   1
  -3   8  13 209.194 277.126   1
  -3   8  12 3854.30 362.307   1
   3  -8 -11 899.949 254.822   1
  -3   8  10 32.6248 234.479   1
  -3   8   9 18047.9 439.983   1
  -3   8   8 5661.78 193.002   1
   3  -8  -7 5593.21 194.190   1
   3  -8  -6 121.532 90.5367   1
  -3   8   5 1432.30 104.639   1
  -3   8   4 528.741 72.7712   1
   3   8  -3 16134.9 273.261   1
  -3   8   2 23.1699 84.2310   1
  -3   8   1 16156.8 257.059   1
  -3  -8   0 953.825 92.5114   1
  -3  -8  -1 7389.79 161.478   1
  -3  -8  -2 33.4101 30.6204   1
  -3  -8  -3 8692.62 214.385   1
   3   8   4 3448.20 143.718   1
  -3  -8  -5 5230.73 193.294   1
  -3  -8  -6 1299.52 134.572   1
   3  -8   7 6638.20 223.307   1
  -3  -8  -8 7383.93 310.507   1
   3  -8   9 8060.64 325.465   1
  -3  -8 -10 963.261 174.313   1
  -3  -8 -11 737.163 184.979   1
   3  -8  12 2972.20 277.283   1
  -3  -8 -13 554.807 310.043   1
  -3  -8 -14 1785.86 352.458   1
   3   8  15 5716.08 594.014   1
   3  -8  16 2264.64 618.948   1
  -3   9  16 2877.31 445.619   1
   3  -9 -15 1022.15 342.224   1
   3  -9 -14 1023.50 325.932   1
   3  -9 -13 1503.45 313.322   1
   3  -9 -12 341.277 269.446   1
   3  -9 -11 3270.49 337.710   1
   3  -9 -10 5726.71 370.023   1
  -3   9   9 2356.23 279.805   1
  -3   9   8 25835.9 398.078   1
   3   9   7 23748.4 1367.59  -2
   3  -9  -8 23748.4 1367.59   1
  -3   9   7 86.0043 109.934   1
   3  -9  -6 2162.06 135.135   1
   3  -9   5 12661.5 1010.44  -2
   3   9  -6 12661.5 1010.44   1
  -3   9   5 10330.2 222.679   1
   3  -9   4 11509.6 936.820  -2
   3   9  -5 11509.6 936.820   1
  -3  -9   4 1711.35 104.565   1
  -3   9   3 1707.61 120.228   1
  -3  -9   2 15100.8 289.440   1
  -3   9   1 4704.31 168.850   1
  -3  -9   0 45978.0 456.495   1
   3   9   1 8156.75 195.272   1
  -3   9  -2 4029.73 132.371   1
   3   9   3 132.782 62.7477   1
  -3  -9  -4 676.664 75.7493   1
  -3  -9  -5 12468.1 228.237   1
  -3  -9  -6 7363.44 205.376   1
  -3  -9  -7 1497.29 124.254   1
  -3  -9  -8 16437.3 315.862   1
  -3  -9  -9 2097.10 201.882   1
   3  -9  10 2838.87 290.768   1
  -3   9 -11 5968.75 370.039   1
   3  -9  12 183.383 285.520   1
  -3  -9 -13 657.266 313.301   1
   3  -9  14 1350.66 342.957   1
   3  -9  15 841.379 508.769   1
   3 -10 -15 981.375 337.367   1
   3 -10 -14 3912.19 411.574   1
   3 -10 -13 1688.36 323.999   1
  -3  10  12 662.713 279.376   1
   3 -10 -11 306.469 261.513   1
   3 -10 -10 773.840 253.015   1
  -3  10   9 2150.50 308.313   1
   3  10   8 2502.08 779.851  -2
   3 -10  -9 2502.08 779.851   1
   3 -10  -8 1320.80 238.638   1
   3  10   7 16881.1 1217.48  -2
   3 -10  -8 16881.1 1217.48   1
  -3 -10   7 19327.6 349.137   1
   3  10   6 26972.6 1457.56  -2
   3 -10  -7 26972.6 1457.56   1
  -3  10   6 14550.3 283.680   1
   3 -10   5 16699.8 1149.27  -2
   3  10  -6 16699.8 1149.27   1
   3 -10  -5 107.344 105.672   1
   3 -10   4 1169.45 631.732  -2
   3  10  -5 1169.45 631.732   1
  -3  10   4 61.4167 73.6834   1
  -3  10   3 2914.88 169.763   1
  -3  10   2 14348.4 344.213   1
  -3  10   1 25215.8 409.898   1
   3 -10   0 26262.2 1295.78  -2
   3  10  -1 26262.2 1295.78   1
   3  10   0 825.347 108.111   1
   3  10   1 16482.3 253.680   1
  -3  10  -2 14003.8 235.122   1
   3  10   3 4292.61 105.796   1
   3  10   4 1275.97 68.0631   1
  -3  10  -5 2153.35 98.5280   1
  -3  10  -6 9207.97 295.020   1
  -3  10   7 24483.1 1469.02  -2
  -3 -10  -6 24483.1 1469.02   1
  -3  10  -7 18328.4 385.222   1
  -3 -10  -8 260.726 187.062   1
  -3 -10  -9 192.578 260.632   1
   3 -10  10 83.3273 277.064   1
  -3 -10 -11 171.776 299.408   1
   3 -10  12 1365.20 343.385   1
  -3 -10 -13 4621.74 494.826   1
   3  10  14 1077.08 385.028   1
   3 -10  15 369.240 727.216   1
   3 -11 -15 6280.29 661.067   1
  -3  11  14 3639.76 483.059   1
   3 -11 -13 4020.03 477.526   1
   3 -11 -12 295.133 277.948   1
   3 -11 -11 1234.00 288.741   1
  -3  11  10 5921.28 434.484   1
   3  11   9 4283.73 921.515  -2
   3 -11 -10 4283.73 921.515   1
   3 -11  -9 879.179 242.864   1
   3  11   8 874.027 764.172  -2
   3 -11  -9 874.027 764.172   1
  -3  11   8-1.94782 217.713   1
   3  11   7 5312.75 919.970  -2
   3 -11  -8 5312.75 919.970   1
  -3  11   7 13508.1 492.326   1
   3 -11   6 18264.7 1275.06  -2
   3  11  -7 18264.7 1275.06   1
  -3  11   6 3130.80 344.475   1
   3 -11   5 4373.53 794.605  -2
   3  11  -6 4373.53 794.605   1
  -3  11   5 486.966 122.377   1
   3 -11   4 904.046 626.273  -2
   3  11  -5 904.046 626.273   1
  -3  11   4 130.380 79.9148   1
   3 -11   3 273.543 628.454  -2
   3  11  -4 273.543 628.454   1
  -3  11   3 1668.37 170.669   1
  -3 -11   2 52.0241 123.115   1
  -3 -11   1 115.584 112.805   1
   3 -11   0 863.047 613.242  -2
   3  11  -1 863.047 613.242   1
  -3  11   0 695.418 96.3113   1
   3  11   1 498.562 80.6688   1
   3 -11  -2 25.9718 589.237  -2
   3  11   1 25.9718 589.237   1
  -3 -11  -2 3327.08 159.739   1
   3  11   3 50.7831 56.9591   1
   3 -11  -4 6.96885 630.901  -2
   3  11   3 6.96885 630.901   1
   3 -11   4 71.4730 73.2878   1
  -3 -11  -5 1110.57 82.3052   1
  -3  11  -6 7405.77 332.931   1
  -3  11  -7 4408.91 243.801   1
  -3  11  -8 500.947 229.816   1
   3 -11   9 436.652 273.175   1
  -3 -11 -10 5830.10 457.490   1
   3 -11  11 153.737 296.305   1
   3 -11  12 874.414 345.155   1
  -3 -11 -13 3456.68 457.812   1
  -3  12  14 3110.46 553.270   1
  -3  12  13-52.3501 409.785   1
  -3  12  12 1670.48 487.142   1
   3  12  11 1298.27 1012.44  -2
   3 -12 -12 1298.27 1012.44   1
  -3  12  11 2310.49 400.303   1
   3  12  10 2641.67 929.565  -2
   3 -12 -11 2641.67 929.565   1
   3 -12 -10 531.223 420.050   1
   3 -12   9 2247.76 633.751  -2
   3  12 -10 2247.76 633.751   1
   3 -12  -9 618.875 325.650   1
   3  12   8 1707.47 844.471  -2
   3 -12  -9 1707.47 844.471   1
  -3  12   8 2182.51 437.437   1
   3 -12   7 4236.39 892.086  -2
   3  12  -8 4236.39 892.086   1
  -3  12   7 946.382 224.543   1
  -3  12   6 101.390 230.436   1
   3 -12   5 312.683 655.820  -2
   3  12  -6 312.683 655.820   1
  -3  12   5 953.659 246.148   1
   3 -12   4 2343.43 696.655  -2
   3  12  -5 2343.43 696.655   1
  -3  12   4 160.229 195.690   1
   3 -12   3 706.190 650.296  -2
   3  12  -4 706.190 650.296   1
  -3  12   3 198.820 171.732   1
   3 -12   2 1694.97 719.836  -2
   3  12  -3 1694.97 719.836   1
  -3  12   2 2334.73 194.743   1
   3 -12   1 7697.54 921.730  -2
   3  12  -2 7697.54 921.730   1
  -3  12   1 2923.12 161.096   1
   3 -12   0 2664.80 740.529  -2
   3  12  -1 2664.80 740.529   1
  -3 -12   0 482.695 91.8314   1
   3 -12  -1 2950.85 753.303  -2
   3  12   0 2950.85 753.303   1
  -3 -12  -1 6039.39 184.227   1
  -3 -12  -2 1802.39 130.359   1
  -3  12  -3 311.218 69.4968   1
   3 -12  -4 773.499 659.586  -2
   3  12   3 773.499 659.586   1
  -3 -12  -4 907.080 80.4704   1
   3 -12  -5 2795.24 757.409  -2
   3  12   4 2795.24 757.409   1
  -3 -12  -5 114.460 125.070   1
   3 -12  -6 124.232 745.070  -2
   3  12   5 124.232 745.070   1
  -3  12  -6 189.279 198.562   1
  -3 -12   7 1587.25 794.891  -2
  -3  12  -6 1587.25 794.891   1
  -3 -12  -7 2646.57 261.287   1
  -3 -12  -8 177.459 215.116   1
  -3 -12  -9 2299.50 315.951   1
   3 -12  10 214.316 291.326   1
  -3 -12 -11 409.311 424.695   1
  -3 -12 -12 2748.11 517.513   1
  -3 -12 -13-56.4375 997.222   1
  -3  13  13 22.7758 558.980   1
   3  13  12 1396.35 1054.56  -2
   3 -13 -13 1396.35 1054.56   1
   3 -13 -12 1508.05 454.057   1
   3  13  11 4207.76 1191.46  -2
   3 -13 -12 4207.76 1191.46   1
  -3  13  11 1423.38 464.082   1
   3  13  10 1097.21 655.520  -2
   3 -13 -11 1097.21 655.520   1
  -3  13  10 979.864 433.608   1
   3 -13   9 1032.90 630.963  -2
   3  13 -10 1032.90 630.963   1
  -3  13   9 260.282 419.421   1
   3 -13   8 2626.42 867.671  -2
   3  13  -9 2626.42 867.671   1
  -3  13   8 1127.11 405.020   1
   3 -13   7 1354.55 798.552  -2
   3  13  -8 1354.55 798.552   1
  -3  13   7-38.8232 454.273   1
   3  13   6 8183.42 807.281  -2
   3 -13  -7 8183.42 807.281   1
  -3  13   6 6331.45 683.880   1
   3 -13   5 5526.97 898.934  -2
   3  13  -6 5526.97 898.934   1
  -3  13   5 642.188 247.175   1
   3 -13   4 2881.47 768.805  -2
   3  13  -5 2881.47 768.805   1
  -3  13   4 6209.60 370.191   1
   3 -13   3 7106.78 928.940  -2
   3  13  -4 7106.78 928.940   1
  -3  13   3 374.058 204.174   1
   3 -13   2 4271.01 756.409  -2
   3  13  -3 4271.01 756.409   1
  -3  13   2 2939.95 292.309   1
   3 -13   1 4050.83 796.772  -2
   3  13  -2 4050.83 796.772   1
  -3  13   1 238.811 181.521   1
   3 -13   0 4178.83 807.322  -2
   3  13  -1 4178.83 807.322   1
  -3  13   0 3977.38 242.821   1
   3 -13  -1 3477.63 792.033  -2
   3  13   0 3477.63 792.033   1
  -3 -13  -1 36.9454 192.596   1
   3 -13  -2 3233.72 807.510  -2
   3  13   1 3233.72 807.510   1
  -3 -13  -2 3005.86 202.459   1
   3 -13  -3 4204.70 821.505  -2
   3  13   2 4204.70 821.505   1
  -3  13  -3 41.8629 157.287   1
  -3 -13   4 5533.93 672.647  -2
  -3  13  -3 5533.93 672.647   1
  -3  13  -4 3316.68 242.218   1
  -3 -13   5 4099.90 503.235  -2
  -3  13  -4 4099.90 503.235   1
  -3  13  -5 903.701 215.239   1
  -3  13   6 6303.92 995.345  -2
  -3 -13  -5 6303.92 995.345   1
  -3  13  -6 8246.99 495.217   1
  -3 -13   7 8024.85 1107.66  -2
  -3  13  -6 8024.85 1107.66   1
  -3  13  -7 66.2449 307.971   1
  -3 -13   8 1584.50 878.579  -2
  -3  13  -7 1584.50 878.579   1
  -3  13  -8 3834.27 384.458   1
  -3  13  -9 207.627 291.359   1
  -3 -13 -10 170.507 324.487   1
  -3 -13 -11 777.522 394.715   1
  -3 -13 -12 161.899 856.575   1
   3 -14 -13-117.130 770.391   1
  -3  14  12 1313.08 556.956   1
   3  14  11 1836.95 1100.22  -2
   3 -14 -12 1836.95 1100.22   1
  -3  14  11 1868.77 486.937   1
   3  14  10 1860.83 1103.07  -2
   3 -14 -11 1860.83 1103.07   1
   3 -14 -10 255.529 458.807   1
   3 -14   9 4121.78 1011.22  -2
   3  14 -10 4121.78 1011.22   1
   3 -14  -9 7121.13 650.207   1
   3 -14   8 9183.88 1186.53  -2
   3  14  -9 9183.88 1186.53   1
  -3  14   8 245.939 417.308   1
   3 -14   7 2437.15 829.426  -2
   3  14  -8 2437.15 829.426   1
  -3  14   7 2143.97 471.996   1
   3 -14   6 3178.01 845.534  -2
   3  14  -7 3178.01 845.534   1
  -3  14   6 55.6639 454.386   1
   3 -14   5 3001.34 846.580  -2
   3  14  -6 3001.34 846.580   1
  -3  14   5 3057.99 803.299   1
  -3 -14  -4 3917.68 608.129  -2
  -3  14   5 3917.68 608.129   1
  -3  14   4 88.4904 329.786   1
   3 -14   3 6159.30 939.809  -2
   3  14  -4 6159.30 939.809   1
  -3  14   3 9920.29 615.438   1
   3 -14   2 11498.6 1120.90  -2
   3  14  -3 11498.6 1120.90   1
  -3  14   2 421.614 178.527   1
  -3  14   1 5366.52 277.027   1
   3 -14   0 5317.23 914.045  -2
   3  14  -1 5317.23 914.045   1
  -3 -14   0 542.458 170.177   1
   3 -14  -1 3489.16 842.654  -2
   3  14   0 3489.16 842.654   1
  -3  14  -1 3531.16 231.497   1
  -3 -14  -2 1115.57 178.711   1
   3 -14  -3 8324.36 730.099  -2
   3  14   2 8324.36 730.099   1
  -3 -14  -3 6549.63 310.973   1
   3 -14  -4 8085.10 1054.40  -2
   3  14   3 8085.10 1054.40   1
  -3  14  -4 855.320 253.020   1
   3 -14  -5 2873.93 497.300  -2
   3  14   4 2873.93 497.300   1
  -3  14  -5 3627.82 428.263   1
  -3 -14   6 3804.25 547.381  -2
  -3  14  -5 3804.25 547.381   1
  -3  14  -6 257.492 290.499   1
  -3 -14   7 2068.21 940.169  -2
  -3  14  -6 2068.21 940.169   1
  -3 -14  -7 3034.47 358.164   1
  -3 -14  -8 849.725 311.006   1
  -3 -14  -9 4917.24 447.581   1
  -3  14 -10 345.094 347.720   1
  -3  14 -11 851.640 580.672   1
  -3 -14 -12 83.3418 961.162   1
   3 -15 -11 835.675 559.226   1
   3 -15  10 6117.65 1204.35  -2
   3  15 -11 6117.65 1204.35   1
   3 -15 -10 6685.69 801.701   1
   3 -15   9 6863.18 1214.42  -2
   3  15 -10 6863.18 1214.42   1
  -3  15   9 1261.34 473.306   1
   3 -15   8 4420.73 1089.20  -2
   3  15  -9 4420.73 1089.20   1
  -3  15   8 8099.00 696.404   1
   3 -15   7 7792.43 1136.13  -2
   3  15  -8 7792.43 1136.13   1
  -3  15   7 393.484 509.349   1
   3 -15   6 282.088 647.489  -2
   3  15  -7 282.088 647.489   1
  -3  15   6 310.780 484.986   1
   3 -15   5 2919.12 905.202  -2
   3  15  -6 2919.12 905.202   1
  -3  15   5 3081.45 844.965   1
   3 -15   4 4885.14 678.827  -2
   3  15  -5 4885.14 678.827   1
  -3  15   4 281.206 352.984   1
   3 -15   3 1271.19 765.076  -2
   3  15  -4 1271.19 765.076   1
   3  15  -3 519.670 278.766   1
   3 -15   2 3289.33 876.280  -2
   3  15  -3 3289.33 876.280   1
  -3 -15   2 5750.07 421.536   1
   3 -15   1 7933.59 1093.43  -2
   3  15  -2 7933.59 1093.43   1
  -3 -15   1 639.620 262.793   1
   3 -15   0 6829.79 1021.65  -2
   3  15  -1 6829.79 1021.65   1
  -3  15   0 7185.07 364.324   1
   3 -15  -1 5930.72 998.350  -2
   3  15   0 5930.72 998.350   1
  -3  15  -1 3227.93 298.295   1
   3 -15  -2 9877.55 1103.60  -2
   3  15   1 9877.55 1103.60   1
  -3 -15  -2 4392.41 286.217   1
   3 -15  -3 4586.67 919.483  -2
   3  15   2 4586.67 919.483   1
  -3 -15  -3 104.017 222.135   1
  -3 -15   4 74.9639 856.310  -2
  -3  15  -3 74.9639 856.310   1
  -3  15  -4 642.623 235.779   1
   3 -15  -5 4408.25 991.404  -2
   3  15   4 4408.25 991.404   1
  -3  15  -5 4872.35 483.475   1
  -3 -15   6 4117.71 741.606  -2
  -3  15  -5 4117.71 741.606   1
  -3 -15  -6 210.603 348.639   1
  -3 -15   7 1354.52 669.390  -2
  -3  15  -6 1354.52 669.390   1
  -3  15  -7 684.405 355.669   1
  -3 -15   8 6335.94 1170.86  -2
  -3  15  -7 6335.94 1170.86   1
  -3 -15  -8 6357.63 487.341   1
  -3 -15  -9 1386.95 388.027   1
  -3  15 -10 4791.86 746.519   1
  -3 -15 -11 3906.69 1145.05   1
   3 -16 -10 325.930 851.034   1
   3 -16   9 727.810 708.377  -2
   3  16 -10 727.810 708.377   1
  -3  16   9 960.140 599.678   1
   3 -16   8 1912.55 980.822  -2
   3  16  -9 1912.55 980.822   1
  -3  16   8-46.2148 811.666   1
   3  16   7 1902.41 602.033  -2
   3 -16  -8 1902.41 602.033   1
  -3  16   7 2759.46 614.680   1
   3  16   6 9032.92 928.944  -2
   3 -16  -7 9032.92 928.944   1
  -3  16   6 13274.5 1467.74   1
   3 -16   5 11545.9 936.656  -2
   3  16  -6 11545.9 936.656   1
  -3  16   5 380.821 495.132   1
   3 -16   4 3836.35 971.752  -2
   3  16  -5 3836.35 971.752   1
  -3 -16   4 642.627 309.105   1
   3 -16   3 351.596 767.379  -2
   3  16  -4 351.596 767.379   1
   3  16  -3 288.136 339.433   1
  -3 -16  -2 9011.95 830.403  -2
  -3  16   3 9011.95 830.403   1
   3  16  -2 11517.0 571.928   1
   3 -16   1 13538.7 1332.56  -2
   3  16  -2 13538.7 1332.56   1
  -3  16   1 3741.17 478.959   1
   3 -16   0 3689.87 969.557  -2
   3  16  -1 3689.87 969.557   1
  -3 -16   0 451.098 288.163   1
   3 -16  -1 2773.79 922.157  -2
   3  16   0 2773.79 922.157   1
  -3  16  -1 2110.45 333.909   1
   3 -16  -2 10862.0 1194.99  -2
   3  16   1 10862.0 1194.99   1
  -3  16  -2 9264.38 634.315   1
   3 -16  -3 8890.98 1160.18  -2
   3  16   2 8890.98 1160.18   1
  -3  16  -3 531.975 272.835   1
   3 -16  -4 79.8178 854.362  -2
   3  16   3 79.8178 854.362   1
  -3 -16  -4 3007.04 434.349   1
   3 -16  -5 2805.45 914.563  -2
   3  16   4 2805.45 914.563   1
  -3  16  -5 290.974 410.626   1
  -3 -16   5-325.750 936.269  -2
  -3  16  -5-325.750 936.269   1
  -3 -16  -6 6917.91 602.736   1
  -3  16   7 8781.09 1318.50  -2
  -3 -16  -6 8781.09 1318.50   1
  -3  16  -7 2284.16 465.322   1
  -3  16   8 2684.47 1168.15  -2
  -3 -16  -7 2684.47 1168.15   1
  -3  16  -8 904.359 487.960   1
  -3  16  -9 407.155 574.390   1
   3 -17  -9-78.5846 585.275   1
   3 -17  -8 352.596 595.950   1
   3 -17   7 1737.18 907.148  -2
   3  17  -8 1737.18 907.148   1
  -3  17   7 4271.92 728.405   1
   3 -17   6 7750.80 1218.09  -2
   3  17  -7 7750.80 1218.09   1
  -3  17   6 1003.54 521.316   1
   3 -17   5 5076.93 1075.21  -2
   3  17  -6 5076.93 1075.21   1
   3  17  -5 2430.62 473.228   1
   3 -17   4 2114.12 916.665  -2
   3  17  -5 2114.12 916.665   1
  -3 -17   4 331.200 371.835   1
   3 -17   3 819.385 892.063  -2
   3  17  -4 819.385 892.063   1
  -3 -17  -4 491.871 949.296  -2
  -3  17   4 491.871 949.296   1
  -3  17   3 2458.68 560.445   1
   3 -17   2 2932.17 943.596  -2
   3  17  -3 2932.17 943.596   1
  -3 -17  -3 3092.71 1055.36  -2
  -3  17   3 3092.71 1055.36   1
  -3 -17   2 757.409 451.641   1
   3 -17   1 3396.19 992.921  -2
   3  17  -2 3396.19 992.921   1
  -3 -17  -2 2317.99 999.788  -2
  -3  17   2 2317.99 999.788   1
  -3  17   1 923.746 398.413   1
   3 -17   0 863.930 855.229  -2
   3  17  -1 863.930 855.229   1
  -3  17   0-38.8959 331.851   1
   3 -17  -1 639.189 882.565  -2
   3  17   0 639.189 882.565   1
  -3 -17   0 833.680 988.452  -2
  -3  17   0 833.680 988.452   1
  -3 -17  -1 3606.70 568.835   1
   3 -17  -2 3306.24 974.777  -2
   3  17   1 3306.24 974.777   1
  -3 -17   1 5114.32 1123.84  -2
  -3  17  -1 5114.32 1123.84   1
  -3 -17  -2 1536.00 471.115   1
   3 -17  -3 4061.46 990.060  -2
   3  17   2 4061.46 990.060   1
  -3 -17   2 2425.35 1025.97  -2
  -3  17  -2 2425.35 1025.97   1
  -3 -17  -3 69.9624 489.113   1
   3 -17  -4 912.806 910.342  -2
   3  17   3 912.806 910.342   1
  -3 -17  -4 190.293 513.950   1
   3 -17  -5 1975.16 1016.85  -2
   3  17   4 1975.16 1016.85   1
  -3 -17  -5 3151.03 878.086   1
  -3 -17   5 5596.89 1189.20  -2
  -3  17  -5 5596.89 1189.20   1
  -3  17  -7 518.615 671.634   1
  -3  17  -8 593.594 627.330   1
   3 -18  -7 469.084 589.805   1
   3 -18   6 74.3413 920.543  -2
   3  18  -7 74.3413 920.543   1
   3 -18   5 470.718 966.805  -2
   3  18  -6 470.718 966.805   1
  -3 -18  -6 913.553 1088.14  -2
  -3  18   6 913.553 1088.14   1
   3 -18   4 2281.36 978.505  -2
   3  18  -5 2281.36 978.505   1
  -3 -18  -5 265.028 1042.07  -2
  -3  18   5 265.028 1042.07   1
  -3 -18   4 251.505 513.055   1
   3 -18   3 1718.68 953.587  -2
   3  18  -4 1718.68 953.587   1
  -3 -18  -4 894.667 1040.52  -2
  -3  18   4 894.667 1040.52   1
  -3 -18   3 1833.93 544.821   1
   3 -18   2 2819.70 1004.51  -2
   3  18  -3 2819.70 1004.51   1
  -3 -18  -3 3707.63 1114.27  -2
  -3  18   3 3707.63 1114.27   1
  -3 -18   2 516.938 386.712   1
   3 -18   1 2530.87 1006.79  -2
   3  18  -2 2530.87 1006.79   1
  -3 -18  -2 4701.85 1179.10  -2
  -3  18   2 4701.85 1179.10   1
  -3  18   1 2025.62 459.134   1
   3 -18   0 2088.16 989.440  -2
   3  18  -1 2088.16 989.440   1
  -3 -18   0 540.751 440.894   1
   3 -18  -1 3345.59 1015.37  -2
   3  18   0 3345.59 1015.37   1
  -3 -18   0 1953.90 1057.94  -2
  -3  18   0 1953.90 1057.94   1
  -3 -18  -1 2070.67 828.999   1
   3 -18  -2 4083.65 1147.85  -2
   3  18   1 4083.65 1147.85   1
  -3 -18   1 5338.12 1197.24  -2
  -3  18  -1 5338.12 1197.24   1
  -3 -18  -2 658.182 730.097   1
   3 -18  -3 2217.63 1013.89  -2
   3  18   2 2217.63 1013.89   1
  -3 -18   2 1557.05 987.584  -2
  -3  18  -2 1557.05 987.584   1
  -3  18  -3 1496.93 820.438   1
   3 -18  -4 3104.01 1019.28  -2
   3  18   3 3104.01 1019.28   1
   3 -19   3 5017.05 1124.23  -2
   3  19  -4 5017.05 1124.23   1
  -3 -19   3 225.366 501.592   1
   3 -19   2 1291.11 976.558  -2
   3  19  -3 1291.11 976.558   1
  -3  19   2 1979.09 602.159   1
   3 -19   1 2027.85 1049.38  -2
   3  19  -2 2027.85 1049.38   1
  -3 -19   1 621.292 508.863   1
   3 -19   0 3833.76 1169.88  -2
   3  19  -1 3833.76 1169.88   1
   3 -19  -1 3247.01 1161.68  -2
   3  19   0 3247.01 1161.68   1
   3 -19  -2 2459.48 1095.14  -2
   3  19   1 2459.48 1095.14   1
   3 -19  -3 3619.79 1123.91  -2
   3  19   2 3619.79 1123.91   1
   3 -19  -4 3929.52 1148.47  -2
   3  19   3 3929.52 1148.47   1
   4   0 -16 1110.31 764.291   1
   4   0 -14 4165.67 532.871   1
   4   0 -12 11068.4 665.369   1
   4   0 -10 224.707 484.101   1
   4   0  -8 381.565 216.362   1
  -4   0   6 63131.2 745.828   1
  -4   0   4 70152.1 1097.16   1
  -4   0   2 9242.64 288.231   1
   4   0   0 1309.23 126.353   1
  -4   0  -2 136649. 758.180   1
  -4   0  -4 12822.2 295.058   1
  -4   0  -6 6062.24 241.830   1
  -4   0  -8 16875.4 402.599   1
  -4   0 -10 17249.7 493.614   1
  -4   0 -12 214.897 259.516   1
  -4   0 -14 3994.94 505.329   1
  -4   0 -16 3101.39 636.641   1
   4   1  15 3473.73 543.318  -2
   4  -1 -16 3473.73 543.318   1
  -4   1  15 242.704 605.585   1
   4  -1  14 2329.89 415.296  -2
   4   1 -15 2329.89 415.296   1
  -4   1  14 3470.02 524.707   1
   4  -1  13 2557.67 385.328  -2
   4   1 -14 2557.67 385.328   1
  -4   1  13 8433.11 571.189   1
   4  -1  12 8708.30 530.217  -2
   4   1 -13 8708.30 530.217   1
  -4   1  12 20225.8 1364.67   1
   4   1  11 18226.0 532.263  -2
   4  -1 -12 18226.0 532.263   1
  -4   1  11 5247.90 802.033   1
   4   1  10 17389.6 484.931  -2
   4  -1 -11 17389.6 484.931   1
  -4   1  10 661.640 365.310   1
   4   1   9 15876.0 692.849  -2
   4  -1 -10 15876.0 692.849   1
   4   1  -9 239.694 94.9106   1
   4  -1   8 628.892 222.771  -2
   4   1  -9 628.892 222.771   1
   4   1  -8 5499.44 320.369   1
   4   1   7 7998.53 316.459  -2
   4  -1  -8 7998.53 316.459   1
  -4  -1   7 9839.96 907.525   1
  -4  -1  -6 14195.5 361.242  -2
  -4   1   7 14195.5 361.242   1
  -4   1   6 7355.89 227.889   1
  -4  -1  -5 8454.64 411.167  -2
  -4   1   6 8454.64 411.167   1
   4  -1  -5 31599.9 583.073   1
  -4   1  -4 33821.7 472.768  -2
  -4  -1   5 33821.7 472.768   1
  -4   1   4 8072.66 362.752   1
  -4   1  -3 29820.1 816.449  -2
  -4  -1   4 29820.1 816.449   1
  -4   1   3 319.548 124.108   1
  -4   1  -2 2564.14 296.253  -2
  -4  -1   3 2564.14 296.253   1
   4   1  -2 460.548 80.7918   1
   4  -1   1 34606.1 779.877  -2
   4   1  -2 34606.1 779.877   1
  -4  -1   1 509.031 88.1044   1
   4  -1   0 67.4604 73.1747   1
  -4   1   1 647.943 330.684  -2
  -4  -1   0 647.943 330.684   1
  -4  -1  -1 43921.3 320.356   1
  -4  -1   2 42485.7 1261.32  -2
  -4   1  -1 42485.7 1261.32   1
  -4  -1  -2 2933.12 103.533   1
  -4  -1  -3 28321.0 456.173   1
  -4  -1   4 32704.6 383.128  -2
  -4   1  -3 32704.6 383.128   1
  -4  -1  -4 1765.21 166.571   1
  -4   1   5 28787.5 378.735  -2
  -4  -1  -4 28787.5 378.735   1
   4   1   5 439.252 343.320   1
  -4   1   6 7326.65 191.604  -2
  -4  -1  -5 7326.65 191.604   1
   4   1  -7 14564.6 230.846  -2
   4  -1   6 14564.6 230.846   1
  -4   1  -7 4430.46 504.507   1
  -4  -1   8 8630.98 217.400  -2
  -4   1  -7 8630.98 217.400   1
  -4   1  -8 24.0119 234.564   1
  -4   1   9 383.737 127.375  -2
  -4  -1  -8 383.737 127.375   1
  -4  -1  -9 20285.8 671.460   1
   4  -1 -10 19317.0 348.087  -2
   4   1   9 19317.0 348.087   1
   4   1  10 16763.3 760.656   1
  -4  -1  11 18776.2 375.994  -2
  -4   1 -10 18776.2 375.994   1
  -4  -1  12 14739.9 347.621  -2
  -4   1 -11 14739.9 347.621   1
  -4   1  13 7088.91 341.306  -2
  -4  -1 -12 7088.91 341.306   1
  -4   1  14 2184.98 285.824  -2
  -4  -1 -13 2184.98 285.824   1
  -4   1  15 2597.14 359.668  -2
  -4  -1 -14 2597.14 359.668   1
  -4   1  16 3433.35 383.058  -2
  -4  -1 -15 3433.35 383.058   1
  -4   1 -16 2441.10 695.727   1
  -4   1  17 1638.21 740.396  -2
  -4  -1 -16 1638.21 740.396   1
  -4   2  16 3353.20 830.358   1
   4  -2  15 4730.11 572.202  -2
   4   2 -16 4730.11 572.202   1
  -4   2  15 869.820 609.973   1
   4   2  14 1280.14 401.596  -2
   4  -2 -15 1280.14 401.596   1
  -4   2  14 1099.79 407.353   1
   4  -2  13 1103.51 364.902  -2
   4   2 -14 1103.51 364.902   1
  -4   2  13 10655.0 1103.89   1
   4   2  12 9091.87 436.270  -2
   4  -2 -13 9091.87 436.270   1
  -4  -2 -11 6465.02 347.362  -2
  -4   2  12 6465.02 347.362   1
  -4   2  11 3969.90 775.356   1
   4   2  10 4083.05 350.297  -2
   4  -2 -11 4083.05 350.297   1
  -4   2  10 262.402 514.963   1
   4  -2   9 7773.49 477.004  -2
   4   2 -10 7773.49 477.004   1
   4   2   8 5859.78 418.515  -2
   4  -2  -9 5859.78 418.515   1
   4   2  -8 727.740 139.598   1
   4  -2   7 1345.81 217.527  -2
   4   2  -8 1345.81 217.527   1
   4   2  -7 1606.54 212.804   1
   4   2   6 4098.28 234.343  -2
   4  -2  -7 4098.28 234.343   1
   4   2  -6 3123.37 267.893   1
   4  -2   5 3341.79 220.725  -2
   4   2  -6 3341.79 220.725   1
   4   2  -5 4687.06 374.246   1
   4  -2   4 6414.11 231.159  -2
   4   2  -5 6414.11 231.159   1
  -4  -2   4 83.0702 287.675   1
   4  -2   3 668.578 143.938  -2
   4   2  -4 668.578 143.938   1
   4  -2  -3 31.6678 94.7912   1
  -4   2  -2 367.399 161.162  -2
  -4  -2   3 367.399 161.162   1
   4  -2  -2 5949.63 188.788   1
  -4   2  -1 5636.93 246.975  -2
  -4  -2   2 5636.93 246.975   1
  -4   2   1 41.0314 67.9150   1
  -4   2   0 16373.4 377.633  -2
  -4  -2   1 16373.4 377.633   1
   4   2   0 19220.3 237.519   1
  -4   2   1 19205.8 513.467  -2
  -4  -2   0 19205.8 513.467   1
  -4   2  -1 61.9535 72.6678   1
  -4   2   2 4665.82 241.462  -2
  -4  -2  -1 4665.82 241.462   1
   4   2   2 192.818 71.6280   1
  -4  -2   3 228.695 139.649  -2
  -4   2  -2 228.695 139.649   1
  -4  -2  -3 792.353 112.047   1
  -4  -2   4 837.456 142.097  -2
  -4   2  -3 837.456 142.097   1
  -4  -2  -4 1379.83 154.396   1
  -4   2   5 5470.99 178.876  -2
  -4  -2  -4 5470.99 178.876   1
  -4  -2  -5 197.186 319.468   1
  -4  -2   6 2911.37 144.181  -2
  -4   2  -5 2911.37 144.181   1
   4   2   6 3597.20 565.390   1
  -4   2   7 4669.17 157.376  -2
  -4  -2  -6 4669.17 157.376   1
   4  -2   7 586.659 382.550   1
  -4   2   8 1209.40 155.061  -2
  -4  -2  -7 1209.40 155.061   1
  -4   2  -8 7696.82 614.808   1
  -4   2   9 6683.62 188.159  -2
  -4  -2  -8 6683.62 188.159   1
  -4  -2  10 10001.4 228.950  -2
  -4   2  -9 10001.4 228.950   1
   4  -2  10 1550.97 332.628   1
  -4   2  11 4235.63 204.607  -2
  -4  -2 -10 4235.63 204.607   1
  -4  -2 -11 2441.77 492.993   1
  -4  -2  12 5917.74 269.164  -2
  -4   2 -11 5917.74 269.164   1
   4  -2 -13 8461.76 367.868  -2
   4   2  12 8461.76 367.868   1
   4   2 -14 1040.12 269.502  -2
   4  -2  13 1040.12 269.502   1
  -4   2  15 662.669 327.598  -2
  -4  -2 -14 662.669 327.598   1
   4  -2  15 4223.60 770.334   1
  -4   2  16 4782.73 522.197  -2
  -4  -2 -15 4782.73 522.197   1
  -4  -2 -16 1763.66 717.756   1
  -4   2  17 1614.05 876.045  -2
  -4  -2 -16 1614.05 876.045   1
  -4   2  18 4186.16 1166.33  -2
  -4  -2 -17 4186.16 1166.33   1
  -4   3  17 386.274 805.840   1
  -4   3  16 1510.77 759.440   1
   4   3  15 843.911 610.759  -2
   4  -3 -16 843.911 610.759   1
  -4   3  15-45.0953 678.288   1
   4   3  14 5773.08 495.352  -2
   4  -3 -15 5773.08 495.352   1
  -4   3  14 4183.44 858.343   1
   4   3  13 3321.39 419.415  -2
   4  -3 -14 3321.39 419.415   1
  -4   3  13 193.176 596.961   1
   4   3  12 447.010 294.274  -2
   4  -3 -13 447.010 294.274   1
  -4   3  12 1089.69 598.699   1
   4  -3  11 1194.63 285.405  -2
   4   3 -12 1194.63 285.405   1
  -4   3  11 37.2255 554.570   1
   4   3  10 191.232 281.164  -2
   4  -3 -11 191.232 281.164   1
  -4   3  10 2724.87 674.545   1
   4  -3   9 2380.04 298.317  -2
   4   3 -10 2380.04 298.317   1
  -4   3   9 212.916 532.143   1
   4  -3   8 6683.45 395.005  -2
   4   3  -9 6683.45 395.005   1
  -4  -3   8 8771.48 516.826   1
   4  -3   7 9320.06 459.074  -2
   4   3  -8 9320.06 459.074   1
   4   3  -7 110.537 138.873   1
   4  -3   6 4191.14 257.348  -2
   4   3  -7 4191.14 257.348   1
  -4   3   6 843.375 189.017   1
  -4  -3  -5 1159.76 192.565  -2
  -4   3   6 1159.76 192.565   1
   4   3  -5 566.796 104.600   1
   4  -3   4 700.609 137.076  -2
   4   3  -5 700.609 137.076   1
  -4   3   4 170.514 163.329   1
  -4   3  -3 1384.70 150.950  -2
  -4  -3   4 1384.70 150.950   1
  -4   3   3 924.742 129.865   1
   4  -3   2 999.843 136.727  -2
   4   3  -3 999.843 136.727   1
  -4   3   2 652.934 115.689   1
   4  -3   1 979.038 158.629  -2
   4   3  -2 979.038 158.629   1
  -4   3   1 180.207 87.2154   1
   4  -3   0 231.551 140.125  -2
   4   3  -1 231.551 140.125   1
  -4  -3   0 16.9902 67.7475   1
   4  -3  -1 334.332 146.273  -2
   4   3   0 334.332 146.273   1
  -4   3  -1 227.402 76.7585   1
  -4   3   2 794.638 107.632  -2
  -4  -3  -1 794.638 107.632   1
  -4   3  -2 61.7095 63.8667   1
   4  -3  -3 806.382 110.378  -2
   4   3   2 806.382 110.378   1
  -4  -3  -3 1505.47 102.097   1
  -4  -3   4 1766.75 175.617  -2
  -4   3  -3 1766.75 175.617   1
   4  -3   4 50.9027 60.1122   1
  -4   3   5 683.035 150.061  -2
  -4  -3  -4 683.035 150.061   1
  -4  -3  -5 121.603 93.5397   1
   4  -3  -6 922.122 137.352  -2
   4   3   5 922.122 137.352   1
  -4  -3  -6 5600.97 212.280   1
  -4   3   7 5740.21 198.343  -2
  -4  -3  -6 5740.21 198.343   1
  -4  -3  -7 201.481 108.039   1
  -4  -3   8 7616.71 257.164  -2
  -4   3  -7 7616.71 257.164   1
   4  -3   8 9312.79 809.969   1
   4  -3  -9 8322.14 232.863  -2
   4   3   8 8322.14 232.863   1
   4  -3   9 249.567 316.660   1
  -4   3  10 2320.69 187.446  -2
  -4  -3  -9 2320.69 187.446   1
   4  -3  10 270.158 218.892   1
   4  -3 -11 355.671 249.864  -2
   4   3  10 355.671 249.864   1
   4  -3  11 101.615 468.772   1
  -4   3  12 869.503 256.206  -2
  -4  -3 -11 869.503 256.206   1
   4  -3 -13 390.999 253.429  -2
   4   3  12 390.999 253.429   1
  -4   3  14 2774.67 298.893  -2
  -4  -3 -13 2774.67 298.893   1
   4   3 -15 6292.13 402.164  -2
   4  -3  14 6292.13 402.164   1
  -4   3  16 906.226 454.158  -2
  -4  -3 -15 906.226 454.158   1
  -4   3  17 5376.66 863.031  -2
  -4  -3 -16 5376.66 863.031   1
  -4  -3 -17-168.721 702.588   1
  -4   4  17 338.517 548.261   1
  -4   4  16 236.284 533.255   1
   4  -4  15 2618.97 625.434  -2
   4   4 -16 2618.97 625.434   1
  -4   4  15 2308.19 785.518   1
   4   4  14 2689.02 478.763  -2
   4  -4 -15 2689.02 478.763   1
  -4   4  14 3018.31 783.332   1
   4  -4  13 3504.61 433.853  -2
   4   4 -14 3504.61 433.853   1
  -4  -4  13 4938.59 668.371   1
  -4  -4 -12 4244.73 390.890  -2
  -4   4  13 4244.73 390.890   1
  -4   4  12 4717.66 859.836   1
   4   4  11 3330.47 322.948  -2
   4  -4 -12 3330.47 322.948   1
  -4   4  11 573.357 560.406   1
   4   4  10 4460.06 372.642  -2
   4  -4 -11 4460.06 372.642   1
  -4   4  10 1028.93 595.530   1
  -4  -4  -9 3984.22 338.474  -2
  -4   4  10 3984.22 338.474   1
  -4   4   9 828.456 584.806   1
  -4  -4  -8 5645.52 374.351  -2
  -4   4   9 5645.52 374.351   1
  -4   4   8 6519.58 860.368   1
  -4  -4  -7 6630.14 377.016  -2
  -4   4   8 6630.14 377.016   1
   4  -4  -7 1655.67 594.916   1
  -4  -4  -6 5779.77 307.454  -2
  -4   4   7 5779.77 307.454   1
   4  -4  -6 3334.30 295.892   1
  -4   4  -5 3439.95 240.220  -2
  -4  -4   6 3439.95 240.220   1
  -4   4   5 160.391 274.113   1
   4   4   4 595.419 144.730  -2
   4  -4  -5 595.419 144.730   1
   4   4  -4 203.377 92.6516   1
   4  -4   3 371.123 146.335  -2
   4   4  -4 371.123 146.335   1
   4   4  -3 591.375 106.250   1
   4  -4   2 1385.40 151.749  -2
   4   4  -3 1385.40 151.749   1
  -4   4   2 10676.2 219.496   1
   4  -4   1 11684.0 357.644  -2
   4   4  -2 11684.0 357.644   1
   4   4  -1 478.748 87.5331   1
   4  -4   0 17401.1 372.864  -2
   4   4  -1 17401.1 372.864   1
   4  -4   0 19492.6 254.469   1
   4  -4  -1 19582.6 395.782  -2
   4   4   0 19582.6 395.782   1
   4   4   1 726.144 76.7369   1
   4  -4  -2 9638.40 213.372  -2
   4   4   1 9638.40 213.372   1
   4   4   2 1075.16 82.2717   1
  -4   4   3 1821.78 116.291  -2
  -4  -4  -2 1821.78 116.291   1
   4   4   3 62.6445 140.721   1
  -4   4   4 81.7362 159.766  -2
  -4  -4  -3 81.7362 159.766   1
   4  -4   4 222.636 114.108   1
  -4  -4   5 464.737 153.533  -2
  -4   4  -4 464.737 153.533   1
  -4   4   6 3202.21 210.626  -2
  -4  -4  -5 3202.21 210.626   1
  -4   4   7 6524.98 207.490  -2
  -4  -4  -6 6524.98 207.490   1
  -4  -4  -7 1630.15 109.343   1
   4  -4  -8 5657.77 210.942  -2
   4   4   7 5657.77 210.942   1
  -4  -4  -8 5431.37 273.013   1
   4  -4  -9 7278.10 269.200  -2
   4   4   8 7278.10 269.200   1
  -4  -4  -9 2686.94 666.572   1
   4   4 -10 4073.57 189.018  -2
   4  -4   9 4073.57 189.018   1
   4  -4  10 4789.81 493.663   1
  -4  -4  11 5299.68 343.715  -2
  -4   4 -10 5299.68 343.715   1
   4  -4  11 332.160 505.426   1
  -4   4  12 2646.44 290.759  -2
  -4  -4 -11 2646.44 290.759   1
  -4   4  13 3462.10 301.256  -2
  -4  -4 -12 3462.10 301.256   1
   4  -4  13 317.926 480.005   1
  -4   4  14 2774.34 355.354  -2
  -4  -4 -13 2774.34 355.354   1
  -4   4  15 1986.45 325.938  -2
  -4  -4 -14 1986.45 325.938   1
  -4   4  16 2569.37 482.108  -2
  -4  -4 -15 2569.37 482.108   1
  -4  -4 -16 201.931 646.673   1
  -4  -4  17 2086.23 1343.79  -2
  -4   4 -16 2086.23 1343.79   1
  -4   5  17 997.553 546.770   1
  -4   5  16 2610.50 639.016   1
   4   5  15 2754.54 792.051  -2
   4  -5 -16 2754.54 792.051   1
  -4   5  15 2028.92 543.609   1
   4   5  14 4226.54 524.669  -2
   4  -5 -15 4226.54 524.669   1
  -4   5  14 4113.71 799.913   1
   4   5  13 3461.52 457.341  -2
   4  -5 -14 3461.52 457.341   1
  -4   5  13 15095.8 1377.78   1
   4  -5  12 10363.3 587.129  -2
   4   5 -13 10363.3 587.129   1
  -4   5  12 9074.34 1117.31   1
   4   5  11 11955.4 537.507  -2
   4  -5 -12 11955.4 537.507   1
  -4  -5 -10 11787.6 466.089  -2
  -4   5  11 11787.6 466.089   1
  -4   5  10 3668.24 775.943   1
  -4  -5  -9 8474.40 426.027  -2
  -4   5  10 8474.40 426.027   1
  -4   5   9 151.980 373.626   1
   4   5   8 730.391 270.838  -2
   4  -5  -9 730.391 270.838   1
  -4   5   8 1617.22 453.139   1
  -4  -5  -7 4830.15 384.090  -2
  -4   5   8 4830.15 384.090   1
  -4   5   7 22976.6 817.510   1
   4  -5   6 28299.7 760.701  -2
   4   5  -7 28299.7 760.701   1
   4  -5  -6 5142.23 547.556   1
   4  -5   5 8231.09 325.378  -2
   4   5  -6 8231.09 325.378   1
  -4   5   5 17423.0 574.503   1
  -4   5  -4 17584.6 285.409  -2
  -4  -5   5 17584.6 285.409   1
  -4   5   4 600.802 224.528   1
   4  -5   3 10214.4 220.126  -2
   4   5  -4 10214.4 220.126   1
  -4   5   3 1267.61 151.087   1
   4  -5   2 4864.49 159.023  -2
   4   5  -3 4864.49 159.023   1
   4  -5  -2 161.414 86.1852   1
   4  -5   1 20501.9 305.744  -2
   4   5  -2 20501.9 305.744   1
   4   5  -1 9212.71 154.332   1
   4  -5   0 9987.03 280.157  -2
   4   5  -1 9987.03 280.157   1
   4   5   0 270.031 66.3734   1
   4   5  -1 8250.23 271.000  -2
   4  -5   0 8250.23 271.000   1
   4   5   1 25111.4 260.641   1
  -4   5   2 24058.8 399.867  -2
  -4  -5  -1 24058.8 399.867   1
  -4   5  -2 4638.42 237.617   1
   4  -5  -3 5397.83 258.665  -2
   4   5   2 5397.83 258.665   1
   4   5   3 11982.9 285.482   1
  -4   5   4 11680.1 312.982  -2
  -4  -5  -3 11680.1 312.982   1
  -4   5  -4 1720.92 138.969   1
  -4  -5   5 15875.4 359.261  -2
  -4   5  -4 15875.4 359.261   1
   4  -5   5 4445.54 445.227   1
  -4   5   6 8475.37 282.111  -2
  -4  -5  -5 8475.37 282.111   1
   4  -5  -7 24578.1 471.910  -2
   4   5   6 24578.1 471.910   1
  -4   5   8 5089.48 258.981  -2
  -4  -5  -7 5089.48 258.981   1
   4  -5   8-44.5118 363.884   1
  -4   5   9 250.311 140.140  -2
  -4  -5  -8 250.311 140.140   1
   4  -5   9 6623.69 259.590   1
   4  -5 -10 9229.31 356.764  -2
   4   5   9 9229.31 356.764   1
   4   5 -11 13478.5 393.310  -2
   4  -5  10 13478.5 393.310   1
  -4  -5 -11 7216.16 1070.28   1
  -4   5  12 11488.5 407.025  -2
  -4  -5 -11 11488.5 407.025   1
  -4   5  13 9020.30 403.389  -2
  -4  -5 -12 9020.30 403.389   1
   4  -5  13 405.321 502.810   1
  -4   5  14 2944.05 366.762  -2
  -4  -5 -13 2944.05 366.762   1
   4  -5  14 2833.68 642.348   1
  -4   5  15 3325.02 395.153  -2
  -4  -5 -14 3325.02 395.153   1
  -4  -5 -15 228.758 403.405   1
   4   5 -16 1115.67 732.902  -2
   4  -5  15 1115.67 732.902   1
   4  -5  16 820.377 714.337   1
  -4  -5  17 2245.43 1384.80  -2
  -4   5 -16 2245.43 1384.80   1
  -4   6  17 1098.21 579.938   1
  -4   6  16 993.355 575.463   1
   4   6  15 585.168 733.623  -2
   4  -6 -16 585.168 733.623   1
  -4   6  15 1003.84 520.112   1
   4   6  14 1572.41 493.671  -2
   4  -6 -15 1572.41 493.671   1
  -4   6  14 6915.06 739.185   1
   4   6  13 7597.18 583.115  -2
   4  -6 -14 7597.18 583.115   1
  -4   6  13 1283.76 469.741   1
   4   6  12 1748.17 430.425  -2
   4  -6 -13 1748.17 430.425   1
  -4   6  12 6625.38 660.959   1
  -4  -6 -11 6883.91 516.158  -2
  -4   6  12 6883.91 516.158   1
  -4   6  11 687.720 386.235   1
  -4  -6 -10 10396.9 546.616  -2
  -4   6  11 10396.9 546.616   1
  -4   6  10 851.743 644.620   1
  -4  -6  -9 691.027 337.149  -2
  -4   6  10 691.027 337.149   1
   4  -6  -9 4107.38 792.581   1
  -4  -6  -8 9551.63 394.835  -2
  -4   6   9 9551.63 394.835   1
  -4   6   8 481.821 518.750   1
   4   6   7 8275.09 362.626  -2
   4  -6  -8 8275.09 362.626   1
  -4   6   7 1731.81 648.629   1
   4   6   6 2580.15 258.938  -2
   4  -6  -7 2580.15 258.938   1
  -4   6   6 55854.3 2169.52   1
  -4  -6  -5 44136.7 575.620  -2
  -4   6   6 44136.7 575.620   1
   4  -6  -5 748.586 271.478   1
   4  -6   4 9723.39 277.709  -2
   4   6  -5 9723.39 277.709   1
  -4   6   4 24335.9 628.946   1
  -4   6  -3 28331.6 369.645  -2
  -4  -6   4 28331.6 369.645   1
  -4   6   3 7064.90 231.678   1
  -4   6  -2 62586.9 541.177  -2
  -4  -6   3 62586.9 541.177   1
  -4   6   2 7265.34 333.741   1
   4  -6   1 11209.8 255.362  -2
   4   6  -2 11209.8 255.362   1
  -4   6   1 786.619 130.189   1
   4  -6   0 2864.14 199.508  -2
   4   6  -1 2864.14 199.508   1
  -4  -6   0 2457.67 141.372   1
  -4   6   1 2970.96 222.709  -2
  -4  -6   0 2970.96 222.709   1
   4   6   1 5368.48 214.600   1
  -4   6   2 11038.0 323.754  -2
  -4  -6  -1 11038.0 323.754   1
  -4   6  -2 70373.2 684.136   1
  -4  -6   3 74827.8 812.125  -2
  -4   6  -2 74827.8 812.125   1
  -4   6  -3 5387.55 255.279   1
  -4  -6   4 26192.9 400.934  -2
  -4   6  -3 26192.9 400.934   1
   4  -6   4 11632.6 280.411   1
  -4  -6   5 12438.1 334.666  -2
  -4   6  -4 12438.1 334.666   1
  -4   6  -5 363.412 185.557   1
  -4  -6   6 38034.1 561.154  -2
  -4   6  -5 38034.1 561.154   1
  -4   6  -6 1378.25 350.741   1
   4  -6  -7 2610.73 246.222  -2
   4   6   6 2610.73 246.222   1
  -4  -6  -7 9375.19 976.688   1
  -4  -6   8 8822.70 269.304  -2
  -4   6  -7 8822.70 269.304   1
   4  -6   8 5427.78 645.332   1
   4  -6  -9 10351.4 374.762  -2
   4   6   8 10351.4 374.762   1
   4  -6   9 174.360 407.376   1
  -4   6  10 861.800 233.992  -2
  -4  -6  -9 861.800 233.992   1
   4  -6  10 9446.54 907.601   1
  -4   6  11 11653.4 472.863  -2
  -4  -6 -10 11653.4 472.863   1
   4  -6  11 2095.52 417.446   1
  -4   6  12 6272.92 415.375  -2
  -4  -6 -11 6272.92 415.375   1
  -4  -6 -12 1532.78 775.598   1
  -4  -6  13 1791.96 295.688  -2
  -4   6 -12 1791.96 295.688   1
  -4   6  14 6528.51 385.891  -2
  -4  -6 -13 6528.51 385.891   1
  -4   6  15 2369.18 439.012  -2
  -4  -6 -14 2369.18 439.012   1
  -4   6 -15 1357.60 814.475   1
   4   6 -16 1106.66 573.082  -2
   4  -6  15 1106.66 573.082   1
   4  -6  16 795.676 830.119   1
  -4   7  16 117.501 522.433   1
  -4   7  15 413.583 526.755   1
   4   7  14 104.493 552.711  -2
   4  -7 -15 104.493 552.711   1
  -4   7  14 1931.52 522.036   1
   4   7  13 1606.02 469.653  -2
   4  -7 -14 1606.02 469.653   1
  -4   7  13 2425.23 666.670   1
   4   7  12 3160.99 437.276  -2
   4  -7 -13 3160.99 437.276   1
  -4   7  12 10825.8 1042.98   1
   4  -7  11 9185.93 529.532  -2
   4   7 -12 9185.93 529.532   1
  -4   7  11 6610.40 635.048   1
  -4  -7 -10 8947.87 548.812  -2
  -4   7  11 8947.87 548.812   1
  -4   7  10 410.418 345.763   1
   4  -7   9 16965.8 646.875  -2
   4   7 -10 16965.8 646.875   1
   4  -7  -9 931.663 336.343   1
  -4  -7  -8 3606.44 347.681  -2
  -4   7   9 3606.44 347.681   1
  -4   7   8 3893.75 524.584   1
   4   7   7 5845.94 345.958  -2
   4  -7  -8 5845.94 345.958   1
  -4   7   7 1500.62 315.929   1
  -4  -7  -6 1626.88 214.278  -2
  -4   7   7 1626.88 214.278   1
  -4   7   6 629.964 226.412   1
   4   7   5 3402.09 269.856  -2
   4  -7  -6 3402.09 269.856   1
  -4   7   5 40870.1 686.125   1
  -4   7  -4 37482.3 533.333  -2
  -4  -7   5 37482.3 533.333   1
  -4   7   4 15337.4 458.727   1
   4  -7   3 34998.0 416.769  -2
   4   7  -4 34998.0 416.769   1
   4  -7  -3 2337.71 350.185   1
   4  -7   2 3316.73 166.296  -2
   4   7  -3 3316.73 166.296   1
   4   7  -2 519.502 215.612   1
   4  -7   1 21792.7 314.182  -2
   4   7  -2 21792.7 314.182   1
  -4   7   1 4219.45 290.177   1
   4   7   0 11363.1 293.227  -2
   4  -7  -1 11363.1 293.227   1
  -4   7   0 7895.04 216.669   1
   4  -7  -1 12290.8 502.345  -2
   4   7   0 12290.8 502.345   1
   4   7   1 25103.8 449.229   1
  -4  -7   2 27246.5 497.447  -2
  -4   7  -1 27246.5 497.447   1
  -4   7  -2 1662.66 117.291   1
  -4   7   3 3031.75 236.446  -2
  -4  -7  -2 3031.75 236.446   1
   4   7   3 26016.8 440.579   1
  -4   7   4 38247.8 506.074  -2
  -4  -7  -3 38247.8 506.074   1
  -4   7  -4 1769.47 133.029   1
  -4   7   5 33613.2 531.990  -2
  -4  -7  -4 33613.2 531.990   1
   4  -7   5 4073.63 417.752   1
  -4   7   6 4018.48 218.085  -2
  -4  -7  -5 4018.48 218.085   1
  -4  -7   7 1695.17 192.927  -2
  -4   7  -6 1695.17 192.927   1
   4  -7   7 829.057 341.408   1
  -4   7   8 4390.34 262.568  -2
  -4  -7  -7 4390.34 262.568   1
   4  -7   8 2720.51 498.766   1
  -4   7   9 2940.83 271.440  -2
  -4  -7  -8 2940.83 271.440   1
   4  -7   9 17317.9 1107.86   1
  -4  -7  10 18408.9 498.435  -2
  -4   7  -9 18408.9 498.435   1
  -4  -7  11 7400.90 329.740  -2
  -4   7 -10 7400.90 329.740   1
  -4   7  12 7217.90 374.149  -2
  -4  -7 -11 7217.90 374.149   1
  -4  -7 -12 291.251 739.633   1
   4   7 -13 2329.01 344.886  -2
   4  -7  12 2329.01 344.886   1
   4   7 -14 1170.41 332.913  -2
   4  -7  13 1170.41 332.913   1
  -4  -7 -14-156.134 802.729   1
  -4   7  15 344.473 476.430  -2
  -4  -7 -14 344.473 476.430   1
   4   7 -16 3138.61 702.005  -2
   4  -7  15 3138.61 702.005   1
  -4  -8 -15 2023.98 942.272  -2
  -4   8  16 2023.98 942.272   1
  -4   8  15 513.305 484.848   1
   4   8  14 412.584 555.400  -2
   4  -8 -15 412.584 555.400   1
  -4   8  14 235.096 485.770   1
   4   8  13 1057.67 551.772  -2
   4  -8 -14 1057.67 551.772   1
  -4   8  13 9875.14 1072.63   1
   4   8  12 12486.3 700.058  -2
   4  -8 -13 12486.3 700.058   1
  -4   8  12 5054.05 613.132   1
  -4  -8 -11 6741.87 625.429  -2
  -4   8  12 6741.87 625.429   1
  -4   8  11 9458.31 914.136   1
  -4  -8 -10 8004.73 503.541  -2
  -4   8  11 8004.73 503.541   1
  -4   8  10 1316.88 482.553   1
  -4  -8  -9 6355.88 447.081  -2
  -4   8  10 6355.88 447.081   1
  -4   8   9 1907.15 342.471   1
  -4  -8  -8 8597.26 475.648  -2
  -4   8   9 8597.26 475.648   1
  -4   8   8 602.351 348.154   1
  -4  -8  -7 768.448 220.854  -2
  -4   8   8 768.448 220.854   1
  -4   8   7 344.723 253.100   1
   4   8   6 369.100 198.268  -2
   4  -8  -7 369.100 198.268   1
  -4   8   6 258.453 175.358   1
  -4   8  -5 524.820 183.244  -2
  -4  -8   6 524.820 183.244   1
  -4   8   5 10458.6 308.883   1
   4  -8   4 12734.0 374.091  -2
   4   8  -5 12734.0 374.091   1
  -4   8   4 83.1874 43.3865   1
  -4  -8  -3 648.784 168.975  -2
  -4   8   4 648.784 168.975   1
  -4   8   3 182.137 282.935   1
  -4   8  -2 1759.78 185.879  -2
  -4  -8   3 1759.78 185.879   1
   4  -8   1 198.877 144.713  -2
   4   8  -2 198.877 144.713   1
  -4  -8   1 1025.82 281.392   1
   4  -8   0 4617.88 223.609  -2
   4   8  -1 4617.88 223.609   1
   4   8   0 4038.95 228.153   1
  -4   8   1 5123.87 249.629  -2
  -4  -8   0 5123.87 249.629   1
   4   8   1 17.2369 105.674   1
  -4   8   2 83.9323 186.885  -2
  -4  -8  -1 83.9323 186.885   1
  -4  -8   3 2222.56 190.469  -2
  -4   8  -2 2222.56 190.469   1
  -4   8  -3 541.699 134.809   1
  -4   8   4 662.987 206.067  -2
  -4  -8  -3 662.987 206.067   1
  -4   8  -4 3315.07 224.251   1
  -4  -8   5 12934.1 381.515  -2
  -4   8  -4 12934.1 381.515   1
  -4   8  -5 197.483 163.031   1
  -4   8   6 289.361 204.947  -2
  -4  -8  -5 289.361 204.947   1
  -4   8  -6-10.9776 276.229   1
  -4   8   7 292.688 206.029  -2
  -4  -8  -6 292.688 206.029   1
   4  -8   7-56.2146 268.393   1
  -4   8   8 534.641 224.400  -2
  -4  -8  -7 534.641 224.400   1
   4  -8   8 7460.68 710.724   1
  -4   8   9 9432.57 347.060  -2
  -4  -8  -8 9432.57 347.060   1
   4  -8   9 6655.14 742.391   1
  -4   8  10 7476.64 356.717  -2
  -4  -8  -9 7476.64 356.717   1
  -4   8  11 7044.31 339.433  -2
  -4  -8 -10 7044.31 339.433   1
  -4   8 -11 1977.28 662.798   1
  -4   8  12 6740.64 466.420  -2
  -4  -8 -11 6740.64 466.420   1
  -4   8  13 10457.0 503.536  -2
  -4  -8 -12 10457.0 503.536   1
   4  -8  13 1236.50 558.070   1
  -4   8  14 934.731 414.014  -2
  -4  -8 -13 934.731 414.014   1
  -4  -8 -14 200.231 485.862   1
   4   8 -15-45.3746 622.908  -2
   4  -8  14-45.3746 622.908   1
   4   8 -16 2662.47 710.672  -2
   4  -8  15 2662.47 710.672   1
  -4   9  15 2187.14 993.642   1
   4   9  14 4278.61 688.387  -2
   4  -9 -15 4278.61 688.387   1
  -4   9  14 1127.50 881.668   1
   4   9  13 1401.24 475.149  -2
   4  -9 -14 1401.24 475.149   1
  -4  -9 -12 380.876 401.545  -2
  -4   9  13 380.876 401.545   1
  -4  -9 -11 3041.77 407.234  -2
  -4   9  12 3041.77 407.234   1
  -4   9  11 373.040 448.461   1
  -4  -9 -10 1183.85 435.125  -2
  -4   9  11 1183.85 435.125   1
   4  -9 -10 348.159 356.533   1
  -4  -9  -9 2503.94 492.709  -2
  -4   9  10 2503.94 492.709   1
  -4   9   9 2118.30 445.980   1
   4   9   8 4996.08 375.415  -2
   4  -9  -9 4996.08 375.415   1
  -4   9   8 2695.42 448.444   1
   4   9   7 1938.20 308.848  -2
   4  -9  -8 1938.20 308.848   1
  -4   9   7 400.800 279.790   1
  -4  -9  -6 1817.86 255.285  -2
  -4   9   7 1817.86 255.285   1
   4  -9  -6 2335.64 209.921   1
  -4   9  -5 2852.32 231.016  -2
  -4  -9   6 2852.32 231.016   1
   4  -9  -5 1690.11 136.491   1
  -4  -9  -4 1960.47 243.099  -2
  -4   9   5 1960.47 243.099   1
  -4   9   4 39.0227 319.427   1
  -4  -9  -3 7347.25 328.794  -2
  -4   9   4 7347.25 328.794   1
  -4   9   3 3132.51 722.134   1
   4  -9   2 3010.81 248.215  -2
   4   9  -3 3010.81 248.215   1
  -4   9   2 352.565 532.039   1
   4  -9   1 1344.50 185.864  -2
   4   9  -2 1344.50 185.864   1
  -4  -9   1 247.986 247.091   1
  -4  -9   0 880.443 187.738  -2
  -4   9   1 880.443 187.738   1
   4   9   0 522.367 133.325   1
   4  -9  -1 791.028 216.664  -2
   4   9   0 791.028 216.664   1
  -4  -9  -1 978.882 124.699   1
  -4   9   2 1545.20 180.025  -2
  -4  -9  -1 1545.20 180.025   1
  -4  -9   3 2789.65 205.463  -2
  -4   9  -2 2789.65 205.463   1
  -4   9  -3 8947.41 272.944   1
  -4   9   4 9348.16 342.585  -2
  -4  -9  -3 9348.16 342.585   1
  -4   9  -4 105.490 106.508   1
  -4   9   5 1728.16 227.586  -2
  -4  -9  -4 1728.16 227.586   1
  -4   9  -5 466.161 166.574   1
  -4   9   6 2566.19 200.966  -2
  -4  -9  -5 2566.19 200.966   1
  -4   9  -6 2093.70 356.937   1
  -4   9   7 2511.08 217.071  -2
  -4  -9  -6 2511.08 217.071   1
   4  -9   7 150.365 325.116   1
  -4   9   8 1875.64 214.643  -2
  -4  -9  -7 1875.64 214.643   1
   4  -9   8 3090.00 513.367   1
  -4   9   9 5115.56 306.814  -2
  -4  -9  -8 5115.56 306.814   1
   4  -9   9 1197.58 443.275   1
  -4   9  10 2065.68 301.988  -2
  -4  -9  -9 2065.68 301.988   1
   4  -9  10 510.694 436.336   1
  -4   9  11 1250.66 419.316  -2
  -4  -9 -10 1250.66 419.316   1
  -4   9 -11 1180.98 675.755   1
  -4   9  12 2491.92 430.803  -2
  -4  -9 -11 2491.92 430.803   1
  -4   9  13 313.250 407.118  -2
  -4  -9 -12 313.250 407.118   1
  -4   9 -13 352.086 726.618   1
  -4   9  14 1359.27 496.012  -2
  -4  -9 -13 1359.27 496.012   1
   4   9 -15 2859.46 673.015  -2
   4  -9  14 2859.46 673.015   1
   4  10  14 1892.05 1034.54  -2
   4 -10 -15 1892.05 1034.54   1
  -4  10  14 947.677 890.187   1
   4  10  13 2311.21 625.371  -2
   4 -10 -14 2311.21 625.371   1
  -4  10  13 573.761 861.114   1
   4  10  12 1593.65 584.889  -2
   4 -10 -13 1593.65 584.889   1
  -4 -10 -11 1340.10 480.950  -2
  -4  10  12 1340.10 480.950   1
  -4  10  11 98.5044 438.632   1
  -4 -10 -10 4832.24 557.273  -2
  -4  10  11 4832.24 557.273   1
  -4  10  10 2277.15 508.059   1
  -4 -10  -9 2912.35 411.919  -2
  -4  10  10 2912.35 411.919   1
  -4  10   9 2448.35 448.664   1
   4  10   8 6696.40 482.904  -2
   4 -10  -9 6696.40 482.904   1
  -4  10   8 3626.03 462.741   1
  -4 -10  -7 5245.86 416.492  -2
  -4  10   8 5245.86 416.492   1
  -4  10   7 1153.37 300.970   1
  -4 -10  -6 1758.94 332.691  -2
  -4  10   7 1758.94 332.691   1
  -4  10   6 1712.71 259.961   1
  -4 -10  -5 1666.06 279.769  -2
  -4  10   6 1666.06 279.769   1
   4 -10  -5 152.913 64.7631   1
  -4 -10  -4 1266.65 336.731  -2
  -4  10   5 1266.65 336.731   1
   4 -10   3 3597.98 374.542  -2
   4  10  -4 3597.98 374.542   1
  -4  10   3 628.262 381.447   1
  -4  10  -2 4013.92 259.924  -2
  -4 -10   3 4013.92 259.924   1
  -4  10   2 8378.66 605.802   1
  -4  10  -1 9387.61 337.418  -2
  -4 -10   2 9387.61 337.418   1
  -4  10   1 400.726 161.253   1
  -4  10   0 8036.96 532.504  -2
  -4 -10   1 8036.96 532.504   1
  -4  10   0 7518.02 333.174   1
  -4  10   1 9061.49 364.867  -2
  -4 -10   0 9061.49 364.867   1
  -4 -10  -1 1262.56 144.358   1
  -4  10   2 8400.92 316.309  -2
  -4 -10  -1 8400.92 316.309   1
   4  10   2 3329.72 199.316   1
  -4  10   3 4180.04 216.019  -2
  -4 -10  -2 4180.04 216.019   1
   4 -10  -4 2808.25 234.783  -2
   4  10   3 2808.25 234.783   1
   4 -10   4 1064.07 100.195   1
  -4  10   5 1168.08 214.190  -2
  -4 -10  -4 1168.08 214.190   1
   4 -10   5 60.5483 203.137   1
  -4  10   6 1425.35 165.867  -2
  -4 -10  -5 1425.35 165.867   1
   4 -10   6 1491.03 316.608   1
  -4 -10   7 2316.79 179.947  -2
  -4  10  -6 2316.79 179.947   1
  -4  10   8 4887.56 284.085  -2
  -4 -10  -7 4887.56 284.085   1
   4 -10   8 5664.41 633.306   1
  -4  10   9 7049.74 455.167  -2
  -4 -10  -8 7049.74 455.167   1
   4 -10   9 510.675 387.616   1
  -4 -10  10 2183.44 381.574  -2
  -4  10  -9 2183.44 381.574   1
   4 -10  10 4853.43 725.979   1
  -4  10  11 5630.78 483.514  -2
  -4 -10 -10 5630.78 483.514   1
   4 -10  11 351.709 461.722   1
  -4  10  12 1707.67 466.628  -2
  -4 -10 -11 1707.67 466.628   1
  -4  10  13 1634.53 426.973  -2
  -4 -10 -12 1634.53 426.973   1
  -4 -10 -13 469.562 567.129   1
  -4  10  14 1948.70 928.566  -2
  -4 -10 -13 1948.70 928.566   1
  -4  10  15 977.625 909.281  -2
  -4 -10 -14 977.625 909.281   1
  -4 -11 -13 2314.72 639.771  -2
  -4  11  14 2314.72 639.771   1
  -4  11  13 6654.14 1283.72   1
  -4 -11 -12 6441.75 736.060  -2
  -4  11  13 6441.75 736.060   1
  -4 -11 -11 5522.77 536.287  -2
  -4  11  12 5522.77 536.287   1
   4  11  10 2526.98 448.511  -2
   4 -11 -11 2526.98 448.511   1
   4 -11   9 4527.53 464.949  -2
   4  11 -10 4527.53 464.949   1
  -4 -11  -8 1638.50 462.460  -2
  -4  11   9 1638.50 462.460   1
   4  11   7 2775.78 390.857  -2
   4 -11  -8 2775.78 390.857   1
  -4 -11  -6 15814.8 599.432  -2
  -4  11   7 15814.8 599.432   1
  -4 -11  -5 5787.48 447.524  -2
  -4  11   6 5787.48 447.524   1
  -4 -11  -4 4464.33 415.311  -2
  -4  11   5 4464.33 415.311   1
  -4 -11  -3 3744.13 393.724  -2
  -4  11   4 3744.13 393.724   1
  -4  11  -2 3857.27 297.871  -2
  -4 -11   3 3857.27 297.871   1
  -4  11   2 1186.46 410.352   1
  -4  11  -1 7243.93 272.792  -2
  -4 -11   2 7243.93 272.792   1
  -4  11   1 11467.3 452.785   1
  -4 -11   0 10352.8 529.250  -2
  -4  11   1 10352.8 529.250   1
   4  11   0-37.2470 123.634   1
  -4  11   1 9098.09 368.480  -2
  -4 -11   0 9098.09 368.480   1
   4  11   1 8164.63 320.130   1
  -4 -11   2 9119.07 315.581  -2
  -4  11  -1 9119.07 315.581   1
   4  11   2 1424.38 181.365   1
  -4 -11   3 2945.08 293.641  -2
  -4  11  -2 2945.08 293.641   1
  -4 -11   4 4593.10 335.246  -2
  -4  11  -3 4593.10 335.246   1
  -4  11  -4 47.7367 80.9286   1
  -4  11   5 3785.29 218.460  -2
  -4 -11  -4 3785.29 218.460   1
   4 -11   5 5841.78 347.850   1
  -4  11   6 6991.73 402.804  -2
  -4 -11  -5 6991.73 402.804   1
   4 -11   6 2961.56 300.810   1
  -4  11   7 13664.8 570.507  -2
  -4 -11  -6 13664.8 570.507   1
  -4  11   8 3156.21 389.756  -2
  -4 -11  -7 3156.21 389.756   1
   4 -11   8-56.8205 324.063   1
  -4 -11   9 1620.50 366.530  -2
  -4  11  -8 1620.50 366.530   1
  -4  11  10 3930.77 430.886  -2
  -4 -11  -9 3930.77 430.886   1
  -4  11 -10 1744.60 742.495   1
  -4 -11  11 2771.27 470.254  -2
  -4  11 -10 2771.27 470.254   1
  -4  11 -11 5876.04 1013.73   1
  -4  11  12 6515.62 606.051  -2
  -4 -11 -11 6515.62 606.051   1
  -4 -11  13 5471.27 558.747  -2
  -4  11 -12 5471.27 558.747   1
   4  12  13 9094.40 1436.61  -2
   4 -12 -14 9094.40 1436.61   1
  -4 -12 -12 3789.48 693.610  -2
  -4  12  13 3789.48 693.610   1
  -4 -12 -11 2970.05 494.681  -2
  -4  12  12 2970.05 494.681   1
  -4  12  11 2995.95 1008.39   1
   4  12  10 5664.49 592.612  -2
   4 -12 -11 5664.49 592.612   1
  -4  12  10 2081.14 850.331   1
  -4 -12  -9 1140.20 552.840  -2
  -4  12  10 1140.20 552.840   1
  -4 -12  -8 2262.63 493.733  -2
  -4  12   9 2262.63 493.733   1
   4  12   7 10570.3 670.107  -2
   4 -12  -8 10570.3 670.107   1
   4 -12   6 2382.32 373.752  -2
   4  12  -7 2382.32 373.752   1
  -4 -12  -5 21271.4 708.087  -2
  -4  12   6 21271.4 708.087   1
  -4 -12  -4 7525.41 484.285  -2
  -4  12   5 7525.41 484.285   1
  -4 -12  -3 8939.16 495.647  -2
  -4  12   4 8939.16 495.647   1
  -4 -12  -2 16974.1 557.738  -2
  -4  12   3 16974.1 557.738   1
  -4 -12  -1 2196.65 319.364  -2
  -4  12   2 2196.65 319.364   1
  -4  12   1 1126.62 416.856   1
  -4  12   0 3656.19 424.960  -2
  -4 -12   1 3656.19 424.960   1
   4  12   0 3953.63 440.993   1
  -4 -12   1 4562.11 366.848  -2
  -4  12   0 4562.11 366.848   1
   4  12   1 2559.24 317.920   1
  -4 -12   2 2803.50 338.211  -2
  -4  12  -1 2803.50 338.211   1
  -4  12   3 19595.4 548.119  -2
  -4 -12  -2 19595.4 548.119   1
  -4  12   4 9250.47 395.018  -2
  -4 -12  -3 9250.47 395.018   1
  -4  12  -4 9299.13 870.783   1
  -4  12   5 9028.91 436.894  -2
  -4 -12  -4 9028.91 436.894   1
  -4  12  -5 91.4145 392.636   1
  -4 -12   6 16757.8 575.241  -2
  -4  12  -5 16757.8 575.241   1
  -4  12  -6 470.089 394.218   1
  -4  12   7 2222.72 371.480  -2
  -4 -12  -6 2222.72 371.480   1
  -4  12   8 10870.5 552.694  -2
  -4 -12  -7 10870.5 552.694   1
  -4 -12   9 2336.53 407.259  -2
  -4  12  -8 2336.53 407.259   1
  -4  12  10 674.890 398.703  -2
  -4 -12  -9 674.890 398.703   1
  -4  12 -10 4195.06 903.310   1
  -4  12  11 6287.02 598.191  -2
  -4 -12 -10 6287.02 598.191   1
  -4  12  12 2582.53 483.687  -2
  -4 -12 -11 2582.53 483.687   1
   4  13  12 1737.25 1086.30  -2
   4 -13 -13 1737.25 1086.30   1
  -4 -13 -11 4250.53 869.656  -2
  -4  13  12 4250.53 869.656   1
  -4  13  11 1063.78 927.398   1
   4  13  10 1700.69 584.475  -2
   4 -13 -11 1700.69 584.475   1
  -4  13  10 4215.22 1017.00   1
   4  13   9 7867.05 767.849  -2
   4 -13 -10 7867.05 767.849   1
   4  13   8 4730.96 578.234  -2
   4 -13  -9 4730.96 578.234   1
  -4  13   8 1117.84 816.053   1
  -4 -13  -7 1467.30 553.117  -2
  -4  13   8 1467.30 553.117   1
   4  13   6 1138.53 469.270  -2
   4 -13  -7 1138.53 469.270   1
  -4  13   6 858.612 735.410   1
   4 -13   5 1367.48 567.563  -2
   4  13  -6 1367.48 567.563   1
  -4 -13  -4 16030.6 648.535  -2
  -4  13   5 16030.6 648.535   1
  -4 -13  -3 20300.7 708.955  -2
  -4  13   4 20300.7 708.955   1
  -4  13  -2 1226.31 315.524  -2
  -4 -13   3 1226.31 315.524   1
  -4 -13  -1 8185.00 446.775  -2
  -4  13   2 8185.00 446.775   1
   4  13  -1 1810.91 416.470   1
  -4  13   0 12411.6 523.981  -2
  -4 -13   1 12411.6 523.981   1
  -4  13   0 12922.8 576.577   1
  -4  13   1 15320.5 656.849  -2
  -4 -13   0 15320.5 656.849   1
  -4  13  -1 5901.16 837.826   1
  -4 -13   2 8501.29 533.682  -2
  -4  13  -1 8501.29 533.682   1
  -4  13  -2 1294.48 535.833   1
  -4  13   3 1422.29 315.300  -2
  -4 -13  -2 1422.29 315.300   1
  -4  13  -3 8708.67 916.798   1
  -4  13   4 19390.4 593.475  -2
  -4 -13  -3 19390.4 593.475   1
  -4  13  -4 7213.64 819.846   1
  -4  13   5 15743.3 556.482  -2
  -4 -13  -4 15743.3 556.482   1
  -4  13  -5 650.331 434.301   1
  -4 -13   6 1185.92 318.346  -2
  -4  13  -5 1185.92 318.346   1
  -4 -13   7 1615.74 370.233  -2
  -4  13  -6 1615.74 370.233   1
  -4 -13   8 1231.83 388.542  -2
  -4  13  -7 1231.83 388.542   1
  -4 -13   9 5486.90 491.060  -2
  -4  13  -8 5486.90 491.060   1
  -4  13  10 7952.47 567.165  -2
  -4 -13  -9 7952.47 567.165   1
  -4  13  11 1164.87 450.348  -2
  -4 -13 -10 1164.87 450.348   1
  -4  13 -11 121.818 748.692   1
  -4  13  12 3272.84 1194.00  -2
  -4 -13 -11 3272.84 1194.00   1
  -4 -14 -10 5441.27 925.948  -2
  -4  14  11 5441.27 925.948   1
   4  14   9 4539.68 678.048  -2
   4 -14 -10 4539.68 678.048   1
  -4  14   9 816.284 843.969   1
   4  14   8 4477.56 671.321  -2
   4 -14  -9 4477.56 671.321   1
  -4  14   8 3364.55 989.540   1
  -4 -14  -7 4596.40 682.404  -2
  -4  14   8 4596.40 682.404   1
  -4  14   7 410.080 762.890   1
   4  14   6 1551.41 533.657  -2
   4 -14  -7 1551.41 533.657   1
  -4  14   6 684.256 761.126   1
  -4 -14  -5 964.529 586.124  -2
  -4  14   6 964.529 586.124   1
  -4 -14  -4 7462.52 686.783  -2
  -4  14   5 7462.52 686.783   1
  -4  14   4 935.627 674.238   1
   4 -14   3 857.834 593.450  -2
   4  14  -4 857.834 593.450   1
  -4  14   3 1486.89 696.572   1
  -4 -14  -2 3805.99 410.865  -2
  -4  14   3 3805.99 410.865   1
  -4  14   2 377.277 646.252   1
  -4 -14  -1 1585.76 352.930  -2
  -4  14   2 1585.76 352.930   1
   4  14  -1 1753.87 369.449   1
  -4  14   0 1379.65 363.939  -2
  -4 -14   1 1379.65 363.939   1
  -4  14   0 243.436 325.535   1
  -4  14   1 1829.52 487.853  -2
  -4 -14   0 1829.52 487.853   1
  -4  14  -1 1173.83 606.555   1
  -4  14   2 1907.89 331.592  -2
  -4 -14  -1 1907.89 331.592   1
  -4  14  -2 1342.51 567.190   1
  -4  14   3 3725.76 387.797  -2
  -4 -14  -2 3725.76 387.797   1
  -4  14  -3 279.848 526.759   1
  -4  14   4 1115.62 311.254  -2
  -4 -14  -3 1115.62 311.254   1
  -4  14  -4 3338.37 650.357   1
  -4 -14   5 7055.29 437.620  -2
  -4  14  -4 7055.29 437.620   1
  -4  14   6 912.399 344.489  -2
  -4 -14  -5 912.399 344.489   1
  -4 -14   7 2221.16 409.088  -2
  -4  14  -6 2221.16 409.088   1
  -4 -14   8 3899.69 457.830  -2
  -4  14  -7 3899.69 457.830   1
  -4  14  -8 3792.19 868.888   1
  -4 -14   9 4515.65 574.563  -2
  -4  14  -8 4515.65 574.563   1
  -4 -14  10 3900.07 543.094  -2
  -4  14  -9 3900.07 543.094   1
  -4 -14  11 5659.98 920.500  -2
  -4  14 -10 5659.98 920.500   1
  -4 -14 -11 1999.30 931.764   1
   4  15   9 1195.13 828.838  -2
   4 -15 -10 1195.13 828.838   1
  -4 -15  -8 2162.11 625.675  -2
  -4  15   9 2162.11 625.675   1
  -4  15   8-46.2702 845.655   1
   4  15   7 631.680 600.090  -2
   4 -15  -8 631.680 600.090   1
  -4  15   7 3400.92 965.517   1
  -4 -15  -6 2862.86 634.872  -2
  -4  15   7 2862.86 634.872   1
  -4  15   6 3300.16 913.252   1
   4 -15   5 3894.38 760.564  -2
   4  15  -6 3894.38 760.564   1
  -4  15   5 1664.60 828.005   1
   4 -15   4 2138.54 656.581  -2
   4  15  -5 2138.54 656.581   1
  -4  15   4 1009.20 739.152   1
   4 -15   3 3916.24 730.307  -2
   4  15  -4 3916.24 730.307   1
  -4  15   3 1703.09 723.535   1
  -4 -15  -2 2037.82 531.950  -2
  -4  15   3 2037.82 531.950   1
  -4  15   2 1153.56 713.022   1
  -4 -15  -1 1573.36 516.159  -2
  -4  15   2 1573.36 516.159   1
  -4  15   1 569.870 639.348   1
  -4  15   0 825.842 506.060  -2
  -4 -15   1 825.842 506.060   1
  -4  15   0 147.728 345.531   1
  -4 -15   1 397.472 494.744  -2
  -4  15   0 397.472 494.744   1
  -4  15  -1 324.747 627.204   1
  -4  15   2 1811.44 347.570  -2
  -4 -15  -1 1811.44 347.570   1
  -4  15  -2 2009.09 649.285   1
  -4  15   3 1855.30 363.927  -2
  -4 -15  -2 1855.30 363.927   1
  -4  15  -3 4516.55 771.944   1
  -4  15   4 5275.60 442.294  -2
  -4 -15  -3 5275.60 442.294   1
  -4 -15   5 1849.80 357.045  -2
  -4  15  -4 1849.80 357.045   1
  -4  15  -5 1583.58 605.660   1
  -4  15   6 2830.46 444.733  -2
  -4 -15  -5 2830.46 444.733   1
  -4  15   7 2948.86 446.130  -2
  -4 -15  -6 2948.86 446.130   1
  -4  15  -7-101.389 656.985   1
  -4  15   8 180.109 490.380  -2
  -4 -15  -7 180.109 490.380   1
  -4  15  -8 569.738 681.594   1
  -4  15   9 2271.37 755.981  -2
  -4 -15  -8 2271.37 755.981   1
  -4 -15  10 1484.24 733.307  -2
  -4  15  -9 1484.24 733.307   1
  -4  15  11 810.197 1250.75  -2
  -4 -15 -10 810.197 1250.75   1
   4  16   8 3300.97 891.919  -2
   4 -16  -9 3300.97 891.919   1
   4  16   7 1982.44 631.921  -2
   4 -16  -8 1982.44 631.921   1
  -4  16   7 284.476 877.974   1
  -4 -16  -6 489.245 604.449  -2
  -4  16   7 489.245 604.449   1
  -4  16   6 1480.93 865.544   1
  -4 -16  -5 1045.22 702.768  -2
  -4  16   6 1045.22 702.768   1
  -4  16   5 190.723 757.746   1
  -4 -16  -4 1696.44 705.224  -2
  -4  16   5 1696.44 705.224   1
  -4  16   4 4761.14 1012.29   1
   4 -16   3 4343.64 813.496  -2
   4  16  -4 4343.64 813.496   1
  -4  16   3 325.227 786.443   1
   4 -16   2 5187.85 653.918  -2
   4  16  -3 5187.85 653.918   1
  -4  16   2 4271.08 935.887   1
  -4 -16  -1 4830.95 653.184  -2
  -4  16   2 4830.95 653.184   1
  -4  16   1 130.641 694.096   1
  -4 -16   0 2480.68 575.464  -2
  -4  16   1 2480.68 575.464   1
  -4  16   0 4426.23 885.293   1
  -4 -16   1 3155.37 606.428  -2
  -4  16   0 3155.37 606.428   1
  -4  16  -1 488.931 599.594   1
  -4  16   2 4366.95 634.397  -2
  -4 -16  -1 4366.95 634.397   1
  -4  16  -2 4575.54 861.032   1
  -4 -16   3 5305.83 687.636  -2
  -4  16  -2 5305.83 687.636   1
  -4 -16   4 4152.99 519.335  -2
  -4  16  -3 4152.99 519.335   1
  -4 -16   5 2474.85 485.504  -2
  -4  16  -4 2474.85 485.504   1
  -4  16   6 1068.57 415.354  -2
  -4 -16  -5 1068.57 415.354   1
  -4  16  -6 499.572 623.345   1
  -4  16   7 1340.37 981.914  -2
  -4 -16  -6 1340.37 981.914   1
  -4  16  -7 242.537 645.738   1
  -4  16  -8 3525.02 901.838   1
   4  17   6 4225.61 1468.08  -2
   4 -17  -7 4225.61 1468.08   1
  -4 -17  -5 2105.99 753.431  -2
  -4  17   6 2105.99 753.431   1
  -4  17   5 1539.71 861.255   1
  -4 -17  -4 2368.59 765.127  -2
  -4  17   5 2368.59 765.127   1
  -4  17   4-217.980 800.514   1
   4 -17   3 1623.69 737.053  -2
   4  17  -4 1623.69 737.053   1
  -4  17   3 2070.74 915.207   1
  -4  17  -2 4155.50 648.489  -2
  -4 -17   3 4155.50 648.489   1
  -4  17   2 982.632 756.446   1
   4 -17   1 2905.85 609.496  -2
   4  17  -2 2905.85 609.496   1
  -4  17   1 4515.53 974.547   1
  -4 -17   0 5445.59 701.179  -2
  -4  17   1 5445.59 701.179   1
  -4  17   0 330.353 700.420   1
  -4 -17   1 4145.43 687.446  -2
  -4  17   0 4145.43 687.446   1
  -4  17  -1 2406.91 780.428   1
  -4 -17   2 3771.94 674.971  -2
  -4  17  -1 3771.94 674.971   1
  -4 -17   3 2887.94 641.177  -2
  -4  17  -2 2887.94 641.177   1
   4 -17  -4 2500.03 625.125  -2
   4  17   3 2500.03 625.125   1
   4 -17  -5 1810.93 1016.61  -2
   4  17   4 1810.93 1016.61   1
   4 -18   3 169.613 938.804  -2
   4  18  -4 169.613 938.804   1
  -4  18   3 1008.15 830.976   1
  -4  18  -2 2398.52 710.416  -2
  -4 -18   3 2398.52 710.416   1
  -4  18   2 792.380 805.132   1
   4 -18   1 894.172 707.956  -2
   4  18  -2 894.172 707.956   1
  -4  18   1 736.819 695.854   1
  -4  18   0 1306.39 746.219  -2
  -4 -18   1 1306.39 746.219   1
  -4  18   0 1345.55 728.852   1
   4 -18  -1 1700.73 1116.81  -2
   4  18   0 1700.73 1116.81   1
   4 -18  -2 99.5330 1017.85  -2
   4  18   1 99.5330 1017.85   1
   4 -18  -3 1645.05 1002.48  -2
   4  18   2 1645.05 1002.48   1
   4 -18  -4 869.911 1025.64  -2
   4  18   3 869.911 1025.64   1
   4 -18  -5 5499.04 1420.49  -2
   4  18   4 5499.04 1420.49   1
   5   0 -14 3046.41 580.105   1
   5   0 -12 5180.00 580.212   1
   5   0 -10 99.8476 254.124   1
  -5   0   8 107.725 144.776   1
  -5   0   6 5503.87 500.977   1
  -5   0   4 888.670 239.357   1
  -5   0   2 351.686 204.699   1
   5   0   0 163.417 140.958   1
   5   0   2 1315.39 163.766   1
  -5   0  -4 694.950 153.531   1
  -5   0  -6 828.215 181.110   1
  -5   0  -8 4826.94 223.919   1
  -5   0 -10 16524.0 439.095   1
  -5   0 -12 925.498 349.962   1
  -5   0 -14 1123.95 437.959   1
   5  -1  14 766.731 447.307  -2
   5   1 -15 766.731 447.307   1
   5  -1  13 1598.43 390.778  -2
   5   1 -14 1598.43 390.778   1
   5   1  12 3253.79 420.951  -2
   5  -1 -13 3253.79 420.951   1
   5  -1  11 5977.37 402.267  -2
   5   1 -12 5977.37 402.267   1
   5   1  10 7630.93 461.153  -2
   5  -1 -11 7630.93 461.153   1
   5  -1   9 2952.66 186.073  -2
   5   1 -10 2952.66 186.073   1
   5  -1   8 1938.82 171.868  -2
   5   1  -9 1938.82 171.868   1
  -5  -1  -7 709.956 110.954  -2
  -5   1   8 709.956 110.954   1
  -5  -1  -6 253.767 192.928  -2
  -5   1   7 253.767 192.928   1
   5  -1   5 6340.61 333.412  -2
   5   1  -6 6340.61 333.412   1
  -5   1  -4 3409.88 250.600  -2
  -5  -1   5 3409.88 250.600   1
   5  -1   3 6687.19 283.804  -2
   5   1  -4 6687.19 283.804   1
   5   1   2 18193.8 406.515  -2
   5  -1  -3 18193.8 406.515   1
  -5   1   2 884.742 144.404   1
  -5   1  -1 909.755 154.561  -2
  -5  -1   2 909.755 154.561   1
   5  -1   0 1909.72 161.036  -2
   5   1  -1 1909.72 161.036   1
   5  -1  -1 2170.29 135.719  -2
   5   1   0 2170.29 135.719   1
   5  -1  -2 871.087 106.445  -2
   5   1   1 871.087 106.445   1
   5  -1  -3 22033.4 347.512  -2
   5   1   2 22033.4 347.512   1
   5   1  -4 6416.97 199.130  -2
   5  -1   3 6416.97 199.130   1
  -5  -1   5 4359.62 196.465  -2
  -5   1  -4 4359.62 196.465   1
  -5   1   6 5342.44 275.601  -2
  -5  -1  -5 5342.44 275.601   1
  -5   1   7 189.110 157.197  -2
  -5  -1  -6 189.110 157.197   1
  -5  -1   8 694.426 148.444  -2
  -5   1  -7 694.426 148.444   1
  -5   1   9 1791.12 181.563  -2
  -5  -1  -8 1791.12 181.563   1
  -5   1  10 2821.64 188.434  -2
  -5  -1  -9 2821.64 188.434   1
  -5   1  11 7213.21 283.158  -2
  -5  -1 -10 7213.21 283.158   1
   5  -1 -12 6323.52 357.638  -2
   5   1  11 6323.52 357.638   1
   5   1 -13 3973.74 324.252  -2
   5  -1  12 3973.74 324.252   1
   5   1 -14 2110.96 332.129  -2
   5  -1  13 2110.96 332.129   1
  -5  -1  15 808.029 335.030  -2
  -5   1 -14 808.029 335.030   1
  -5   1  16 569.908 351.198  -2
  -5  -1 -15 569.908 351.198   1
  -5   1  17 3478.41 1200.52  -2
  -5  -1 -16 3478.41 1200.52   1
  -5  -2 -15 541.073 963.829  -2
  -5   2  16 541.073 963.829   1
   5  -2  14 959.223 472.770  -2
   5   2 -15 959.223 472.770   1
   5  -2  13 6180.22 511.666  -2
   5   2 -14 6180.22 511.666   1
   5   2  12 7829.93 530.319  -2
   5  -2 -13 7829.93 530.319   1
   5  -2  11 6156.16 443.276  -2
   5   2 -12 6156.16 443.276   1
   5  -2  10 14759.3 706.685  -2
   5   2 -11 14759.3 706.685   1
   5  -2   9 15113.9 779.646  -2
   5   2 -10 15113.9 779.646   1
  -5  -2  -8 7179.45 253.113  -2
  -5   2   9 7179.45 253.113   1
  -5  -2  -7 1062.66 118.962  -2
  -5   2   8 1062.66 118.962   1
  -5  -2  -6 6782.82 338.718  -2
  -5   2   7 6782.82 338.718   1
   5   2   5 17136.9 490.356  -2
   5  -2  -6 17136.9 490.356   1
   5  -2   4 17531.3 416.696  -2
   5   2  -5 17531.3 416.696   1
  -5   2  -3 17818.3 419.322  -2
  -5  -2   4 17818.3 419.322   1
   5   2   2 37172.0 480.800  -2
   5  -2  -3 37172.0 480.800   1
  -5   2  -1 1510.31 148.043  -2
  -5  -2   2 1510.31 148.043   1
  -5   2   0 2200.35 126.267  -2
  -5  -2   1 2200.35 126.267   1
   5  -2  -1 1694.67 121.625  -2
   5   2   0 1694.67 121.625   1
   5  -2  -2 1619.20 113.827  -2
   5   2   1 1619.20 113.827   1
  -5   2   3 31374.3 402.736  -2
  -5  -2  -2 31374.3 402.736   1
   5   2  -4 22389.7 367.994  -2
   5  -2   3 22389.7 367.994   1
  -5   2   5 16692.8 331.744  -2
  -5  -2  -4 16692.8 331.744   1
  -5   2   6 18334.2 418.043  -2
  -5  -2  -5 18334.2 418.043   1
  -5   2   7 8122.64 275.582  -2
  -5  -2  -6 8122.64 275.582   1
  -5  -2   8 1200.36 139.177  -2
  -5   2  -7 1200.36 139.177   1
   5  -2  -9 7494.62 243.251  -2
   5   2   8 7494.62 243.251   1
  -5   2  10 12774.1 370.293  -2
  -5  -2  -9 12774.1 370.293   1
  -5  -2  11 11216.3 361.580  -2
  -5   2 -10 11216.3 361.580   1
  -5   2  12 6827.27 333.789  -2
  -5  -2 -11 6827.27 333.789   1
  -5   2  13 9196.28 426.732  -2
  -5  -2 -12 9196.28 426.732   1
   5  -2 -14 6219.47 433.710  -2
   5   2  13 6219.47 433.710   1
  -5   2  15 1317.28 339.678  -2
  -5  -2 -14 1317.28 339.678   1
  -5  -2  16 1192.15 403.743  -2
  -5   2 -15 1192.15 403.743   1
   5   2  16 2304.00 870.468   1
  -5   2  17 2334.94 1076.47  -2
  -5  -2 -16 2334.94 1076.47   1
  -5  -3 -15 34.9778 1042.52  -2
  -5   3  16 34.9778 1042.52   1
   5   3  14 850.354 456.512  -2
   5  -3 -15 850.354 456.512   1
   5  -3  13 955.974 435.404  -2
   5   3 -14 955.974 435.404   1
   5  -3  12 5401.08 413.748  -2
   5   3 -13 5401.08 413.748   1
   5   3  11 6329.68 459.898  -2
   5  -3 -12 6329.68 459.898   1
   5  -3  10 5838.78 426.400  -2
   5   3 -11 5838.78 426.400   1
  -5  -3  -9 23498.6 766.095  -2
  -5   3  10 23498.6 766.095   1
   5  -3   8 691.636 235.430  -2
   5   3  -9 691.636 235.430   1
  -5  -3  -7 1083.56 175.374  -2
  -5   3   8 1083.56 175.374   1
  -5  -3  -6 16088.2 483.144  -2
  -5   3   7 16088.2 483.144   1
   5  -3   5 3934.25 265.092  -2
   5   3  -6 3934.25 265.092   1
  -5  -3  -4 47695.0 736.437  -2
  -5   3   5 47695.0 736.437   1
   5   3   3 38933.5 594.468  -2
   5  -3  -4 38933.5 594.468   1
   5  -3   2 649.961 149.268  -2
   5   3  -3 649.961 149.268   1
  -5  -3  -1 69845.0 643.127  -2
  -5   3   2 69845.0 643.127   1
   5  -3   0 3784.19 152.901  -2
   5   3  -1 3784.19 152.901   1
  -5   3   1 3789.77 149.759  -2
  -5  -3   0 3789.77 149.759   1
  -5   3   2 59018.0 481.259  -2
  -5  -3  -1 59018.0 481.259   1
  -5   3   3 823.710 114.923  -2
  -5  -3  -2 823.710 114.923   1
   5  -3  -4 34022.2 406.648  -2
   5   3   3 34022.2 406.648   1
  -5   3   5 58697.4 595.925  -2
  -5  -3  -4 58697.4 595.925   1
  -5   3   6 3812.16 154.703  -2
  -5  -3  -5 3812.16 154.703   1
   5  -3  -7 17671.7 310.345  -2
   5   3   6 17671.7 310.345   1
   5  -3  -8 830.817 122.487  -2
   5   3   7 830.817 122.487   1
   5  -3  -9 682.626 122.079  -2
   5   3   8 682.626 122.079   1
  -5   3  10 18859.3 429.598  -2
  -5  -3  -9 18859.3 429.598   1
  -5   3  11 5705.37 280.306  -2
  -5  -3 -10 5705.37 280.306   1
   5  -3 -12 4599.13 334.123  -2
   5   3  11 4599.13 334.123   1
  -5  -3  13 6791.76 395.385  -2
  -5   3 -12 6791.76 395.385   1
  -5   3  14 751.940 279.334  -2
  -5  -3 -13 751.940 279.334   1
   5   3 -15 513.324 331.872  -2
   5  -3  14 513.324 331.872   1
  -5   3  16 739.144 435.294  -2
  -5  -3 -15 739.144 435.294   1
  -5   3  17 1034.19 911.651  -2
  -5  -3 -16 1034.19 911.651   1
  -5  -4 -15 3135.33 1245.35  -2
  -5   4  16 3135.33 1245.35   1
   5   4  14 1284.09 477.588  -2
   5  -4 -15 1284.09 477.588   1
   5   4  13 1876.59 466.477  -2
   5  -4 -14 1876.59 466.477   1
   5   4  12 5268.73 424.510  -2
   5  -4 -13 5268.73 424.510   1
   5   4  11 10661.7 559.926  -2
   5  -4 -12 10661.7 559.926   1
  -5  -4 -10 5663.93 440.980  -2
  -5   4  11 5663.93 440.980   1
  -5  -4  -9 14601.1 555.134  -2
  -5   4  10 14601.1 555.134   1
   5  -4   8 10018.0 577.971  -2
   5   4  -9 10018.0 577.971   1
   5  -4   7 2783.19 368.848  -2
   5   4  -8 2783.19 368.848   1
   5  -4   6 2117.93 146.473  -2
   5   4  -7 2117.93 146.473   1
   5   4   5 27941.5 578.469  -2
   5  -4  -6 27941.5 578.469   1
   5  -4   4 4280.76 310.051  -2
   5   4  -5 4280.76 310.051   1
  -5  -4  -3 14534.5 324.905  -2
  -5   4   4 14534.5 324.905   1
   5  -4   2 42350.2 574.287  -2
   5   4  -3 42350.2 574.287   1
   5  -4   1 8506.71 247.866  -2
   5   4  -2 8506.71 247.866   1
   5  -4   0 4364.49 158.057  -2
   5   4  -1 4364.49 158.057   1
   5  -4  -1 4087.44 155.068  -2
   5   4   0 4087.44 155.068   1
   5  -4  -2 8465.27 192.960  -2
   5   4   1 8465.27 192.960   1
   5  -4  -3 35674.9 375.268  -2
   5   4   2 35674.9 375.268   1
   5  -4  -4 17592.6 233.579  -2
   5   4   3 17592.6 233.579   1
   5  -4  -5 4546.39 182.976  -2
   5   4   4 4546.39 182.976   1
  -5   4   6 29206.3 339.292  -2
  -5  -4  -5 29206.3 339.292   1
  -5   4   7 2632.25 243.527  -2
  -5  -4  -6 2632.25 243.527   1
   5  -4  -8 2571.06 202.893  -2
   5   4   7 2571.06 202.893   1
  -5   4   9 7542.52 184.952  -2
  -5  -4  -8 7542.52 184.952   1
   5   4 -10 11983.8 308.242  -2
   5  -4   9 11983.8 308.242   1
  -5  -4  11 4758.58 304.073  -2
  -5   4 -10 4758.58 304.073   1
  -5   4  12 12481.1 478.640  -2
  -5  -4 -11 12481.1 478.640   1
   5  -4 -13 6232.36 389.652  -2
   5   4  12 6232.36 389.652   1
  -5   4  14 1871.40 305.712  -2
  -5  -4 -13 1871.40 305.712   1
   5  -4 -15 1563.17 353.059  -2
   5   4  14 1563.17 353.059   1
  -5   4  16 2013.76 619.783  -2
  -5  -4 -15 2013.76 619.783   1
  -5  -5 -15 4446.61 837.318  -2
  -5   5  16 4446.61 837.318   1
   5   5  14 950.538 464.812  -2
   5  -5 -15 950.538 464.812   1
   5   5  13 5269.31 666.814  -2
   5  -5 -14 5269.31 666.814   1
   5   5  12 1813.60 373.143  -2
   5  -5 -13 1813.60 373.143   1
   5   5  11 5803.86 469.605  -2
   5  -5 -12 5803.86 469.605   1
  -5  -5 -10 10156.6 554.955  -2
  -5   5  11 10156.6 554.955   1
  -5  -5  -9 3753.00 352.701  -2
  -5   5  10 3753.00 352.701   1
   5  -5   8 7872.27 426.333  -2
   5   5  -9 7872.27 426.333   1
   5  -5   7 374.351 183.589  -2
   5   5  -8 374.351 183.589   1
   5  -5   6 2190.26 204.358  -2
   5   5  -7 2190.26 204.358   1
   5  -5   5 3093.27 186.731  -2
   5   5  -6 3093.27 186.731   1
   5  -5   4 3217.62 232.476  -2
   5   5  -5 3217.62 232.476   1
  -5  -5  -3 4065.53 206.043  -2
  -5   5   4 4065.53 206.043   1
   5  -5   2 14512.2 329.203  -2
   5   5  -3 14512.2 329.203   1
   5  -5   1 621.054 121.121  -2
   5   5  -2 621.054 121.121   1
  -5  -5   0 239.139 87.9024  -2
  -5   5   1 239.139 87.9024   1
   5  -5  -1 160.824 95.3440  -2
   5   5   0 160.824 95.3440   1
   5  -5  -2 655.491 84.7713  -2
   5   5   1 655.491 84.7713   1
  -5   5   3 16305.6 269.684  -2
  -5  -5  -2 16305.6 269.684   1
  -5   5   4 3529.67 186.788  -2
  -5  -5  -3 3529.67 186.788   1
   5   5  -5 4229.31 213.287  -2
   5  -5   4 4229.31 213.287   1
  -5   5   6 3737.72 197.786  -2
  -5  -5  -5 3737.72 197.786   1
  -5   5   7 2465.67 240.885  -2
  -5  -5  -6 2465.67 240.885   1
   5  -5  -8 667.678 226.517  -2
   5   5   7 667.678 226.517   1
  -5   5   9 6678.47 354.388  -2
  -5  -5  -8 6678.47 354.388   1
  -5   5  10 2882.59 287.926  -2
  -5  -5  -9 2882.59 287.926   1
  -5  -5  11 8570.56 398.658  -2
  -5   5 -10 8570.56 398.658   1
  -5   5  12 6201.79 347.844  -2
  -5  -5 -11 6201.79 347.844   1
  -5   5  13 1954.92 295.345  -2
  -5  -5 -12 1954.92 295.345   1
  -5   5  14 4543.54 392.704  -2
  -5  -5 -13 4543.54 392.704   1
  -5  -5 -14 274.898 566.826   1
  -5  -5  15 760.420 361.437  -2
  -5   5 -14 760.420 361.437   1
  -5  -5  16 1256.27 764.680  -2
  -5   5 -15 1256.27 764.680   1
  -5  -6 -15 3511.70 825.214  -2
  -5   6  16 3511.70 825.214   1
   5   6  14 1223.68 526.363  -2
   5  -6 -15 1223.68 526.363   1
   5   6  13 2309.19 487.254  -2
   5  -6 -14 2309.19 487.254   1
   5   6  12 1967.38 383.847  -2
   5  -6 -13 1967.38 383.847   1
   5   6  11 4066.67 480.822  -2
   5  -6 -12 4066.67 480.822   1
  -5  -6 -10 7427.22 502.479  -2
  -5   6  11 7427.22 502.479   1
  -5  -6  -9 1036.85 291.989  -2
  -5   6  10 1036.85 291.989   1
   5   6   8 1679.94 291.930  -2
   5  -6  -9 1679.94 291.930   1
  -5  -6  -7 513.577 263.933  -2
  -5   6   8 513.577 263.933   1
   5   6   6 1557.68 213.817  -2
   5  -6  -7 1557.68 213.817   1
   5  -6   5 6612.18 317.458  -2
   5   6  -6 6612.18 317.458   1
   5  -6   4 250.603 125.979  -2
   5   6  -5 250.603 125.979   1
   5  -6   3 2384.78 169.631  -2
   5   6  -4 2384.78 169.631   1
   5  -6   2 2332.67 151.769  -2
   5   6  -3 2332.67 151.769   1
   5  -6   1 340.726 77.0315  -2
   5   6  -2 340.726 77.0315   1
  -5  -6   0 3902.70 154.943  -2
  -5   6   1 3902.70 154.943   1
   5  -6  -1 3422.38 176.567  -2
   5   6   0 3422.38 176.567   1
   5  -6  -2 396.920 106.670  -2
   5   6   1 396.920 106.670   1
  -5   6   3 2309.74 171.970  -2
  -5  -6  -2 2309.74 171.970   1
  -5  -6   4 2046.27 161.007  -2
  -5   6  -3 2046.27 161.007   1
   5  -6  -5 146.842 129.343  -2
   5   6   4 146.842 129.343   1
   5  -6   5 4041.49 243.528   1
  -5   6   6 6905.12 322.850  -2
  -5  -6  -5 6905.12 322.850   1
  -5   6   7 1532.46 215.068  -2
  -5  -6  -6 1532.46 215.068   1
  -5  -6   8 604.678 216.940  -2
  -5   6  -7 604.678 216.940   1
  -5   6   9 1826.33 245.330  -2
  -5  -6  -8 1826.33 245.330   1
   5  -6 -10 851.956 238.680  -2
   5   6   9 851.956 238.680   1
  -5   6  11 8291.63 416.261  -2
  -5  -6 -10 8291.63 416.261   1
  -5   6  12 3667.02 316.811  -2
  -5  -6 -11 3667.02 316.811   1
  -5   6  13 1871.28 291.318  -2
  -5  -6 -12 1871.28 291.318   1
  -5   6  14 1443.10 345.410  -2
  -5  -6 -13 1443.10 345.410   1
   5  -6  14 479.141 584.950   1
  -5   6  15 327.286 490.408  -2
  -5  -6 -14 327.286 490.408   1
   5   6 -16 696.685 954.443  -2
   5  -6  15 696.685 954.443   1
  -5  -7 -14 1497.02 696.336  -2
  -5   7  15 1497.02 696.336   1
   5   7  13 443.991 420.823  -2
   5  -7 -14 443.991 420.823   1
   5   7  12 6741.86 522.999  -2
   5  -7 -13 6741.86 522.999   1
  -5  -7 -11 4382.72 439.129  -2
  -5   7  12 4382.72 439.129   1
   5   7  10 3635.69 395.630  -2
   5  -7 -11 3635.69 395.630   1
   5   7   9 4247.66 359.445  -2
   5  -7 -10 4247.66 359.445   1
   5   7   8 700.261 275.971  -2
   5  -7  -9 700.261 275.971   1
  -5  -7  -7 2503.04 347.463  -2
  -5   7   8 2503.04 347.463   1
  -5  -7  -6 2199.22 259.227  -2
  -5   7   7 2199.22 259.227   1
  -5  -7  -5 7148.07 381.063  -2
  -5   7   6 7148.07 381.063   1
   5  -7   4 5801.84 249.607  -2
   5   7  -5 5801.84 249.607   1
  -5  -7  -3 5247.56 198.832  -2
  -5   7   4 5247.56 198.832   1
  -5   7  -2 11341.9 385.018  -2
  -5  -7   3 11341.9 385.018   1
   5  -7   1 691.594 157.184  -2
   5   7  -2 691.594 157.184   1
   5  -7   0 3512.09 220.311  -2
   5   7  -1 3512.09 220.311   1
  -5   7   1 4114.30 216.212  -2
  -5  -7   0 4114.30 216.212   1
   5  -7  -2 711.306 106.019  -2
   5   7   1 711.306 106.019   1
  -5   7   3 12408.8 272.595  -2
  -5  -7  -2 12408.8 272.595   1
   5  -7  -4 5283.25 232.973  -2
   5   7   3 5283.25 232.973   1
  -5   7   5 7001.15 239.847  -2
  -5  -7  -4 7001.15 239.847   1
  -5   7   6 6038.08 265.961  -2
  -5  -7  -5 6038.08 265.961   1
  -5   7   7 2010.73 233.867  -2
  -5  -7  -6 2010.73 233.867   1
  -5   7   8 1877.56 231.752  -2
  -5  -7  -7 1877.56 231.752   1
  -5   7   9 480.203 206.092  -2
  -5  -7  -8 480.203 206.092   1
  -5  -7  10 4128.88 299.772  -2
  -5   7  -9 4128.88 299.772   1
  -5   7  11 3431.82 316.082  -2
  -5  -7 -10 3431.82 316.082   1
  -5   7  12 3770.70 320.836  -2
  -5  -7 -11 3770.70 320.836   1
   5   7 -13 7264.00 450.615  -2
   5  -7  12 7264.00 450.615   1
   5   7 -14 355.669 333.691  -2
   5  -7  13 355.669 333.691   1
  -5   7  15 1227.47 511.004  -2
  -5  -7 -14 1227.47 511.004   1
   5   8  13 6434.39 868.237  -2
   5  -8 -14 6434.39 868.237   1
  -5  -8 -12 4335.78 461.200  -2
  -5   8  13 4335.78 461.200   1
  -5  -8 -11 3389.44 419.370  -2
  -5   8  12 3389.44 419.370   1
   5   8  10 12010.8 591.676  -2
   5  -8 -11 12010.8 591.676   1
  -5  -8  -9 4880.44 359.661  -2
  -5   8  10 4880.44 359.661   1
  -5  -8  -8 3851.87 345.766  -2
  -5   8   9 3851.87 345.766   1
  -5  -8  -7 3973.90 325.699  -2
  -5   8   8 3973.90 325.699   1
  -5  -8  -6 2702.13 283.458  -2
  -5   8   7 2702.13 283.458   1
  -5  -8  -5 4525.14 263.150  -2
  -5   8   6 4525.14 263.150   1
   5  -8  -5 13149.7 469.818   1
   5  -8   4 19573.8 418.440  -2
   5   8  -5 19573.8 418.440   1
  -5  -8  -3 8729.78 403.431  -2
  -5   8   4 8729.78 403.431   1
   5  -8   2 11216.2 456.417  -2
   5   8  -3 11216.2 456.417   1
  -5   8  -1 7192.11 409.078  -2
  -5  -8   2 7192.11 409.078   1
   5  -8   0 2459.32 222.708  -2
   5   8  -1 2459.32 222.708   1
  -5  -8   1 2405.82 192.143  -2
  -5   8   0 2405.82 192.143   1
   5   8   1 7469.87 300.173   1
  -5  -8   2 9094.28 363.553  -2
  -5   8  -1 9094.28 363.553   1
  -5   8   3 10469.8 430.930  -2
  -5  -8  -2 10469.8 430.930   1
  -5   8  -3 10606.6 365.078   1
  -5   8   4 10257.0 441.106  -2
  -5  -8  -3 10257.0 441.106   1
   5  -8   4 3838.41 300.428   1
  -5   8   5 17066.1 415.086  -2
  -5  -8  -4 17066.1 415.086   1
  -5   8   6 5705.16 258.472  -2
  -5  -8  -5 5705.16 258.472   1
   5  -8  -7 2692.75 296.666  -2
   5   8   6 2692.75 296.666   1
  -5   8   8 4825.87 299.705  -2
  -5  -8  -7 4825.87 299.705   1
  -5   8   9 3949.04 300.063  -2
  -5  -8  -8 3949.04 300.063   1
  -5   8  10 4189.10 320.252  -2
  -5  -8  -9 4189.10 320.252   1
  -5   8  11 9822.79 506.082  -2
  -5  -8 -10 9822.79 506.082   1
  -5   8  12 3017.05 364.251  -2
  -5  -8 -11 3017.05 364.251   1
   5   8 -13 4211.34 411.880  -2
   5  -8  12 4211.34 411.880   1
   5   8 -14 6553.68 543.282  -2
   5  -8  13 6553.68 543.282   1
  -5  -8  15 1079.48 694.391  -2
  -5   8 -14 1079.48 694.391   1
  -5  -9 -12 2659.55 570.738  -2
  -5   9  13 2659.55 570.738   1
   5   9  11 8088.08 735.035  -2
   5  -9 -12 8088.08 735.035   1
  -5  -9 -10 2030.82 453.400  -2
  -5   9  11 2030.82 453.400   1
  -5  -9  -9 16520.8 811.739  -2
  -5   9  10 16520.8 811.739   1
  -5  -9  -8 1806.86 327.034  -2
  -5   9   9 1806.86 327.034   1
   5   9   7 806.729 267.850  -2
   5  -9  -8 806.729 267.850   1
   5   9   6 13869.7 499.560  -2
   5  -9  -7 13869.7 499.560   1
   5  -9  -6 241.955 145.156   1
   5   9   5 2903.40 236.194  -2
   5  -9  -6 2903.40 236.194   1
  -5  -9  -4 16269.7 757.490  -2
  -5   9   5 16269.7 757.490   1
  -5  -9  -3 31037.2 852.567  -2
  -5   9   4 31037.2 852.567   1
   5  -9   2 1003.93 212.087  -2
   5   9  -3 1003.93 212.087   1
  -5   9  -1 21690.6 673.628  -2
  -5  -9   2 21690.6 673.628   1
   5  -9   0 6173.28 300.496  -2
   5   9  -1 6173.28 300.496   1
  -5   9   1 5082.34 270.821  -2
  -5  -9   0 5082.34 270.821   1
   5   9   1 1541.40 123.042   1
  -5   9   2 19637.8 542.827  -2
  -5  -9  -1 19637.8 542.827   1
  -5   9   3 1017.08 248.504  -2
  -5  -9  -2 1017.08 248.504   1
  -5   9   4 27928.3 731.563  -2
  -5  -9  -3 27928.3 731.563   1
  -5   9   5 18109.5 615.006  -2
  -5  -9  -4 18109.5 615.006   1
  -5   9   6 3815.18 346.469  -2
  -5  -9  -5 3815.18 346.469   1
   5  -9   6 13303.5 700.694   1
  -5   9   7 15871.6 505.861  -2
  -5  -9  -6 15871.6 505.861   1
  -5   9   8 701.650 201.247  -2
  -5  -9  -7 701.650 201.247   1
  -5   9   9 1297.87 262.014  -2
  -5  -9  -8 1297.87 262.014   1
  -5  -9  10 13910.8 609.303  -2
  -5   9  -9 13910.8 609.303   1
  -5   9  11 1577.92 342.670  -2
  -5  -9 -10 1577.92 342.670   1
  -5   9  12 5969.52 575.410  -2
  -5  -9 -11 5969.52 575.410   1
  -5   9  13 3789.21 531.977  -2
  -5  -9 -12 3789.21 531.977   1
  -5  -9  14 1444.69 695.071  -2
  -5   9 -13 1444.69 695.071   1
  -5   9  15 2960.51 1050.95  -2
  -5  -9 -14 2960.51 1050.95   1
   5  10  12 1114.74 666.660  -2
   5 -10 -13 1114.74 666.660   1
  -5 -10 -11 4604.94 569.743  -2
  -5  10  12 4604.94 569.743   1
  -5 -10 -10 4470.98 645.620  -2
  -5  10  11 4470.98 645.620   1
   5  10   9 6268.53 693.430  -2
   5 -10 -10 6268.53 693.430   1
   5  10   8 5970.22 566.220  -2
   5 -10  -9 5970.22 566.220   1
   5  10   7 6772.99 569.659  -2
   5 -10  -8 6772.99 569.659   1
  -5 -10  -6 1043.38 361.949  -2
  -5  10   7 1043.38 361.949   1
   5  10   5 14563.3 719.925  -2
   5 -10  -6 14563.3 719.925   1
  -5 -10  -4 3023.80 457.143  -2
  -5  10   5 3023.80 457.143   1
  -5 -10  -3 10716.9 653.039  -2
  -5  10   4 10716.9 653.039   1
  -5 -10  -2 25778.6 963.676  -2
  -5  10   3 25778.6 963.676   1
  -5  10  -1 10550.1 491.564  -2
  -5 -10   2 10550.1 491.564   1
  -5 -10   0 8299.24 423.692  -2
  -5  10   1 8299.24 423.692   1
  -5  10   1 9187.44 470.298  -2
  -5 -10   0 9187.44 470.298   1
   5  10   1 3567.77 234.470   1
  -5  10   2 9375.93 427.116  -2
  -5 -10  -1 9375.93 427.116   1
  -5 -10   3 21814.1 662.377  -2
  -5  10  -2 21814.1 662.377   1
  -5  10   4 10021.1 483.187  -2
  -5 -10  -3 10021.1 483.187   1
  -5  10   5 3278.61 333.304  -2
  -5 -10  -4 3278.61 333.304   1
  -5 -10   6 15372.3 586.141  -2
  -5  10  -5 15372.3 586.141   1
  -5  10   7 1119.41 323.419  -2
  -5 -10  -6 1119.41 323.419   1
  -5  10   8 5543.04 426.882  -2
  -5 -10  -7 5543.04 426.882   1
  -5  10   9 4882.39 498.584  -2
  -5 -10  -8 4882.39 498.584   1
  -5  10  10 4500.41 510.220  -2
  -5 -10  -9 4500.41 510.220   1
  -5  10  11 3591.34 495.952  -2
  -5 -10 -10 3591.34 495.952   1
  -5  10  12 6086.26 594.278  -2
  -5 -10 -11 6086.26 594.278   1
  -5 -10  13 1255.14 501.016  -2
  -5  10 -12 1255.14 501.016   1
  -5  10  14 595.832 858.584  -2
  -5 -10 -13 595.832 858.584   1
   5  11  11 4859.51 817.158  -2
   5 -11 -12 4859.51 817.158   1
   5 -11  10 6434.10 732.614  -2
   5  11 -11 6434.10 732.614   1
  -5 -11  -9 1164.74 526.798  -2
  -5  11  10 1164.74 526.798   1
   5  11   8 13619.0 768.283  -2
   5 -11  -9 13619.0 768.283   1
   5  11   7 1164.23 382.841  -2
   5 -11  -8 1164.23 382.841   1
  -5 -11  -6 1904.60 413.188  -2
  -5  11   7 1904.60 413.188   1
  -5 -11  -5 836.290 391.116  -2
  -5  11   6 836.290 391.116   1
  -5 -11  -4 4108.39 503.967  -2
  -5  11   5 4108.39 503.967   1
  -5 -11  -3 594.426 361.186  -2
  -5  11   4 594.426 361.186   1
  -5 -11  -2 4102.73 478.668  -2
  -5  11   3 4102.73 478.668   1
  -5 -11  -1 1067.37 326.855  -2
  -5  11   2 1067.37 326.855   1
  -5  11   0 2326.72 365.740  -2
  -5 -11   1 2326.72 365.740   1
  -5  11   1 2776.68 384.988  -2
  -5 -11   0 2776.68 384.988   1
  -5 -11   2 1293.91 327.269  -2
  -5  11  -1 1293.91 327.269   1
  -5 -11   3 3779.83 321.024  -2
  -5  11  -2 3779.83 321.024   1
  -5  11   4 664.011 237.945  -2
  -5 -11  -3 664.011 237.945   1
  -5 -11   5 4377.81 414.745  -2
  -5  11  -4 4377.81 414.745   1
  -5 -11   6 846.043 289.693  -2
  -5  11  -5 846.043 289.693   1
  -5  11   7 2815.84 346.971  -2
  -5 -11  -6 2815.84 346.971   1
  -5  11   8 946.707 375.810  -2
  -5 -11  -7 946.707 375.810   1
  -5  11   9 12049.3 709.210  -2
  -5 -11  -8 12049.3 709.210   1
  -5  11  10 482.252 394.402  -2
  -5 -11  -9 482.252 394.402   1
  -5  11  11 6295.29 603.791  -2
  -5 -11 -10 6295.29 603.791   1
  -5  11  12 4957.62 584.158  -2
  -5 -11 -11 4957.62 584.158   1
  -5  11  13 336.606 921.933  -2
  -5 -11 -12 336.606 921.933   1
  -5 -12 -10 2179.02 591.594  -2
  -5  12  11 2179.02 591.594   1
  -5 -12  -9 1831.60 567.564  -2
  -5  12  10 1831.60 567.564   1
   5  12   8 1029.36 526.922  -2
   5 -12  -9 1029.36 526.922   1
   5  12   7 2320.67 543.227  -2
   5 -12  -8 2320.67 543.227   1
   5  12   6 1540.11 404.922  -2
   5 -12  -7 1540.11 404.922   1
  -5 -12  -5 3990.84 523.155  -2
  -5  12   6 3990.84 523.155   1
   5 -12   4 965.278 399.711  -2
   5  12  -5 965.278 399.711   1
  -5 -12  -3 2850.41 468.137  -2
  -5  12   4 2850.41 468.137   1
  -5 -12  -2 2187.88 432.044  -2
  -5  12   3 2187.88 432.044   1
  -5  12  -1 812.291 326.585  -2
  -5 -12   2 812.291 326.585   1
  -5 -12   0 6073.56 490.020  -2
  -5  12   1 6073.56 490.020   1
  -5  12   1 5260.38 468.651  -2
  -5 -12   0 5260.38 468.651   1
  -5  12   2 446.231 327.438  -2
  -5 -12  -1 446.231 327.438   1
  -5  12   3 2201.32 351.347  -2
  -5 -12  -2 2201.32 351.347   1
  -5  12   4 2277.59 350.771  -2
  -5 -12  -3 2277.59 350.771   1
  -5  12   5 820.804 281.077  -2
  -5 -12  -4 820.804 281.077   1
  -5  12   6 5371.02 422.963  -2
  -5 -12  -5 5371.02 422.963   1
  -5  12   7 1783.89 373.615  -2
  -5 -12  -6 1783.89 373.615   1
  -5  12   8 2061.98 435.488  -2
  -5 -12  -7 2061.98 435.488   1
  -5  12   9 1841.40 435.479  -2
  -5 -12  -8 1841.40 435.479   1
  -5  12  10 1892.91 446.959  -2
  -5 -12  -9 1892.91 446.959   1
  -5  12  11 2917.73 514.254  -2
  -5 -12 -10 2917.73 514.254   1
   5  13  10 765.213 1292.02  -2
   5 -13 -11 765.213 1292.02   1
  -5 -13  -9 1610.81 656.662  -2
  -5  13  10 1610.81 656.662   1
   5  13   8 164.919 528.553  -2
   5 -13  -9 164.919 528.553   1
   5  13   7 4988.74 697.962  -2
   5 -13  -8 4988.74 697.962   1
   5  13   6 2809.31 586.775  -2
   5 -13  -7 2809.31 586.775   1
   5 -13   5 4226.62 705.306  -2
   5  13  -6 4226.62 705.306   1
  -5 -13  -4 7047.08 628.240  -2
  -5  13   5 7047.08 628.240   1
  -5 -13  -3 1649.89 427.439  -2
  -5  13   4 1649.89 427.439   1
  -5 -13  -2 3748.88 503.202  -2
  -5  13   3 3748.88 503.202   1
  -5 -13  -1 2552.65 413.881  -2
  -5  13   2 2552.65 413.881   1
  -5  13   0 3176.33 427.439  -2
  -5 -13   1 3176.33 427.439   1
  -5 -13   1 3348.05 434.007  -2
  -5  13   0 3348.05 434.007   1
  -5  13   2 2814.79 417.475  -2
  -5 -13  -1 2814.79 417.475   1
  -5 -13   3 4168.72 465.056  -2
  -5  13  -2 4168.72 465.056   1
  -5  13   4 1421.57 320.856  -2
  -5 -13  -3 1421.57 320.856   1
  -5  13   5 7891.56 487.973  -2
  -5 -13  -4 7891.56 487.973   1
  -5 -13   6 3435.97 434.205  -2
  -5  13  -5 3435.97 434.205   1
  -5  13   7 2823.97 423.029  -2
  -5 -13  -6 2823.97 423.029   1
  -5  13   8 4371.14 525.208  -2
  -5 -13  -7 4371.14 525.208   1
  -5  13   9 358.778 406.606  -2
  -5 -13  -8 358.778 406.606   1
  -5  13  10 1325.83 467.976  -2
  -5 -13  -9 1325.83 467.976   1
  -5  13  11 2899.20 1173.67  -2
  -5 -13 -10 2899.20 1173.67   1
   5  14   8 1799.17 675.730  -2
   5 -14  -9 1799.17 675.730   1
   5  14   7 2476.51 600.663  -2
   5 -14  -8 2476.51 600.663   1
   5  14   6 1697.58 534.448  -2
   5 -14  -7 1697.58 534.448   1
   5 -14   5 2594.06 674.793  -2
   5  14  -6 2594.06 674.793   1
   5 -14   4 9475.61 908.152  -2
   5  14  -5 9475.61 908.152   1
   5 -14   3 4068.64 692.382  -2
   5  14  -4 4068.64 692.382   1
  -5 -14  -2 3505.35 525.357  -2
  -5  14   3 3505.35 525.357   1
  -5 -14  -1 5275.63 508.818  -2
  -5  14   2 5275.63 508.818   1
  -5 -14   0 3120.47 442.034  -2
  -5  14   1 3120.47 442.034   1
   5 -14  -1 2936.97 438.008  -2
   5  14   0 2936.97 438.008   1
  -5 -14   2 6333.03 538.522  -2
  -5  14  -1 6333.03 538.522   1
  -5  14   3 2997.99 401.926  -2
  -5 -14  -2 2997.99 401.926   1
  -5  14   4 5326.09 474.566  -2
  -5 -14  -3 5326.09 474.566   1
  -5  14   5 8073.83 564.798  -2
  -5 -14  -4 8073.83 564.798   1
  -5  14   6 3340.13 452.363  -2
  -5 -14  -5 3340.13 452.363   1
  -5 -14   7 2278.22 418.444  -2
  -5  14  -6 2278.22 418.444   1
  -5  14   8 3039.05 509.214  -2
  -5 -14  -7 3039.05 509.214   1
  -5 -14   9 2037.22 572.084  -2
  -5  14  -8 2037.22 572.084   1
  -5  14  10 714.923 1143.36  -2
  -5 -14  -9 714.923 1143.36   1
   5  15   7 501.806 818.201  -2
   5 -15  -8 501.806 818.201   1
  -5 -15  -6 6181.21 760.188  -2
  -5  15   7 6181.21 760.188   1
  -5 -15  -5 2628.64 687.367  -2
  -5  15   6 2628.64 687.367   1
  -5 -15  -4 2163.59 637.850  -2
  -5  15   5 2163.59 637.850   1
  -5 -15  -3 10169.1 946.093  -2
  -5  15   4 10169.1 946.093   1
  -5 -15  -2 647.651 541.993  -2
  -5  15   3 647.651 541.993   1
  -5 -15  -1 4455.72 599.416  -2
  -5  15   2 4455.72 599.416   1
  -5  15   0 2946.78 536.077  -2
  -5 -15   1 2946.78 536.077   1
  -5  15   1 3261.13 455.228  -2
  -5 -15   0 3261.13 455.228   1
  -5 -15   2 3500.57 420.626  -2
  -5  15  -1 3500.57 420.626   1
  -5  15   3 1131.38 347.434  -2
  -5 -15  -2 1131.38 347.434   1
  -5  15   4 8338.06 625.871  -2
  -5 -15  -3 8338.06 625.871   1
  -5  15   5 2228.08 417.812  -2
  -5 -15  -4 2228.08 417.812   1
  -5  15   6 2891.61 453.244  -2
  -5 -15  -5 2891.61 453.244   1
  -5 -15   7 6377.84 769.335  -2
  -5  15  -6 6377.84 769.335   1
  -5 -15   8 1112.59 574.036  -2
  -5  15  -7 1112.59 574.036   1
  -5 -15   9 3862.49 858.992  -2
  -5  15  -8 3862.49 858.992   1
   5 -16   5 2343.62 1094.17  -2
   5  16  -6 2343.62 1094.17   1
   5 -16   4 1733.78 684.741  -2
   5  16  -5 1733.78 684.741   1
   5 -16   3 4763.20 781.102  -2
   5  16  -4 4763.20 781.102   1
  -5 -16  -2 6993.43 859.227  -2
  -5  16   3 6993.43 859.227   1
  -5  16  -1 5033.45 657.036  -2
  -5 -16   2 5033.45 657.036   1
  -5  16   0 4401.34 627.524  -2
  -5 -16   1 4401.34 627.524   1
  -5  16   1 5637.32 660.975  -2
  -5 -16   0 5637.32 660.975   1
  -5 -16   2 4206.45 588.121  -2
  -5  16  -1 4206.45 588.121   1
  -5  16   3 8772.50 929.119  -2
  -5 -16  -2 8772.50 929.119   1
  -5  16   4 4193.24 597.769  -2
  -5 -16  -3 4193.24 597.769   1
  -5 -16   5 2301.89 712.088  -2
  -5  16  -4 2301.89 712.088   1
  -5 -16   6 2869.85 756.818  -2
  -5  16  -5 2869.85 756.818   1
  -5 -16   7 1814.77 737.181  -2
  -5  16  -6 1814.77 737.181   1
  -5 -16   8 5769.34 1239.90  -2
  -5  16  -7 5769.34 1239.90   1
   5 -17   2 640.338 765.633  -2
   5  17  -3 640.338 765.633   1
   5 -17   1 300.439 736.616  -2
   5  17  -2 300.439 736.616   1
   5 -17   0 4984.20 903.966  -2
   5  17  -1 4984.20 903.966   1
   5 -17  -1 3592.25 848.945  -2
   5  17   0 3592.25 848.945   1
   5 -17  -2 294.638 1069.73  -2
   5  17   1 294.638 1069.73   1
   5 -17  -3 934.401 1076.14  -2
   5  17   2 934.401 1076.14   1
  -5 -18   0 3491.27 1162.85  -2
  -5  18   1 3491.27 1162.85   1
   6   0 -14 1208.37 493.001   1
   6   0 -12 338.529 540.600   1
   6   0 -10 2248.19 281.810   1
   6   0  -8 40195.5 1090.42   1
  -6   0   6 9288.71 447.434   1
  -6   0   4 4549.10 328.698   1
  -6   0   2 21086.4 538.659   1
   6   0   0 90843.2 742.502   1
   6   0   2 626.675 195.844   1
   6   0   4 1818.26 231.098   1
  -6   0  -6 26643.2 741.105   1
  -6   0  -8 10645.9 534.307   1
  -6   0 -10 695.473 240.770   1
   6   0  12 4950.43 466.874   1
  -6   0 -14 3629.62 495.216   1
  -6  -1 -14 6704.73 1551.85  -2
  -6   1  15 6704.73 1551.85   1
   6  -1  13 9020.48 673.898  -2
   6   1 -14 9020.48 673.898   1
   6  -1  12 1385.50 399.507  -2
   6   1 -13 1385.50 399.507   1
   6  -1  11 2074.61 463.455  -2
   6   1 -12 2074.61 463.455   1
   6  -1  10 482.358 420.846  -2
   6   1 -11 482.358 420.846   1
  -6   1  -9 781.935 338.002  -2
  -6  -1  10 781.935 338.002   1
   6  -1   8 16986.2 574.597  -2
   6   1  -9 16986.2 574.597   1
  -6  -1  -7 25015.3 844.418  -2
  -6   1   8 25015.3 844.418   1
   6  -1   6 10996.3 468.422  -2
   6   1  -7 10996.3 468.422   1
  -6   1  -5 11875.7 422.792  -2
  -6  -1   6 11875.7 422.792   1
  -6   1  -4 2556.81 240.642  -2
  -6  -1   5 2556.81 240.642   1
  -6   1  -3 2449.45 206.954  -2
  -6  -1   4 2449.45 206.954   1
  -6   1  -2 2016.07 214.535  -2
  -6  -1   3 2016.07 214.535   1
  -6   1  -1 5054.40 197.918  -2
  -6  -1   2 5054.40 197.918   1
   6  -1   0 32947.0 467.560  -2
   6   1  -1 32947.0 467.560   1
  -6   1   1 27939.2 515.384  -2
  -6  -1   0 27939.2 515.384   1
   6  -1  -2 6011.43 241.780  -2
   6   1   1 6011.43 241.780   1
   6   1  -3 1554.00 155.043  -2
   6  -1   2 1554.00 155.043   1
   6   1  -4 2115.43 201.877  -2
   6  -1   3 2115.43 201.877   1
  -6   1   5 2941.93 229.877  -2
  -6  -1  -4 2941.93 229.877   1
  -6   1   6 13770.0 420.995  -2
  -6  -1  -5 13770.0 420.995   1
   6   1  -7 8996.98 427.096  -2
   6  -1   6 8996.98 427.096   1
  -6   1   8 24908.7 676.630  -2
  -6  -1  -7 24908.7 676.630   1
  -6   1   9 16224.5 495.910  -2
  -6  -1  -8 16224.5 495.910   1
  -6   1  10 896.438 202.432  -2
  -6  -1  -9 896.438 202.432   1
  -6   1  11 538.583 183.920  -2
  -6  -1 -10 538.583 183.920   1
   6  -1 -12 1785.92 279.078  -2
   6   1  11 1785.92 279.078   1
  -6   1  13 1551.61 307.133  -2
  -6  -1 -12 1551.61 307.133   1
   6   1 -14 8418.94 520.198  -2
   6  -1  13 8418.94 520.198   1
  -6   1  15 5691.14 462.982  -2
  -6  -1 -14 5691.14 462.982   1
  -6   1  16 3257.67 675.645  -2
  -6  -1 -15 3257.67 675.645   1
  -6  -2 -14 10233.0 1814.40  -2
  -6   2  15 10233.0 1814.40   1
   6  -2  13 5465.56 570.945  -2
   6   2 -14 5465.56 570.945   1
   6  -2  12 1282.98 457.282  -2
   6   2 -13 1282.98 457.282   1
   6   2  11 877.497 411.597  -2
   6  -2 -12 877.497 411.597   1
   6   2  10 424.142 421.862  -2
   6  -2 -11 424.142 421.862   1
   6  -2   9 1085.10 371.472  -2
   6   2 -10 1085.10 371.472   1
  -6  -2  -8 4006.80 331.861  -2
  -6   2   9 4006.80 331.861   1
  -6  -2  -7 6371.16 373.047  -2
  -6   2   8 6371.16 373.047   1
  -6  -2  -6 7245.44 386.235  -2
  -6   2   7 7245.44 386.235   1
   6  -2   5 765.424 199.607  -2
   6   2  -6 765.424 199.607   1
   6   2   4 7175.39 336.540  -2
   6  -2  -5 7175.39 336.540   1
  -6   2  -3 4264.34 271.526  -2
  -6  -2   4 4264.34 271.526   1
  -6   2  -2 743.941 127.867  -2
  -6  -2   3 743.941 127.867   1
  -6   2  -1 11597.2 300.766  -2
  -6  -2   2 11597.2 300.766   1
  -6   2   0 1026.51 131.264  -2
  -6  -2   1 1026.51 131.264   1
  -6   2   1 1025.36 146.858  -2
  -6  -2   0 1025.36 146.858   1
  -6   2   2 9736.85 260.203  -2
  -6  -2  -1 9736.85 260.203   1
   6   2  -3 760.575 123.442  -2
   6  -2   2 760.575 123.442   1
   6   2  -4 3748.86 217.146  -2
   6  -2   3 3748.86 217.146   1
  -6   2   5 9472.95 357.694  -2
  -6  -2  -4 9472.95 357.694   1
  -6   2   6 1037.00 198.487  -2
  -6  -2  -5 1037.00 198.487   1
  -6   2   7 8170.29 369.507  -2
  -6  -2  -6 8170.29 369.507   1
   6   2  -8 8406.63 379.707  -2
   6  -2   7 8406.63 379.707   1
  -6   2   9 3644.85 270.839  -2
  -6  -2  -8 3644.85 270.839   1
  -6   2  10 730.782 192.856  -2
  -6  -2  -9 730.782 192.856   1
  -6   2  11 168.004 221.183  -2
  -6  -2 -10 168.004 221.183   1
  -6   2  12 499.363 218.024  -2
  -6  -2 -11 499.363 218.024   1
  -6   2  13 1066.04 267.794  -2
  -6  -2 -12 1066.04 267.794   1
   6   2 -14 6229.60 468.307  -2
   6  -2  13 6229.60 468.307   1
   6   2 -15 6863.68 528.651  -2
   6  -2  14 6863.68 528.651   1
   6  -2 -16 4403.47 750.648  -2
   6   2  15 4403.47 750.648   1
  -6  -3 -15 4202.66 1376.78  -2
  -6   3  16 4202.66 1376.78   1
  -6  -3 -14 2987.78 1257.27  -2
  -6   3  15 2987.78 1257.27   1
   6  -3  13 1004.23 458.706  -2
   6   3 -14 1004.23 458.706   1
   6   3  12 8955.06 694.523  -2
   6  -3 -13 8955.06 694.523   1
   6  -3  11 2708.53 503.281  -2
   6   3 -12 2708.53 503.281   1
   6  -3  10 760.465 396.402  -2
   6   3 -11 760.465 396.402   1
  -6  -3  -9 7080.12 553.398  -2
  -6   3  10 7080.12 553.398   1
  -6  -3  -8 1504.89 263.179  -2
  -6   3   9 1504.89 263.179   1
   6  -3   7 1005.00 230.935  -2
   6   3  -8 1005.00 230.935   1
  -6  -3  -6 2192.54 284.976  -2
  -6   3   7 2192.54 284.976   1
   6  -3   5 304.986 206.633  -2
   6   3  -6 304.986 206.633   1
   6  -3   4 3170.68 253.019  -2
   6   3  -5 3170.68 253.019   1
  -6  -3  -3 2358.46 220.219  -2
  -6   3   4 2358.46 220.219   1
   6  -3   2 251.065 127.475  -2
   6   3  -3 251.065 127.475   1
   6  -3   1 1664.78 157.999  -2
   6   3  -2 1664.78 157.999   1
  -6   3   0 270.126 103.777  -2
  -6  -3   1 270.126 103.777   1
   6  -3  -1 247.984 109.637  -2
   6   3   0 247.984 109.637   1
  -6   3   2 1869.61 137.095  -2
  -6  -3  -1 1869.61 137.095   1
   6   3  -3 226.369 127.143  -2
   6  -3   2 226.369 127.143   1
   6   3  -4 2154.41 156.058  -2
   6  -3   3 2154.41 156.058   1
  -6   3   5 4190.96 201.758  -2
  -6  -3  -4 4190.96 201.758   1
  -6   3   6 139.431 141.356  -2
  -6  -3  -5 139.431 141.356   1
  -6   3   7 2599.54 166.248  -2
  -6  -3  -6 2599.54 166.248   1
  -6   3   8 941.703 176.334  -2
  -6  -3  -7 941.703 176.334   1
  -6   3   9 1537.27 239.782  -2
  -6  -3  -8 1537.27 239.782   1
  -6   3  10 5795.26 345.985  -2
  -6  -3  -9 5795.26 345.985   1
  -6   3  11 343.189 229.890  -2
  -6  -3 -10 343.189 229.890   1
  -6   3  12 1712.82 271.826  -2
  -6  -3 -11 1712.82 271.826   1
   6  -3 -13 10141.9 492.546  -2
   6   3  12 10141.9 492.546   1
  -6   3  14 542.935 285.585  -2
  -6  -3 -13 542.935 285.585   1
   6   3 -15 3705.16 486.744  -2
   6  -3  14 3705.16 486.744   1
   6  -3 -16 1893.64 555.569  -2
   6   3  15 1893.64 555.569   1
  -6  -4 -15 3019.05 1378.17  -2
  -6   4  16 3019.05 1378.17   1
  -6  -4 -14 4687.42 1510.18  -2
  -6   4  15 4687.42 1510.18   1
   6   4  13 3700.30 601.627  -2
   6  -4 -14 3700.30 601.627   1
   6  -4  12 543.297 453.303  -2
   6   4 -13 543.297 453.303   1
   6  -4  11 906.715 437.669  -2
   6   4 -12 906.715 437.669   1
   6  -4  10 1407.34 423.725  -2
   6   4 -11 1407.34 423.725   1
  -6  -4  -9 2993.96 460.609  -2
  -6   4  10 2993.96 460.609   1
  -6  -4  -8 4067.91 404.264  -2
  -6   4   9 4067.91 404.264   1
   6  -4   7 2939.40 278.765  -2
   6   4  -8 2939.40 278.765   1
   6  -4   6 4801.67 358.417  -2
   6   4  -7 4801.67 358.417   1
  -6  -4  -5 2041.91 257.988  -2
  -6   4   6 2041.91 257.988   1
  -6   4  -4 7917.15 348.339  -2
  -6  -4   5 7917.15 348.339   1
   6  -4   3 9120.71 276.834  -2
   6   4  -4 9120.71 276.834   1
  -6  -4  -2 1204.79 162.080  -2
  -6   4   3 1204.79 162.080   1
  -6  -4  -1 10686.8 317.096  -2
  -6   4   2 10686.8 317.096   1
   6  -4   0 382.921 106.359  -2
   6   4  -1 382.921 106.359   1
   6  -4  -1 288.840 107.341  -2
   6   4   0 288.840 107.341   1
   6  -4  -2 8955.50 231.691  -2
   6   4   1 8955.50 231.691   1
   6   4  -3 1152.87 125.671  -2
   6  -4   2 1152.87 125.671   1
   6  -4  -4 7545.63 203.210  -2
   6   4   3 7545.63 203.210   1
   6   4  -5 9947.08 226.657  -2
   6  -4   4 9947.08 226.657   1
  -6   4   6 2631.41 176.433  -2
  -6  -4  -5 2631.41 176.433   1
  -6   4   7 6381.94 258.640  -2
  -6  -4  -6 6381.94 258.640   1
  -6   4   8 2542.77 341.908  -2
  -6  -4  -7 2542.77 341.908   1
   6   4  -9 3375.93 303.946  -2
   6  -4   8 3375.93 303.946   1
  -6   4  10 2085.92 251.781  -2
  -6  -4  -9 2085.92 251.781   1
  -6   4  11 1007.79 232.017  -2
  -6  -4 -10 1007.79 232.017   1
  -6   4  12 808.187 257.760  -2
  -6  -4 -11 808.187 257.760   1
  -6   4  13 262.038 262.330  -2
  -6  -4 -12 262.038 262.330   1
   6  -4 -14 3623.97 396.645  -2
   6   4  13 3623.97 396.645   1
   6  -4 -15 4398.13 561.951  -2
   6   4  14 4398.13 561.951   1
  -6  -4  16 2986.00 1537.15  -2
  -6   4 -15 2986.00 1537.15   1
  -6  -5 -14 7150.06 1732.60  -2
  -6   5  15 7150.06 1732.60   1
   6   5  13 3655.99 592.550  -2
   6  -5 -14 3655.99 592.550   1
   6   5  12 1106.65 477.990  -2
   6  -5 -13 1106.65 477.990   1
  -6  -5 -11 3308.79 538.129  -2
  -6   5  12 3308.79 538.129   1
   6  -5  10 1426.04 396.173  -2
   6   5 -11 1426.04 396.173   1
  -6  -5  -9 2480.79 396.602  -2
  -6   5  10 2480.79 396.602   1
   6  -5   8 22201.9 821.775  -2
   6   5  -9 22201.9 821.775   1
   6  -5   7 10484.9 541.587  -2
   6   5  -8 10484.9 541.587   1
   6  -5   6 5534.27 314.504  -2
   6   5  -7 5534.27 314.504   1
   6  -5   5 7843.76 364.743  -2
   6   5  -6 7843.76 364.743   1
   6  -5   4 3342.14 256.582  -2
   6   5  -5 3342.14 256.582   1
  -6  -5  -3 2993.05 213.844  -2
  -6   5   4 2993.05 213.844   1
   6  -5   2 12975.8 316.926  -2
   6   5  -3 12975.8 316.926   1
   6  -5   1 2132.80 164.755  -2
   6   5  -2 2132.80 164.755   1
   6  -5   0 20532.8 345.005  -2
   6   5  -1 20532.8 345.005   1
   6  -5  -1 17248.3 343.371  -2
   6   5   0 17248.3 343.371   1
  -6   5   2 2839.43 157.524  -2
  -6  -5  -1 2839.43 157.524   1
   6   5  -3 10535.7 245.009  -2
   6  -5   2 10535.7 245.009   1
  -6   5   4 3551.32 225.431  -2
  -6  -5  -3 3551.32 225.431   1
   6   5  -5 3793.95 233.287  -2
   6  -5   4 3793.95 233.287   1
  -6   5   6 8828.52 323.333  -2
  -6  -5  -5 8828.52 323.333   1
  -6   5   7 5648.94 450.274  -2
  -6  -5  -6 5648.94 450.274   1
  -6   5   8 10486.2 583.929  -2
  -6  -5  -7 10486.2 583.929   1
  -6   5   9 20740.5 707.440  -2
  -6  -5  -8 20740.5 707.440   1
   6   5 -10 2834.02 284.025  -2
   6  -5   9 2834.02 284.025   1
  -6   5  11 1400.37 269.717  -2
  -6  -5 -10 1400.37 269.717   1
  -6   5  12 2765.91 324.065  -2
  -6  -5 -11 2765.91 324.065   1
  -6   5  13 1424.70 296.760  -2
  -6  -5 -12 1424.70 296.760   1
  -6   5  14 1811.34 328.186  -2
  -6  -5 -13 1811.34 328.186   1
  -6  -5  15 5729.55 620.164  -2
  -6   5 -14 5729.55 620.164   1
  -6  -6 -14 1955.35 1326.47  -2
  -6   6  15 1955.35 1326.47   1
  -6  -6 -13 765.499 795.493  -2
  -6   6  14 765.499 795.493   1
   6   6  12 1999.12 596.125  -2
   6  -6 -13 1999.12 596.125   1
  -6  -6 -11 3010.09 520.526  -2
  -6   6  12 3010.09 520.526   1
   6   6  10 1654.19 406.876  -2
   6  -6 -11 1654.19 406.876   1
   6   6   9 5667.88 472.290  -2
   6  -6 -10 5667.88 472.290   1
   6  -6   8 8211.30 489.213  -2
   6   6  -9 8211.30 489.213   1
   6  -6   7 23902.0 829.704  -2
   6   6  -8 23902.0 829.704   1
   6   6   6 10960.8 428.563  -2
   6  -6  -7 10960.8 428.563   1
   6  -6   5 6218.16 296.184  -2
   6   6  -6 6218.16 296.184   1
   6  -6   4 3277.06 198.799  -2
   6   6  -5 3277.06 198.799   1
   6  -6   3 3123.24 206.570  -2
   6   6  -4 3123.24 206.570   1
   6  -6   2 1529.64 161.526  -2
   6   6  -3 1529.64 161.526   1
   6  -6   1 18132.8 344.585  -2
   6   6  -2 18132.8 344.585   1
  -6   6   0 38012.4 503.299  -2
  -6  -6   1 38012.4 503.299   1
   6  -6  -1 45944.7 511.398  -2
   6   6   0 45944.7 511.398   1
  -6   6   2 17152.4 346.773  -2
  -6  -6  -1 17152.4 346.773   1
  -6   6   3 1725.10 191.221  -2
  -6  -6  -2 1725.10 191.221   1
  -6   6   4 2551.79 205.134  -2
  -6  -6  -3 2551.79 205.134   1
  -6   6   5 2675.17 205.093  -2
  -6  -6  -4 2675.17 205.093   1
  -6   6   6 6749.92 342.974  -2
  -6  -6  -5 6749.92 342.974   1
   6  -6  -7 14420.7 499.576  -2
   6   6   6 14420.7 499.576   1
  -6   6   8 20596.9 725.445  -2
  -6  -6  -7 20596.9 725.445   1
  -6   6   9 10251.7 431.499  -2
  -6  -6  -8 10251.7 431.499   1
  -6   6  10 3955.96 349.613  -2
  -6  -6  -9 3955.96 349.613   1
  -6   6  11 1639.11 272.254  -2
  -6  -6 -10 1639.11 272.254   1
  -6   6  12 3694.81 330.439  -2
  -6  -6 -11 3694.81 330.439   1
   6   6 -13 2771.56 360.929  -2
   6  -6  12 2771.56 360.929   1
  -6   6  14 605.727 368.828  -2
  -6  -6 -13 605.727 368.828   1
  -6  -6  15 1954.45 528.766  -2
  -6   6 -14 1954.45 528.766   1
  -6  -7 -13 10281.0 1995.64  -2
  -6   7  14 10281.0 1995.64   1
  -6  -7 -12 1134.50 552.911  -2
  -6   7  13 1134.50 552.911   1
  -6  -7 -11 168.571 440.980  -2
  -6   7  12 168.571 440.980   1
  -6  -7 -10 348.775 363.254  -2
  -6   7  11 348.775 363.254   1
  -6  -7  -9 1975.16 380.047  -2
  -6   7  10 1975.16 380.047   1
  -6  -7  -8 4500.84 430.502  -2
  -6   7   9 4500.84 430.502   1
  -6  -7  -7 17651.3 692.054  -2
  -6   7   8 17651.3 692.054   1
  -6  -7  -6 14401.7 471.035  -2
  -6   7   7 14401.7 471.035   1
   6   7   5 11237.0 413.057  -2
   6  -7  -6 11237.0 413.057   1
  -6  -7  -4 264.789 166.859  -2
  -6   7   5 264.789 166.859   1
   6  -7   3 3789.64 206.683  -2
   6   7  -4 3789.64 206.683   1
  -6   7  -2 1762.84 118.538  -2
  -6  -7   3 1762.84 118.538   1
  -6  -7  -1 9830.11 475.481  -2
  -6   7   2 9830.11 475.481   1
   6  -7   0 25093.0 551.274  -2
   6   7  -1 25093.0 551.274   1
   6  -7  -1 21065.7 431.777  -2
   6   7   0 21065.7 431.777   1
  -6  -7   2 9923.74 292.328  -2
  -6   7  -1 9923.74 292.328   1
  -6   7   3 1980.65 243.988  -2
  -6  -7  -2 1980.65 243.988   1
   6   7  -4 4270.39 236.799  -2
   6  -7   3 4270.39 236.799   1
  -6   7   5 619.351 228.870  -2
  -6  -7  -4 619.351 228.870   1
  -6   7   6 12517.8 464.013  -2
  -6  -7  -5 12517.8 464.013   1
  -6   7   7 13052.4 527.381  -2
  -6  -7  -6 13052.4 527.381   1
   6  -7  -8 18967.6 713.185  -2
   6   7   7 18967.6 713.185   1
  -6   7   9 4116.01 288.301  -2
  -6  -7  -8 4116.01 288.301   1
  -6   7  10 1252.54 246.099  -2
  -6  -7  -9 1252.54 246.099   1
  -6   7  11 228.843 251.966  -2
  -6  -7 -10 228.843 251.966   1
  -6   7  12 505.326 288.771  -2
  -6  -7 -11 505.326 288.771   1
   6   7 -13 702.436 332.688  -2
   6  -7  12 702.436 332.688   1
  -6   7  14 8419.10 835.539  -2
  -6  -7 -13 8419.10 835.539   1
  -6  -7  15 6293.20 1428.98  -2
  -6   7 -14 6293.20 1428.98   1
  -6  -8 -12 3842.89 943.665  -2
  -6   8  13 3842.89 943.665   1
  -6  -8 -11 295.149 431.301  -2
  -6   8  12 295.149 431.301   1
  -6  -8 -10 2562.51 415.907  -2
  -6   8  11 2562.51 415.907   1
  -6  -8  -9 1557.76 389.676  -2
  -6   8  10 1557.76 389.676   1
  -6  -8  -8 3115.94 442.218  -2
  -6   8   9 3115.94 442.218   1
   6   8   7 3415.11 437.027  -2
   6  -8  -8 3415.11 437.027   1
   6   8   6 15889.7 720.799  -2
   6  -8  -7 15889.7 720.799   1
   6   8   5 470.854 308.961  -2
   6  -8  -6 470.854 308.961   1
  -6  -8  -4 1728.13 331.317  -2
  -6   8   5 1728.13 331.317   1
  -6   8  -3 392.711 269.034  -2
  -6  -8   4 392.711 269.034   1
  -6   8  -2 2664.20 334.263  -2
  -6  -8   3 2664.20 334.263   1
  -6   8  -1 2723.86 297.045  -2
  -6  -8   2 2723.86 297.045   1
  -6   8   0 1605.81 287.775  -2
  -6  -8   1 1605.81 287.775   1
  -6  -8   1 1819.66 276.404  -2
  -6   8   0 1819.66 276.404   1
  -6  -8   2 2529.38 261.070  -2
  -6   8  -1 2529.38 261.070   1
  -6   8   3 2900.85 286.143  -2
  -6  -8  -2 2900.85 286.143   1
  -6  -8   4 404.270 224.326  -2
  -6   8  -3 404.270 224.326   1
  -6   8   5 2125.42 277.612  -2
  -6  -8  -4 2125.42 277.612   1
  -6   8   6 526.455 248.704  -2
  -6  -8  -5 526.455 248.704   1
  -6   8   7 14641.6 541.818  -2
  -6  -8  -6 14641.6 541.818   1
  -6   8   8 2688.75 344.895  -2
  -6  -8  -7 2688.75 344.895   1
  -6   8   9 2482.56 263.893  -2
  -6  -8  -8 2482.56 263.893   1
  -6   8  10 1319.20 330.479  -2
  -6  -8  -9 1319.20 330.479   1
  -6   8  11 2211.58 406.289  -2
  -6  -8 -10 2211.58 406.289   1
  -6   8  12 88.4557 359.431  -2
  -6  -8 -11 88.4557 359.431   1
  -6   8  13 2189.61 528.094  -2
  -6  -8 -12 2189.61 528.094   1
  -6   8  14 3994.87 692.386  -2
  -6  -8 -13 3994.87 692.386   1
  -6  -9 -11 1144.86 554.901  -2
  -6   9  12 1144.86 554.901   1
  -6  -9 -10 2054.09 463.856  -2
  -6   9  11 2054.09 463.856   1
  -6  -9  -9 2911.39 464.481  -2
  -6   9  10 2911.39 464.481   1
   6   9   8 185.624 343.983  -2
   6  -9  -9 185.624 343.983   1
   6   9   7 4671.21 489.272  -2
   6  -9  -8 4671.21 489.272   1
   6   9   6 1379.57 332.720  -2
   6  -9  -7 1379.57 332.720   1
   6   9   5 650.355 311.910  -2
   6  -9  -6 650.355 311.910   1
  -6  -9  -4 2877.30 499.435  -2
  -6   9   5 2877.30 499.435   1
  -6  -9  -3 132.614 411.086  -2
  -6   9   4 132.614 411.086   1
  -6  -9  -2 578.334 351.725  -2
  -6   9   3 578.334 351.725   1
  -6   9  -1 7853.59 519.630  -2
  -6  -9   2 7853.59 519.630   1
  -6   9   0 1928.90 401.682  -2
  -6  -9   1 1928.90 401.682   1
  -6   9   1 1436.05 307.147  -2
  -6  -9   0 1436.05 307.147   1
  -6   9   2 8327.71 433.353  -2
  -6  -9  -1 8327.71 433.353   1
  -6   9   3 662.698 218.285  -2
  -6  -9  -2 662.698 218.285   1
  -6   9   4 252.483 236.573  -2
  -6  -9  -3 252.483 236.573   1
  -6   9   5 2831.46 300.530  -2
  -6  -9  -4 2831.46 300.530   1
  -6   9   6 312.301 275.668  -2
  -6  -9  -5 312.301 275.668   1
  -6   9   7 1199.08 294.430  -2
  -6  -9  -6 1199.08 294.430   1
  -6   9   8 5559.81 443.532  -2
  -6  -9  -7 5559.81 443.532   1
  -6   9   9 739.731 349.354  -2
  -6  -9  -8 739.731 349.354   1
  -6   9  10 2563.74 436.812  -2
  -6  -9  -9 2563.74 436.812   1
  -6   9  11 1952.08 429.575  -2
  -6  -9 -10 1952.08 429.575   1
  -6   9  12 1246.31 434.908  -2
  -6  -9 -11 1246.31 434.908   1
  -6   9  13 4725.75 596.812  -2
  -6  -9 -12 4725.75 596.812   1
  -6   9  14 1283.49 904.443  -2
  -6  -9 -13 1283.49 904.443   1
  -6 -10 -10 1778.32 582.154  -2
  -6  10  11 1778.32 582.154   1
  -6 -10  -9 2243.20 511.810  -2
  -6  10  10 2243.20 511.810   1
  -6 -10  -8 2792.05 484.575  -2
  -6  10   9 2792.05 484.575   1
  -6 -10  -7 948.648 382.584  -2
  -6  10   8 948.648 382.584   1
   6  10   6 5449.27 525.587  -2
   6 -10  -7 5449.27 525.587   1
  -6 -10  -5 4671.77 488.343  -2
  -6  10   6 4671.77 488.343   1
  -6 -10  -4 3004.61 436.718  -2
  -6  10   5 3004.61 436.718   1
  -6 -10  -3 7205.75 651.471  -2
  -6  10   4 7205.75 651.471   1
  -6 -10  -2 1652.14 403.030  -2
  -6  10   3 1652.14 403.030   1
  -6  10  -1 5249.90 443.321  -2
  -6 -10   2 5249.90 443.321   1
  -6  10   0 2675.87 358.403  -2
  -6 -10   1 2675.87 358.403   1
  -6  10   1 2985.88 334.884  -2
  -6 -10   0 2985.88 334.884   1
  -6  10   2 3785.42 346.081  -2
  -6 -10  -1 3785.42 346.081   1
  -6  10   3 1745.52 301.731  -2
  -6 -10  -2 1745.52 301.731   1
  -6  10   4 5696.89 397.769  -2
  -6 -10  -3 5696.89 397.769   1
  -6  10   5 2953.72 323.857  -2
  -6 -10  -4 2953.72 323.857   1
  -6  10   6 3803.69 361.414  -2
  -6 -10  -5 3803.69 361.414   1
  -6  10   7 7464.62 601.618  -2
  -6 -10  -6 7464.62 601.618   1
  -6  10   8 857.425 335.512  -2
  -6 -10  -7 857.425 335.512   1
  -6  10   9 3561.96 494.784  -2
  -6 -10  -8 3561.96 494.784   1
  -6  10  10 1621.01 416.244  -2
  -6 -10  -9 1621.01 416.244   1
  -6  10  11 1787.14 466.454  -2
  -6 -10 -10 1787.14 466.454   1
  -6  10  12 2791.96 617.375  -2
  -6 -10 -11 2791.96 617.375   1
  -6  10  13 482.220 903.326  -2
  -6 -10 -12 482.220 903.326   1
  -6 -11  -9 2514.52 589.969  -2
  -6  11  10 2514.52 589.969   1
   6  11   8 11420.9 805.440  -2
   6 -11  -9 11420.9 805.440   1
   6  11   7 3047.59 475.279  -2
   6 -11  -8 3047.59 475.279   1
   6  11   6 2297.49 475.209  -2
   6 -11  -7 2297.49 475.209   1
   6  11   5 4534.56 486.655  -2
   6 -11  -6 4534.56 486.655   1
   6 -11   4 3135.95 500.174  -2
   6  11  -5 3135.95 500.174   1
  -6 -11  -3 4736.23 500.167  -2
  -6  11   4 4736.23 500.167   1
  -6 -11  -2 12551.1 744.505  -2
  -6  11   3 12551.1 744.505   1
  -6 -11  -1 1637.82 381.496  -2
  -6  11   2 1637.82 381.496   1
  -6 -11   0 6626.95 509.699  -2
  -6  11   1 6626.95 509.699   1
  -6  11   1 6372.08 433.192  -2
  -6 -11   0 6372.08 433.192   1
  -6  11   2 2021.92 283.937  -2
  -6 -11  -1 2021.92 283.937   1
  -6  11   3 9594.53 430.894  -2
  -6 -11  -2 9594.53 430.894   1
  -6  11   4 5545.30 431.715  -2
  -6 -11  -3 5545.30 431.715   1
  -6  11   5 3271.15 385.877  -2
  -6 -11  -4 3271.15 385.877   1
  -6 -11   6 5505.02 441.257  -2
  -6  11  -5 5505.02 441.257   1
  -6  11   7 2047.90 357.460  -2
  -6 -11  -6 2047.90 357.460   1
  -6  11   8 3801.16 471.229  -2
  -6 -11  -7 3801.16 471.229   1
  -6  11   9 8823.73 645.188  -2
  -6 -11  -8 8823.73 645.188   1
  -6  11  10 3507.68 534.743  -2
  -6 -11  -9 3507.68 534.743   1
  -6  11  11 2016.38 542.373  -2
  -6 -11 -10 2016.38 542.373   1
   6  12   8 5617.18 675.368  -2
   6 -12  -9 5617.18 675.368   1
  -6 -12  -7 10211.9 825.310  -2
  -6  12   8 10211.9 825.310   1
   6  12   6 2165.03 480.185  -2
   6 -12  -7 2165.03 480.185   1
   6  12   5 3660.80 496.599  -2
   6 -12  -6 3660.80 496.599   1
  -6 -12  -4 3252.88 435.333  -2
  -6  12   5 3252.88 435.333   1
  -6 -12  -3 568.075 398.248  -2
  -6  12   4 568.075 398.248   1
  -6 -12  -2 2875.89 428.963  -2
  -6  12   3 2875.89 428.963   1
  -6 -12  -1 12924.3 718.462  -2
  -6  12   2 12924.3 718.462   1
  -6 -12   0 8788.10 598.242  -2
  -6  12   1 8788.10 598.242   1
   6 -12  -1 10818.4 657.033  -2
   6  12   0 10818.4 657.033   1
  -6  12   2 10844.0 600.146  -2
  -6 -12  -1 10844.0 600.146   1
  -6 -12   3 3196.98 352.312  -2
  -6  12  -2 3196.98 352.312   1
  -6 -12   4 774.285 319.870  -2
  -6  12  -3 774.285 319.870   1
  -6  12   5 2832.44 369.339  -2
  -6 -12  -4 2832.44 369.339   1
  -6  12   6 5008.46 419.262  -2
  -6 -12  -5 5008.46 419.262   1
  -6  12   7 2589.30 376.889  -2
  -6 -12  -6 2589.30 376.889   1
  -6  12   8 9852.35 637.372  -2
  -6 -12  -7 9852.35 637.372   1
  -6  12   9 5976.63 554.845  -2
  -6 -12  -8 5976.63 554.845   1
  -6  12  10 5704.61 702.528  -2
  -6 -12  -9 5704.61 702.528   1
   6  13   7 5812.15 703.161  -2
   6 -13  -8 5812.15 703.161   1
   6  13   6 4896.33 725.657  -2
   6 -13  -7 4896.33 725.657   1
   6  13   5 11149.2 777.519  -2
   6 -13  -6 11149.2 777.519   1
  -6 -13  -4 1857.39 509.725  -2
  -6  13   5 1857.39 509.725   1
  -6 -13  -3 1214.88 481.605  -2
  -6  13   4 1214.88 481.605   1
  -6 -13  -2 5337.74 546.970  -2
  -6  13   3 5337.74 546.970   1
  -6 -13  -1 10143.8 723.398  -2
  -6  13   2 10143.8 723.398   1
  -6 -13   0 8428.56 568.373  -2
  -6  13   1 8428.56 568.373   1
  -6  13   1 7056.77 537.174  -2
  -6 -13   0 7056.77 537.174   1
  -6  13   2 8139.32 555.071  -2
  -6 -13  -1 8139.32 555.071   1
  -6 -13   3 5132.13 477.282  -2
  -6  13  -2 5132.13 477.282   1
  -6  13   4 1249.38 363.478  -2
  -6 -13  -3 1249.38 363.478   1
  -6  13   5 2840.20 364.499  -2
  -6 -13  -4 2840.20 364.499   1
  -6  13   6 9659.99 546.184  -2
  -6 -13  -5 9659.99 546.184   1
  -6  13   7 5698.14 477.196  -2
  -6 -13  -6 5698.14 477.196   1
  -6  13   8 5541.44 570.065  -2
  -6 -13  -7 5541.44 570.065   1
  -6 -13   9 986.398 578.870  -2
  -6  13  -8 986.398 578.870   1
  -6  13  10 1097.47 1122.11  -2
  -6 -13  -9 1097.47 1122.11   1
   6  14   6 13186.3 2229.55  -2
   6 -14  -7 13186.3 2229.55   1
   6  14   5 1622.55 498.765  -2
   6 -14  -6 1622.55 498.765   1
  -6 -14  -4 572.905 570.306  -2
  -6  14   5 572.905 570.306   1
  -6 -14  -3 924.940 613.110  -2
  -6  14   4 924.940 613.110   1
  -6 -14  -2 3887.90 561.100  -2
  -6  14   3 3887.90 561.100   1
  -6 -14  -1 1359.87 451.245  -2
  -6  14   2 1359.87 451.245   1
  -6 -14   0 238.482 382.513  -2
  -6  14   1 238.482 382.513   1
  -6  14   1 279.341 375.063  -2
  -6 -14   0 279.341 375.063   1
  -6  14   2 1396.56 382.145  -2
  -6 -14  -1 1396.56 382.145   1
  -6  14   3 3676.80 489.915  -2
  -6 -14  -2 3676.80 489.915   1
  -6  14   4 579.384 356.696  -2
  -6 -14  -3 579.384 356.696   1
  -6  14   5 83.7564 365.942  -2
  -6 -14  -4 83.7564 365.942   1
  -6 -14   6 2129.54 401.556  -2
  -6  14  -5 2129.54 401.556   1
  -6 -14   7 9638.81 827.171  -2
  -6  14  -6 9638.81 827.171   1
  -6 -14   8 594.572 473.422  -2
  -6  14  -7 594.572 473.422   1
  -6  14   9 671.879 648.138  -2
  -6 -14  -8 671.879 648.138   1
  -6 -15  -4 1117.12 974.223  -2
  -6  15   5 1117.12 974.223   1
   6 -15   3 1371.85 803.985  -2
   6  15  -4 1371.85 803.985   1
   6 -15   2 2551.79 642.840  -2
   6  15  -3 2551.79 642.840   1
  -6 -15  -1 3950.25 770.416  -2
  -6  15   2 3950.25 770.416   1
  -6  15   0 2469.71 582.190  -2
  -6 -15   1 2469.71 582.190   1
  -6  15   1 2390.33 421.599  -2
  -6 -15   0 2390.33 421.599   1
  -6  15   2 4517.39 523.926  -2
  -6 -15  -1 4517.39 523.926   1
  -6  15   3 1947.17 382.198  -2
  -6 -15  -2 1947.17 382.198   1
  -6 -15   4 1322.94 460.629  -2
  -6  15  -3 1322.94 460.629   1
  -6  15   5 2325.42 728.189  -2
  -6 -15  -4 2325.42 728.189   1
  -6  15   6 299.860 494.788  -2
  -6 -15  -5 299.860 494.788   1
  -6 -15   7 225.804 531.307  -2
  -6  15  -6 225.804 531.307   1
  -6  15   8 4083.47 1363.55  -2
  -6 -15  -7 4083.47 1363.55   1
  -6 -16  -2 989.067 1213.29  -2
  -6  16   3 989.067 1213.29   1
  -6 -16  -1 1932.45 1255.35  -2
  -6  16   2 1932.45 1255.35   1
  -6 -16   0 2165.92 1202.54  -2
  -6  16   1 2165.92 1202.54   1
  -6 -16   1 3887.73 1328.26  -2
  -6  16   0 3887.73 1328.26   1
  -6 -16   2 1964.74 1115.72  -2
  -6  16  -1 1964.74 1115.72   1
  -6 -16   4 2869.22 1083.93  -2
  -6  16  -3 2869.22 1083.93   1
  -6 -16   5 970.415 928.624  -2
  -6  16  -4 970.415 928.624   1
  -6 -16   6 2864.45 1171.28  -2
  -6  16  -5 2864.45 1171.28   1
  -6 -17   0 4202.09 1430.59  -2
  -6  17   1 4202.09 1430.59   1
  -7   0  14 4040.70 1445.95   1
   7   0 -12 827.217 717.229   1
   7   0 -10 861.520 385.799   1
   7   0  -8 6250.77 417.703   1
  -7   0   6 441.727 322.282   1
  -7   0   4 438.961 280.588   1
   7   0  -2 688.690 250.506   1
   7   0   0 126.485 240.321   1
  -7   0  -2 280.154 262.291   1
  -7   0  -4 453.265 302.243   1
  -7   0  -6 5779.51 459.360   1
  -7   0  -8 9234.20 550.091   1
  -7   0 -10 531.019 474.018   1
   7   0  12 304.702 546.096   1
  -7  -1 -14 1333.99 1166.74  -2
  -7   1  15 1333.99 1166.74   1
  -7  -1 -13 3930.69 906.290  -2
  -7   1  14 3930.69 906.290   1
   7  -1  12 6413.68 602.830  -2
   7   1 -13 6413.68 602.830   1
  -7  -1 -11 2101.99 534.582  -2
  -7   1  12 2101.99 534.582   1
   7  -1  10 1198.90 487.541  -2
   7   1 -11 1198.90 487.541   1
   7   1   9 2614.89 366.882  -2
   7  -1 -10 2614.89 366.882   1
   7   1  -9 437.726 332.123   1
   7  -1   8 3242.43 330.508  -2
   7   1  -9 3242.43 330.508   1
  -7  -1  -7 3669.91 280.573  -2
  -7   1   8 3669.91 280.573   1
  -7  -1  -6 4861.91 302.037  -2
  -7   1   7 4861.91 302.037   1
  -7  -1  -5 2720.57 247.671  -2
  -7   1   6 2720.57 247.671   1
  -7  -1  -4 1133.68 215.851  -2
  -7   1   5 1133.68 215.851   1
  -7   1  -3 786.740 202.533  -2
  -7  -1   4 786.740 202.533   1
  -7   1  -2 541.042 196.826  -2
  -7  -1   3 541.042 196.826   1
  -7   1  -1 3467.85 253.488  -2
  -7  -1   2 3467.85 253.488   1
  -7  -1   1 99.5796 81.5552   1
  -7   1   0 13247.8 382.743  -2
  -7  -1   1 13247.8 382.743   1
  -7   1   1 15359.3 437.591  -2
  -7  -1   0 15359.3 437.591   1
  -7   1   2 3362.81 230.132  -2
  -7  -1  -1 3362.81 230.132   1
   7   1  -3 427.861 184.116  -2
   7  -1   2 427.861 184.116   1
   7   1  -4 669.895 200.138  -2
   7  -1   3 669.895 200.138   1
   7   1  -5 901.625 220.953  -2
   7  -1   4 901.625 220.953   1
  -7   1   6 2457.45 282.426  -2
  -7  -1  -5 2457.45 282.426   1
  -7   1   7 5011.72 349.003  -2
  -7  -1  -6 5011.72 349.003   1
  -7  -1   8 3100.15 311.783  -2
  -7   1  -7 3100.15 311.783   1
  -7  -1   9 4333.51 417.884  -2
  -7   1  -8 4333.51 417.884   1
  -7   1  10 3304.08 397.861  -2
  -7  -1  -9 3304.08 397.861   1
   7  -1 -11 1944.25 376.083  -2
   7   1  10 1944.25 376.083   1
   7  -1 -12 2126.28 398.173  -2
   7   1  11 2126.28 398.173   1
  -7   1  13 4358.97 476.819  -2
  -7  -1 -12 4358.97 476.819   1
   7   1 -14 1781.77 418.001  -2
   7  -1  13 1781.77 418.001   1
  -7  -2 -14 3031.64 1331.61  -2
  -7   2  15 3031.64 1331.61   1
  -7  -2 -13 4728.78 1359.46  -2
  -7   2  14 4728.78 1359.46   1
  -7  -2 -12 6842.84 617.640  -2
  -7   2  13 6842.84 617.640   1
   7  -2  11 6015.96 655.442  -2
   7   2 -12 6015.96 655.442   1
   7  -2  10 5947.98 496.648  -2
   7   2 -11 5947.98 496.648   1
   7  -2   9 6612.32 496.672  -2
   7   2 -10 6612.32 496.672   1
  -7  -2  -8 403.930 277.100  -2
  -7   2   9 403.930 277.100   1
  -7  -2  -7 5711.27 315.062  -2
  -7   2   8 5711.27 315.062   1
  -7  -2  -6 16613.2 459.013  -2
  -7   2   7 16613.2 459.013   1
   7  -2   5 2951.56 255.686  -2
   7   2  -6 2951.56 255.686   1
   7  -2   4 12356.2 400.747  -2
   7   2  -5 12356.2 400.747   1
   7  -2   3 4575.63 278.625  -2
   7   2  -4 4575.63 278.625   1
   7  -2   2 1342.79 213.919  -2
   7   2  -3 1342.79 213.919   1
  -7   2  -1 17315.3 425.684  -2
  -7  -2   2 17315.3 425.684   1
  -7   2   0 3869.86 205.227  -2
  -7  -2   1 3869.86 205.227   1
  -7  -2   0 369.676 210.527   1
  -7   2   1 3414.93 225.092  -2
  -7  -2   0 3414.93 225.092   1
  -7   2   2 20444.6 482.961  -2
  -7  -2  -1 20444.6 482.961   1
  -7   2   3 1724.22 210.139  -2
  -7  -2  -2 1724.22 210.139   1
  -7   2   4 5508.42 312.578  -2
  -7  -2  -3 5508.42 312.578   1
  -7   2   5 11288.1 448.874  -2
  -7  -2  -4 11288.1 448.874   1
   7   2  -6 2959.70 292.441  -2
   7  -2   5 2959.70 292.441   1
  -7  -2   7 14206.0 489.476  -2
  -7   2  -6 14206.0 489.476   1
   7   2  -8 6724.92 471.393  -2
   7  -2   7 6724.92 471.393   1
  -7   2   9 364.283 312.300  -2
  -7  -2  -8 364.283 312.300   1
   7  -2 -10 7530.56 515.913  -2
   7   2   9 7530.56 515.913   1
  -7   2  11 7840.99 479.780  -2
  -7  -2 -10 7840.99 479.780   1
  -7   2  12 6118.21 509.917  -2
  -7  -2 -11 6118.21 509.917   1
  -7   2  13 4937.10 454.463  -2
  -7  -2 -12 4937.10 454.463   1
  -7   2  14 2213.70 458.839  -2
  -7  -2 -13 2213.70 458.839   1
  -7   2  15 2915.43 1076.21  -2
  -7  -2 -14 2915.43 1076.21   1
  -7  -3 -14 600.382 1373.72  -2
  -7   3  15 600.382 1373.72   1
  -7  -3 -13 6942.77 1498.51  -2
  -7   3  14 6942.77 1498.51   1
   7  -3  12 453.498 491.412  -2
   7   3 -13 453.498 491.412   1
   7  -3  11 4436.17 558.249  -2
   7   3 -12 4436.17 558.249   1
   7  -3  10 4513.15 466.391  -2
   7   3 -11 4513.15 466.391   1
  -7  -3  -9 457.438 348.320  -2
  -7   3  10 457.438 348.320   1
  -7  -3  -8 8493.31 436.799  -2
  -7   3   9 8493.31 436.799   1
   7  -3   7 1969.02 247.516  -2
   7   3  -8 1969.02 247.516   1
   7  -3   6 525.340 219.587  -2
   7   3  -7 525.340 219.587   1
   7  -3   5 28621.4 567.303  -2
   7   3  -6 28621.4 567.303   1
   7  -3   4 3239.91 257.156  -2
   7   3  -5 3239.91 257.156   1
   7  -3   3 13895.5 405.157  -2
   7   3  -4 13895.5 405.157   1
   7  -3   2 37198.8 496.103  -2
   7   3  -3 37198.8 496.103   1
   7  -3   1 3596.19 213.991  -2
   7   3  -2 3596.19 213.991   1
  -7   3   0 3624.06 197.913  -2
  -7  -3   1 3624.06 197.913   1
  -7  -3   0 4564.71 375.287   1
  -7   3   1 4488.47 249.924  -2
  -7  -3   0 4488.47 249.924   1
  -7   3   2 3072.26 202.141  -2
  -7  -3  -1 3072.26 202.141   1
  -7   3   3 46232.3 581.542  -2
  -7  -3  -2 46232.3 581.542   1
  -7  -3   4 12720.1 409.343  -2
  -7   3  -3 12720.1 409.343   1
  -7   3   5 3941.72 266.199  -2
  -7  -3  -4 3941.72 266.199   1
   7  -3  -6 24580.6 516.945  -2
   7   3   5 24580.6 516.945   1
   7   3  -7 704.802 309.071  -2
   7  -3   6 704.802 309.071   1
   7  -3  -8 1962.66 354.247  -2
   7   3   7 1962.66 354.247   1
   7   3  -9 9483.39 496.279  -2
   7  -3   8 9483.39 496.279   1
  -7   3  10 596.772 300.785  -2
  -7  -3  -9 596.772 300.785   1
  -7   3  11 5547.25 395.302  -2
  -7  -3 -10 5547.25 395.302   1
  -7   3  12 3550.07 397.696  -2
  -7  -3 -11 3550.07 397.696   1
  -7   3  13 637.940 349.343  -2
  -7  -3 -12 637.940 349.343   1
   7  -3 -14 4324.08 520.268  -2
   7   3  13 4324.08 520.268   1
  -7   3  15 1750.94 966.080  -2
  -7  -3 -14 1750.94 966.080   1
  -7  -4 -13 2607.55 1300.48  -2
  -7   4  14 2607.55 1300.48   1
   7  -4  12 4258.84 726.309  -2
   7   4 -13 4258.84 726.309   1
   7  -4  11 8480.80 587.985  -2
   7   4 -12 8480.80 587.985   1
  -7  -4 -10 4991.49 456.717  -2
  -7   4  11 4991.49 456.717   1
   7  -4   9 9652.30 572.637  -2
   7   4 -10 9652.30 572.637   1
   7  -4   8 705.377 287.807  -2
   7   4  -9 705.377 287.807   1
   7  -4   7 5628.61 366.108  -2
   7   4  -8 5628.61 366.108   1
   7  -4   6 5181.21 305.044  -2
   7   4  -7 5181.21 305.044   1
   7  -4   5 2660.19 256.843  -2
   7   4  -6 2660.19 256.843   1
   7  -4   4 16100.3 447.207  -2
   7   4  -5 16100.3 447.207   1
   7  -4   3 11825.5 378.437  -2
   7   4  -4 11825.5 378.437   1
   7  -4   2 458.256 163.656  -2
   7   4  -3 458.256 163.656   1
  -7  -4  -1 17244.1 361.158  -2
  -7   4   2 17244.1 361.158   1
   7  -4   0 802.030 148.097  -2
   7   4  -1 802.030 148.097   1
  -7  -4   0 865.563 252.343   1
   7  -4  -1 896.943 172.055  -2
   7   4   0 896.943 172.055   1
  -7   4   2 20172.8 356.759  -2
  -7  -4  -1 20172.8 356.759   1
  -7   4   3 559.535 145.063  -2
  -7  -4  -2 559.535 145.063   1
   7  -4  -4 12873.8 337.741  -2
   7   4   3 12873.8 337.741   1
   7  -4  -5 13183.8 449.775  -2
   7   4   4 13183.8 449.775   1
   7  -4  -6 2674.64 362.533  -2
   7   4   5 2674.64 362.533   1
  -7   4   7 4639.73 413.271  -2
  -7  -4  -6 4639.73 413.271   1
   7   4  -8 6144.87 424.198  -2
   7  -4   7 6144.87 424.198   1
  -7   4   9 477.457 302.742  -2
  -7  -4  -8 477.457 302.742   1
  -7   4  10 11947.3 502.711  -2
  -7  -4  -9 11947.3 502.711   1
  -7   4  11 5688.79 402.063  -2
  -7  -4 -10 5688.79 402.063   1
   7  -4 -12 6879.29 433.725  -2
   7   4  11 6879.29 433.725   1
  -7   4  13 3515.42 443.357  -2
  -7  -4 -12 3515.42 443.357   1
  -7   4  14 1147.41 491.045  -2
  -7  -4 -13 1147.41 491.045   1
  -7  -5 -12 7187.78 838.461  -2
  -7   5  13 7187.78 838.461   1
   7  -5  11 3370.53 477.384  -2
   7   5 -12 3370.53 477.384   1
   7  -5  10 3137.37 421.903  -2
   7   5 -11 3137.37 421.903   1
  -7  -5  -9 3532.41 430.431  -2
  -7   5  10 3532.41 430.431   1
   7  -5   8 4647.90 386.322  -2
   7   5  -9 4647.90 386.322   1
   7  -5   7 698.429 262.381  -2
   7   5  -8 698.429 262.381   1
   7  -5   6 1966.64 240.245  -2
   7   5  -7 1966.64 240.245   1
   7  -5   5 2237.27 244.679  -2
   7   5  -6 2237.27 244.679   1
   7  -5   4 8109.17 334.250  -2
   7   5  -5 8109.17 334.250   1
   7  -5   3 782.832 193.511  -2
   7   5  -4 782.832 193.511   1
   7  -5   2 530.835 179.745  -2
   7   5  -3 530.835 179.745   1
   7  -5   1 406.350 149.691  -2
   7   5  -2 406.350 149.691   1
   7  -5   0 9428.36 286.602  -2
   7   5  -1 9428.36 286.602   1
  -7   5   1 11242.8 306.185  -2
  -7  -5   0 11242.8 306.185   1
   7  -5  -2 516.175 154.096  -2
   7   5   1 516.175 154.096   1
   7  -5  -3 474.197 141.651  -2
   7   5   2 474.197 141.651   1
  -7   5   4 766.483 265.973  -2
  -7  -5  -3 766.483 265.973   1
  -7   5   5 7605.78 430.231  -2
  -7  -5  -4 7605.78 430.231   1
  -7   5   6 1875.00 281.612  -2
  -7  -5  -5 1875.00 281.612   1
  -7   5   7 1918.94 313.733  -2
  -7  -5  -6 1918.94 313.733   1
  -7   5   8 883.088 327.634  -2
  -7  -5  -7 883.088 327.634   1
   7   5  -9 5384.23 431.531  -2
   7  -5   8 5384.23 431.531   1
   7  -5 -10 4106.80 365.338  -2
   7   5   9 4106.80 365.338   1
  -7   5  11 2164.55 324.480  -2
  -7  -5 -10 2164.55 324.480   1
  -7   5  12 3300.01 335.839  -2
  -7  -5 -11 3300.01 335.839   1
   7  -5 -13 5792.97 477.563  -2
   7   5  12 5792.97 477.563   1
  -7  -5  14 1139.09 754.246  -2
  -7   5 -13 1139.09 754.246   1
  -7  -6  13 343.564 761.379   1
  -7  -6 -12 1634.42 1365.43  -2
  -7   6  13 1634.42 1365.43   1
  -7  -6 -11 1098.28 437.670  -2
  -7   6  12 1098.28 437.670   1
  -7  -6 -10 558.596 379.350  -2
  -7   6  11 558.596 379.350   1
   7  -6   9 1597.48 368.454  -2
   7   6 -10 1597.48 368.454   1
   7  -6   8 5560.00 466.496  -2
   7   6  -9 5560.00 466.496   1
   7  -6   7 4737.84 433.915  -2
   7   6  -8 4737.84 433.915   1
   7  -6   6 2069.61 238.470  -2
   7   6  -7 2069.61 238.470   1
   7  -6   5 1585.73 227.927  -2
   7   6  -6 1585.73 227.927   1
   7   6   4 1192.14 206.378  -2
   7  -6  -5 1192.14 206.378   1
   7  -6   3 3524.44 242.298  -2
   7   6  -4 3524.44 242.298   1
  -7  -6  -2 1979.95 207.807  -2
  -7   6   3 1979.95 207.807   1
   7  -6   1 376.139 164.062  -2
   7   6  -2 376.139 164.062   1
   7  -6   0 531.649 204.465  -2
   7   6  -1 531.649 204.465   1
   7  -6  -1 599.703 172.024  -2
   7   6   0 599.703 172.024   1
   7  -6  -2 300.202 178.135  -2
   7   6   1 300.202 178.135   1
  -7   6   3 1829.62 282.155  -2
  -7  -6  -2 1829.62 282.155   1
  -7   6   4 3937.93 352.017  -2
  -7  -6  -3 3937.93 352.017   1
  -7   6   5 1170.61 253.547  -2
  -7  -6  -4 1170.61 253.547   1
  -7   6   6 1352.22 276.467  -2
  -7  -6  -5 1352.22 276.467   1
  -7   6   7 2233.13 310.028  -2
  -7  -6  -6 2233.13 310.028   1
  -7   6   8 3420.07 371.186  -2
  -7  -6  -7 3420.07 371.186   1
  -7   6   9 4707.36 423.146  -2
  -7  -6  -8 4707.36 423.146   1
   7   6 -10 1856.59 287.507  -2
   7  -6   9 1856.59 287.507   1
  -7   6  11 677.979 287.569  -2
  -7  -6 -10 677.979 287.569   1
   7   6 -12 945.655 325.886  -2
   7  -6  11 945.655 325.886   1
   7   6 -13 762.141 486.722  -2
   7  -6  12 762.141 486.722   1
   7   6 -14 2416.37 1085.96  -2
   7  -6  13 2416.37 1085.96   1
   7  -7  11 1284.21 797.623  -2
   7   7 -12 1284.21 797.623   1
  -7  -7 -10 3453.69 470.075  -2
  -7   7  11 3453.69 470.075   1
  -7  -7  -9 2354.02 394.694  -2
  -7   7  10 2354.02 394.694   1
  -7  -7  -8 5845.74 460.095  -2
  -7   7   9 5845.74 460.095   1
  -7  -7  -7 6061.63 479.285  -2
  -7   7   8 6061.63 479.285   1
   7   7   6 3009.90 377.284  -2
   7  -7  -7 3009.90 377.284   1
   7   7   5 1618.88 317.282  -2
   7  -7  -6 1618.88 317.282   1
   7   7   4 671.979 258.363  -2
   7  -7  -5 671.979 258.363   1
   7   7   3 439.969 245.419  -2
   7  -7  -4 439.969 245.419   1
  -7   7  -2 2452.25 274.352  -2
  -7  -7   3 2452.25 274.352   1
  -7   7  -1 5229.93 312.692  -2
  -7  -7   2 5229.93 312.692   1
  -7   7   0 8431.56 408.085  -2
  -7  -7   1 8431.56 408.085   1
  -7   7   1 9983.72 392.737  -2
  -7  -7   0 9983.72 392.737   1
  -7   7   2 4408.12 347.914  -2
  -7  -7  -1 4408.12 347.914   1
  -7   7   3 2849.14 331.115  -2
  -7  -7  -2 2849.14 331.115   1
  -7   7   4 603.717 254.377  -2
  -7  -7  -3 603.717 254.377   1
  -7   7   5 1072.11 266.356  -2
  -7  -7  -4 1072.11 266.356   1
  -7   7   6 1313.73 280.166  -2
  -7  -7  -5 1313.73 280.166   1
  -7   7   7 2520.74 328.984  -2
  -7  -7  -6 2520.74 328.984   1
  -7   7   8 6234.36 449.742  -2
  -7  -7  -7 6234.36 449.742   1
   7  -7  -9 5863.49 452.679  -2
   7   7   8 5863.49 452.679   1
  -7   7  10 2195.90 327.117  -2
  -7  -7  -9 2195.90 327.117   1
   7   7 -11 4017.64 403.552  -2
   7  -7  10 4017.64 403.552   1
  -7   7  12 1006.27 451.472  -2
  -7  -7 -11 1006.27 451.472   1
  -7   7  13 1601.93 530.633  -2
  -7  -7 -12 1601.93 530.633   1
   7  -8  11 3098.69 1121.75  -2
   7   8 -12 3098.69 1121.75   1
  -7  -8 -10 2847.14 476.046  -2
  -7   8  11 2847.14 476.046   1
  -7  -8  -9 3860.80 483.914  -2
  -7   8  10 3860.80 483.914   1
  -7  -8  -8 1336.93 406.229  -2
  -7   8   9 1336.93 406.229   1
  -7  -8  -7 3297.46 447.711  -2
  -7   8   8 3297.46 447.711   1
   7   8   6 16438.1 698.639  -2
   7  -8  -7 16438.1 698.639   1
  -7  -8  -5 2837.69 431.428  -2
  -7   8   6 2837.69 431.428   1
   7   8   4 4386.80 413.006  -2
   7  -8  -5 4386.80 413.006   1
  -7   8  -3 1850.60 348.955  -2
  -7  -8   4 1850.60 348.955   1
  -7   8  -2 3636.10 343.221  -2
  -7  -8   3 3636.10 343.221   1
  -7   8  -1 8974.35 436.378  -2
  -7  -8   2 8974.35 436.378   1
  -7  -8   0 9295.65 557.899  -2
  -7   8   1 9295.65 557.899   1
  -7   8   1 8175.91 532.048  -2
  -7  -8   0 8175.91 532.048   1
   7  -8  -2 10705.8 480.960  -2
   7   8   1 10705.8 480.960   1
   7  -8  -3 3268.53 351.372  -2
   7   8   2 3268.53 351.372   1
   7  -8  -4 3080.74 322.933  -2
   7   8   3 3080.74 322.933   1
  -7   8   5 3206.83 338.611  -2
  -7  -8  -4 3206.83 338.611   1
  -7   8   6 3036.70 337.278  -2
  -7  -8  -5 3036.70 337.278   1
  -7   8   7 14356.1 570.510  -2
  -7  -8  -6 14356.1 570.510   1
  -7   8   8 4082.31 404.312  -2
  -7  -8  -7 4082.31 404.312   1
  -7   8   9 1035.95 333.853  -2
  -7  -8  -8 1035.95 333.853   1
  -7   8  10 4499.32 478.897  -2
  -7  -8  -9 4499.32 478.897   1
  -7   8  11 2689.95 540.820  -2
  -7  -8 -10 2689.95 540.820   1
  -7   8  12 3678.61 549.119  -2
  -7  -8 -11 3678.61 549.119   1
  -7   8  13 3125.99 620.737  -2
  -7  -8 -12 3125.99 620.737   1
   7  -9  11 1965.19 1025.90  -2
   7   9 -12 1965.19 1025.90   1
  -7  -9 -10 2581.50 778.305  -2
  -7   9  11 2581.50 778.305   1
   7  -9   9 1259.63 420.634  -2
   7   9 -10 1259.63 420.634   1
  -7  -9  -8 3010.60 447.115  -2
  -7   9   9 3010.60 447.115   1
   7   9   7 6755.51 538.835  -2
   7  -9  -8 6755.51 538.835   1
  -7  -9  -6 1361.20 386.076  -2
  -7   9   7 1361.20 386.076   1
  -7  -9  -5 18966.5 721.778  -2
  -7   9   6 18966.5 721.778   1
   7   9   4 3327.29 427.203  -2
   7  -9  -5 3327.29 427.203   1
  -7   9  -3 6305.13 468.380  -2
  -7  -9   4 6305.13 468.380   1
  -7   9  -2 16126.0 816.085  -2
  -7  -9   3 16126.0 816.085   1
  -7   9  -1 2241.33 447.390  -2
  -7  -9   2 2241.33 447.390   1
  -7   9   0 5291.77 542.387  -2
  -7  -9   1 5291.77 542.387   1
  -7  -9   1 4640.93 462.715  -2
  -7   9   0 4640.93 462.715   1
  -7   9   2 2297.81 323.931  -2
  -7  -9  -1 2297.81 323.931   1
   7  -9  -3 17657.3 580.038  -2
   7   9   2 17657.3 580.038   1
  -7   9   4 6678.87 417.883  -2
  -7  -9  -3 6678.87 417.883   1
   7  -9  -5 4232.48 380.113  -2
   7   9   4 4232.48 380.113   1
  -7   9   6 16734.4 600.276  -2
  -7  -9  -5 16734.4 600.276   1
  -7   9   7 1024.58 349.397  -2
  -7  -9  -6 1024.58 349.397   1
  -7   9   8 6595.73 601.308  -2
  -7  -9  -7 6595.73 601.308   1
  -7   9   9 3182.65 480.443  -2
  -7  -9  -8 3182.65 480.443   1
  -7   9  10 517.208 423.578  -2
  -7  -9  -9 517.208 423.578   1
  -7   9  11 4214.96 647.846  -2
  -7  -9 -10 4214.96 647.846   1
  -7   9  12 2702.27 628.913  -2
  -7  -9 -11 2702.27 628.913   1
  -7 -10  -9 6324.63 1353.12  -2
  -7  10  10 6324.63 1353.12   1
  -7 -10  -8 1765.50 497.958  -2
  -7  10   9 1765.50 497.958   1
   7  10   7 2498.09 492.890  -2
   7 -10  -8 2498.09 492.890   1
   7  10   6 1851.47 469.948  -2
   7 -10  -7 1851.47 469.948   1
   7  10   5 963.934 447.011  -2
   7 -10  -6 963.934 447.011   1
   7  10   4 10967.1 717.192  -2
   7 -10  -5 10967.1 717.192   1
  -7 -10  -3 14784.0 861.601  -2
  -7  10   4 14784.0 861.601   1
  -7  10  -2 502.923 434.332  -2
  -7 -10   3 502.923 434.332   1
  -7  10  -1 8783.40 649.326  -2
  -7 -10   2 8783.40 649.326   1
  -7  10   0 3408.64 502.790  -2
  -7 -10   1 3408.64 502.790   1
  -7  10   1 5459.43 567.801  -2
  -7 -10   0 5459.43 567.801   1
  -7  10   2 9487.17 672.485  -2
  -7 -10  -1 9487.17 672.485   1
  -7  10   3 650.600 295.548  -2
  -7 -10  -2 650.600 295.548   1
  -7  10   4 13617.7 599.168  -2
  -7 -10  -3 13617.7 599.168   1
  -7  10   5 8419.02 576.077  -2
  -7 -10  -4 8419.02 576.077   1
  -7  10   6 1179.58 391.058  -2
  -7 -10  -5 1179.58 391.058   1
  -7  10   7 1675.67 410.514  -2
  -7 -10  -6 1675.67 410.514   1
  -7  10   8 2662.57 458.496  -2
  -7 -10  -7 2662.57 458.496   1
  -7  10   9 1959.19 438.548  -2
  -7 -10  -8 1959.19 438.548   1
  -7  10  10 6608.81 742.337  -2
  -7 -10  -9 6608.81 742.337   1
  -7  10  11 965.462 717.026  -2
  -7 -10 -10 965.462 717.026   1
   7  11   7 1170.64 489.191  -2
   7 -11  -8 1170.64 489.191   1
   7  11   6 686.855 463.541  -2
   7 -11  -7 686.855 463.541   1
   7  11   5 747.355 468.118  -2
   7 -11  -6 747.355 468.118   1
   7  11   4 8583.93 682.986  -2
   7 -11  -5 8583.93 682.986   1
  -7 -11  -3 248.599 449.568  -2
  -7  11   4 248.599 449.568   1
  -7 -11  -2 1200.11 467.505  -2
  -7  11   3 1200.11 467.505   1
  -7 -11  -1 499.116 440.843  -2
  -7  11   2 499.116 440.843   1
  -7  11   0 2896.70 451.050  -2
  -7 -11   1 2896.70 451.050   1
  -7  11   1 2802.28 487.969  -2
  -7 -11   0 2802.28 487.969   1
  -7  11   2 622.013 356.401  -2
  -7 -11  -1 622.013 356.401   1
  -7  11   3 731.418 360.168  -2
  -7 -11  -2 731.418 360.168   1
  -7  11   4 446.821 357.408  -2
  -7 -11  -3 446.821 357.408   1
  -7  11   5 8810.87 612.704  -2
  -7 -11  -4 8810.87 612.704   1
  -7  11   6 730.619 417.738  -2
  -7 -11  -5 730.619 417.738   1
  -7  11   7 400.259 411.267  -2
  -7 -11  -6 400.259 411.267   1
  -7  11   8 1044.11 430.360  -2
  -7 -11  -7 1044.11 430.360   1
  -7  11   9 5239.41 624.191  -2
  -7 -11  -8 5239.41 624.191   1
  -7  11  10 2476.27 1103.50  -2
  -7 -11  -9 2476.27 1103.50   1
  -7 -12  -6 1656.82 752.836  -2
  -7  12   7 1656.82 752.836   1
  -7 -12  -5 3126.54 535.053  -2
  -7  12   6 3126.54 535.053   1
  -7 -12  -4 2008.56 534.492  -2
  -7  12   5 2008.56 534.492   1
  -7 -12  -3 4647.75 625.910  -2
  -7  12   4 4647.75 625.910   1
  -7 -12  -2 3475.77 582.139  -2
  -7  12   3 3475.77 582.139   1
  -7 -12  -1 1806.37 504.187  -2
  -7  12   2 1806.37 504.187   1
  -7 -12   0 417.419 449.194  -2
  -7  12   1 417.419 449.194   1
  -7 -12   1 336.492 460.792  -2
  -7  12   0 336.492 460.792   1
  -7  12   2 1574.36 426.498  -2
  -7 -12  -1 1574.36 426.498   1
  -7  12   3 3165.84 488.900  -2
  -7 -12  -2 3165.84 488.900   1
  -7  12   4 5770.41 491.425  -2
  -7 -12  -3 5770.41 491.425   1
  -7  12   5 1451.66 383.913  -2
  -7 -12  -4 1451.66 383.913   1
  -7  12   6 2263.36 464.267  -2
  -7 -12  -5 2263.36 464.267   1
  -7  12   7 2368.88 468.575  -2
  -7 -12  -6 2368.88 468.575   1
  -7  12   8 1367.50 693.129  -2
  -7 -12  -7 1367.50 693.129   1
  -7  12   9 3566.63 1190.10  -2
  -7 -12  -8 3566.63 1190.10   1
  -7 -13  -4 1713.38 763.439  -2
  -7  13   5 1713.38 763.439   1
  -7 -13  -3 2654.75 581.698  -2
  -7  13   4 2654.75 581.698   1
  -7 -13  -2 4347.76 630.126  -2
  -7  13   3 4347.76 630.126   1
  -7 -13  -1 3685.18 595.731  -2
  -7  13   2 3685.18 595.731   1
  -7 -13   0 3269.81 570.442  -2
  -7  13   1 3269.81 570.442   1
  -7 -13   1 4052.39 610.204  -2
  -7  13   0 4052.39 610.204   1
  -7  13   2 3261.85 500.699  -2
  -7 -13  -1 3261.85 500.699   1
  -7 -13   3 4390.48 545.255  -2
  -7  13  -2 4390.48 545.255   1
  -7  13   4 1872.65 472.757  -2
  -7 -13  -3 1872.65 472.757   1
  -7  13   5 1473.11 432.146  -2
  -7 -13  -4 1473.11 432.146   1
  -7  13   6 909.162 531.391  -2
  -7 -13  -5 909.162 531.391   1
  -7 -13   7 987.987 574.965  -2
  -7  13  -6 987.987 574.965   1
  -7  13   8 2055.02 954.388  -2
  -7 -13  -7 2055.02 954.388   1
  -7 -14  -2 5818.46 1448.61  -2
  -7  14   3 5818.46 1448.61   1
  -7 -14  -1 4766.47 850.514  -2
  -7  14   2 4766.47 850.514   1
  -7 -14   0 6303.94 899.459  -2
  -7  14   1 6303.94 899.459   1
  -7 -14   1 4113.27 821.515  -2
  -7  14   0 4113.27 821.515   1
  -7 -14   2 5714.84 887.518  -2
  -7  14  -1 5714.84 887.518   1
  -7 -14   3 3047.24 759.308  -2
  -7  14  -2 3047.24 759.308   1
  -7 -14   4 2690.39 1028.52  -2
  -7  14  -3 2690.39 1028.52   1
  -7 -14   5 2131.03 718.745  -2
  -7  14  -4 2131.03 718.745   1
  -7  14   6 3362.89 1293.35  -2
  -7 -14  -5 3362.89 1293.35   1
  -7 -15   0 3262.69 1243.96  -2
  -7  15   1 3262.69 1243.96   1
  -7 -15   1 3059.92 1297.22  -2
  -7  15   0 3059.92 1297.22   1
  -7 -15   2 848.835 665.616  -2
  -7  15  -1 848.835 665.616   1
  -7 -15   3 3069.51 1057.31  -2
  -7  15  -2 3069.51 1057.31   1
  -7 -15   4 3095.00 789.974  -2
  -7  15  -3 3095.00 789.974   1
  -8   0  14 373.948 1000.95   1
   8   0 -12 4213.32 764.577   1
  -8   0  10 8880.74 635.098   1
   8   0  -8 273.011 265.504   1
  -8   0   6 246.692 275.847   1
   8   0  -4 22543.4 645.964   1
  -8   0   2 22588.1 640.294   1
  -8   0   0 861.151 277.911   1
   8   0   2 614.453 282.881   1
  -8   0  -4 25108.6 856.668   1
  -8   0  -6 4666.75 664.710   1
  -8   0  -8 222.720 529.118   1
  -8   0 -10 5761.40 683.004   1
   8  -1 -14 1151.15 557.086   1
   8  -1  12 3032.42 666.612  -2
   8   1 -13 3032.42 666.612   1
   8  -1 -12 330.654 525.052   1
   8  -1  11 4822.73 708.035  -2
   8   1 -12 4822.73 708.035   1
   8  -1 -11 6847.55 680.103   1
   8  -1  10 5273.32 556.218  -2
   8   1 -11 5273.32 556.218   1
  -8  -1  10 8124.52 828.395   1
   8  -1   9 8777.57 514.042  -2
   8   1 -10 8777.57 514.042   1
  -8  -1   9 777.207 510.220   1
   8  -1   8 2137.03 362.337  -2
   8   1  -9 2137.03 362.337   1
  -8   1   8 504.737 255.116   1
   8   1   7 855.716 319.742  -2
   8  -1  -8 855.716 319.742   1
  -8   1   7 292.819 285.339   1
   8   1   6 1691.94 347.873  -2
   8  -1  -7 1691.94 347.873   1
  -8   1   6 1755.18 346.979   1
   8  -1   5 7512.11 426.469  -2
   8   1  -6 7512.11 426.469   1
  -8  -1   5 5085.18 550.472   1
  -8   1  -4 6228.62 361.220  -2
  -8  -1   5 6228.62 361.220   1
   8   1  -4 484.885 339.833   1
  -8  -1  -3 11638.7 432.801  -2
  -8   1   4 11638.7 432.801   1
   8   1  -3 16131.2 836.452   1
  -8  -1  -2 15764.1 474.361  -2
  -8   1   3 15764.1 474.361   1
  -8  -1   2 985.367 309.329   1
   8  -1   1 1425.59 283.116  -2
   8   1  -2 1425.59 283.116   1
  -8   1   1 462.624 374.192   1
  -8   1   0 425.597 245.439  -2
  -8  -1   1 425.597 245.439   1
   8  -1   0 103.769 382.660   1
  -8   1   1 512.186 225.786  -2
  -8  -1   0 512.186 225.786   1
   8  -1   1 366.160 388.985   1
  -8   1   2 1228.48 231.763  -2
  -8  -1  -1 1228.48 231.763   1
   8  -1   2 511.437 427.259   1
  -8   1   3 13035.2 405.602  -2
  -8  -1  -2 13035.2 405.602   1
   8  -1   3 13840.3 873.958   1
  -8   1   4 14446.1 461.077  -2
  -8  -1  -3 14446.1 461.077   1
   8  -1   4 847.938 446.523   1
  -8   1   5 5576.39 372.309  -2
  -8  -1  -4 5576.39 372.309   1
   8  -1   5 6419.54 692.400   1
  -8   1   6 8455.18 577.171  -2
  -8  -1  -5 8455.18 577.171   1
   8  -1   6 1611.73 496.175   1
  -8  -1   7 2406.37 432.835  -2
  -8   1  -6 2406.37 432.835   1
   8  -1   7-10.0407 479.464   1
  -8   1   8 801.855 557.786  -2
  -8  -1  -7 801.855 557.786   1
   8  -1   8 793.190 531.708   1
  -8   1   9 1604.41 596.393  -2
  -8  -1  -8 1604.41 596.393   1
   8  -1   9 1303.70 559.715   1
  -8   1  10 6050.51 774.126  -2
  -8  -1  -9 6050.51 774.126   1
   8   1  10 243.902 553.131   1
  -8   1  11 5874.28 603.365  -2
  -8  -1 -10 5874.28 603.365   1
   8   1  11 5489.06 776.058   1
  -8   1  12 4995.40 665.529  -2
  -8  -1 -11 4995.40 665.529   1
  -8   1  13 2656.13 1082.14  -2
  -8  -1 -12 2656.13 1082.14   1
   8   2 -13 521.193 555.726   1
   8   2  12 1187.61 768.274  -2
   8  -2 -13 1187.61 768.274   1
  -8  -2  12 910.415 853.849   1
   8  -2  11 3291.65 637.734  -2
   8   2 -12 3291.65 637.734   1
  -8  -2  11 5097.32 746.252   1
   8  -2  10 5291.17 508.902  -2
   8   2 -11 5291.17 508.902   1
  -8  -2  10 1722.85 786.968   1
   8  -2   9 1692.78 360.194  -2
   8   2 -10 1692.78 360.194   1
  -8   2   9 1413.75 539.485   1
   8  -2   8 1644.32 364.734  -2
   8   2  -9 1644.32 364.734   1
  -8   2   8 212.768 475.670   1
   8  -2   7 182.187 326.346  -2
   8   2  -8 182.187 326.346   1
  -8   2   7 297.451 309.434   1
   8  -2   6 1339.45 327.016  -2
   8   2  -7 1339.45 327.016   1
  -8   2   6 2902.52 345.471   1
   8   2   5 3322.46 381.290  -2
   8  -2  -6 3322.46 381.290   1
   8   2  -5 451.684 302.795   1
  -8  -2  -4 1778.63 310.753  -2
  -8   2   5 1778.63 310.753   1
   8   2  -4 4936.21 512.531   1
   8  -2   3 5235.71 339.198  -2
   8   2  -4 5235.71 339.198   1
   8   2  -3 1405.40 381.430   1
   8  -2   2 10511.1 408.503  -2
   8   2  -3 10511.1 408.503   1
  -8  -2   2 1189.49 361.076   1
   8  -2   1 1338.56 268.736  -2
   8   2  -2 1338.56 268.736   1
   8   2  -1 241.721 504.573   1
  -8   2   0 249.660 228.315  -2
  -8  -2   1 249.660 228.315   1
  -8  -2   0 169.976 315.327   1
   8   2  -1 337.843 243.193  -2
   8  -2   0 337.843 243.193   1
   8   2   1 97.3263 243.756   1
  -8   2   2 1482.06 241.775  -2
  -8  -2  -1 1482.06 241.775   1
   8   2   2 10498.4 1098.20   1
  -8   2   3 11930.4 383.480  -2
  -8  -2  -2 11930.4 383.480   1
   8  -2   3 499.893 430.137   1
  -8   2   4 4584.36 309.077  -2
  -8  -2  -3 4584.36 309.077   1
   8  -2   4 1276.06 472.705   1
  -8  -2   5 1553.73 297.098  -2
  -8   2  -4 1553.73 297.098   1
   8  -2   5 867.212 438.609   1
  -8  -2   6 3114.05 467.796  -2
  -8   2  -5 3114.05 467.796   1
   8  -2   6 764.680 460.392   1
  -8  -2   7 1434.78 428.444  -2
  -8   2  -6 1434.78 428.444   1
   8  -2   7 194.323 465.228   1
  -8  -2   8 158.384 411.557  -2
  -8   2  -7 158.384 411.557   1
   8   2   8 210.803 507.585   1
  -8   2   9 1086.61 594.711  -2
  -8  -2  -8 1086.61 594.711   1
   8   2   9 261.076 517.595   1
  -8   2  10 1078.86 607.201  -2
  -8  -2  -9 1078.86 607.201   1
   8   2  10 2180.89 618.929   1
  -8   2  11 5127.44 582.538  -2
  -8  -2 -10 5127.44 582.538   1
   8  -2  11 4003.07 1004.50   1
  -8   2  12 3573.26 801.109  -2
  -8  -2 -11 3573.26 801.109   1
  -8   2  13 1094.93 975.803  -2
  -8  -2 -12 1094.93 975.803   1
   8  -3  11 4784.66 1099.23  -2
   8   3 -12 4784.66 1099.23   1
  -8  -3  11 60.2342 563.210   1
   8  -3  10 7787.88 554.293  -2
   8   3 -11 7787.88 554.293   1
  -8   3  10 123.154 807.798   1
   8  -3   9 592.986 368.410  -2
   8   3 -10 592.986 368.410   1
  -8   3   9 519.815 495.887   1
   8  -3   8 1340.47 362.772  -2
   8   3  -9 1340.47 362.772   1
  -8   3   8 133.539 392.474   1
   8   3   7 197.413 360.474  -2
   8  -3  -8 197.413 360.474   1
  -8   3   7 393.541 301.209   1
   8  -3   6 1227.98 317.083  -2
   8   3  -7 1227.98 317.083   1
   8   3  -6 3301.35 458.153   1
   8  -3   5 4471.70 342.207  -2
   8   3  -6 4471.70 342.207   1
   8   3  -5 150.925 284.806   1
  -8  -3  -4 347.697 298.010  -2
  -8   3   5 347.697 298.010   1
   8   3  -4 955.792 302.064   1
  -8  -3  -3 1269.77 296.838  -2
  -8   3   4 1269.77 296.838   1
   8   3  -3 122.483 279.753   1
   8   3   2 1308.65 287.254  -2
   8  -3  -3 1308.65 287.254   1
  -8   3   2 94.3694 286.844   1
   8  -3   1 504.380 266.105  -2
   8   3  -2 504.380 266.105   1
   8   3  -1 725.075 333.888   1
   8  -3   0 866.831 248.141  -2
   8   3  -1 866.831 248.141   1
  -8  -3   0-9.57271 298.046   1
   8  -3  -1 685.477 246.866  -2
   8   3   0 685.477 246.866   1
  -8  -3  -1 195.009 200.411   1
   8  -3  -2 802.069 250.838  -2
   8   3   1 802.069 250.838   1
  -8  -3  -2 970.204 230.754   1
  -8  -3   3 1417.86 289.960  -2
  -8   3  -2 1417.86 289.960   1
   8   3   3 82.2316 324.936   1
  -8  -3   4 1865.34 385.273  -2
  -8   3  -3 1865.34 385.273   1
   8   3   4 430.602 646.901   1
  -8  -3   5 854.981 359.934  -2
  -8   3  -4 854.981 359.934   1
   8  -3   5 907.275 455.282   1
  -8  -3   6 4318.12 440.040  -2
  -8   3  -5 4318.12 440.040   1
   8   3   6 1913.19 504.304   1
  -8  -3   7 1765.23 439.637  -2
  -8   3  -6 1765.23 439.637   1
   8   3   7 210.036 490.443   1
  -8  -3   8 218.888 433.250  -2
  -8   3  -7 218.888 433.250   1
   8   3   8 1207.57 536.211   1
  -8  -3   9 1402.16 463.562  -2
  -8   3  -8 1402.16 463.562   1
   8  -3   9-158.769 516.070   1
  -8   3  10 197.425 627.950  -2
  -8  -3  -9 197.425 627.950   1
  -8  -3 -10 9914.67 769.597   1
  -8   3  11 9006.99 769.490  -2
  -8  -3 -10 9006.99 769.490   1
   8  -3  11 97.8145 816.306   1
  -8   3  12 4673.21 776.373  -2
  -8  -3 -11 4673.21 776.373   1
  -8   3  13 260.817 862.242  -2
  -8  -3 -12 260.817 862.242   1
  -8   4  12 1449.26 674.226   1
  -8  -4  11 2738.10 938.585   1
   8  -4  10 3357.79 625.540  -2
   8   4 -11 3357.79 625.540   1
  -8  -4  10 566.513 712.118   1
  -8  -4  -9 2055.31 460.801  -2
  -8   4  10 2055.31 460.801   1
  -8   4   9 921.445 774.886   1
   8  -4   8 474.442 386.090  -2
   8   4  -9 474.442 386.090   1
   8  -4   7 599.797 303.582  -2
   8   4  -8 599.797 303.582   1
   8   4  -7 516.092 357.244   1
   8  -4   6 742.676 292.349  -2
   8   4  -7 742.676 292.349   1
  -8  -4   6 4542.36 460.673   1
   8  -4   5 5009.17 371.544  -2
   8   4  -6 5009.17 371.544   1
   8   4  -5 920.667 294.747   1
  -8  -4  -4 3397.35 339.191  -2
  -8   4   5 3397.35 339.191   1
   8   4  -4 3738.84 356.698   1
   8   4   3 4549.70 375.775  -2
   8  -4  -4 4549.70 375.775   1
   8   4  -3 102.137 251.309   1
  -8   4  -2 7995.83 434.486  -2
  -8  -4   3 7995.83 434.486   1
   8   4  -2 345.577 264.723   1
   8   4   1 587.004 272.524  -2
   8  -4  -2 587.004 272.524   1
   8   4  -1 515.646 244.048   1
  -8  -4   0 1167.60 285.306  -2
  -8   4   1 1167.60 285.306   1
   8   4   0 1292.99 259.376   1
  -8  -4   1 1746.89 304.870  -2
  -8   4   0 1746.89 304.870   1
   8   4   1 411.429 238.931   1
   8  -4  -2 866.388 301.397  -2
   8   4   1 866.388 301.397   1
  -8  -4  -2 10173.6 609.738   1
  -8  -4   3 9816.97 558.920  -2
  -8   4  -2 9816.97 558.920   1
   8   4   3 1202.33 371.974   1
  -8  -4   4 5096.97 463.068  -2
  -8   4  -3 5096.97 463.068   1
   8   4   4 2412.04 469.386   1
  -8  -4   5 3797.17 445.361  -2
  -8   4  -4 3797.17 445.361   1
   8   4   5 295.799 395.187   1
  -8  -4   6 4203.00 447.548  -2
  -8   4  -5 4203.00 447.548   1
   8  -4   6 173.592 489.359   1
  -8   4   7 750.704 434.799  -2
  -8  -4  -6 750.704 434.799   1
   8  -4   7 575.777 508.662   1
  -8   4   8 548.729 448.588  -2
  -8  -4  -7 548.729 448.588   1
   8   4   8 240.810 532.938   1
  -8   4   9 1127.50 456.842  -2
  -8  -4  -8 1127.50 456.842   1
   8  -4   9 1369.46 572.534   1
  -8   4  10 1923.71 504.396  -2
  -8  -4  -9 1923.71 504.396   1
   8  -4  10 1952.85 587.565   1
  -8   4  11 3016.91 581.593  -2
  -8  -4 -10 3016.91 581.593   1
  -8   4  12 3345.94 746.093  -2
  -8  -4 -11 3345.94 746.093   1
   8   5 -12 926.235 502.337   1
  -8   5  11 9096.66 981.144   1
   8  -5  10 9484.54 800.208  -2
   8   5 -11 9484.54 800.208   1
  -8  -5  10 2179.84 825.301   1
   8  -5   9 4392.31 517.905  -2
   8   5 -10 4392.31 517.905   1
  -8  -5   9 215.883 699.189   1
   8  -5   8 2366.36 463.947  -2
   8   5  -9 2366.36 463.947   1
   8   5  -8-18.3773 445.311   1
  -8  -5  -7 1180.71 447.373  -2
  -8   5   8 1180.71 447.373   1
   8   5  -7 437.455 422.351   1
  -8  -5  -6 2414.85 456.523  -2
  -8   5   7 2414.85 456.523   1
   8   5  -6 563.567 365.679   1
   8  -5   5 3264.29 386.447  -2
   8   5  -6 3264.29 386.447   1
  -8  -5   5 12235.7 557.217   1
  -8  -5  -4 14213.6 716.071  -2
  -8   5   5 14213.6 716.071   1
  -8  -5   4 303.706 344.840   1
   8  -5   3 9535.58 476.456  -2
   8   5  -4 9535.58 476.456   1
  -8  -5   3 7875.06 475.134   1
   8   5   2 9176.02 535.853  -2
   8  -5  -3 9176.02 535.853   1
   8   5  -2 143.086 244.998   1
  -8  -5  -1 3394.72 472.475  -2
  -8   5   2 3394.72 472.475   1
   8   5  -1 156.221 231.544   1
  -8  -5   0 502.571 397.431  -2
  -8   5   1 502.571 397.431   1
   8   5   0 236.096 209.593   1
  -8  -5   1 200.989 394.542  -2
  -8   5   0 200.989 394.542   1
   8   5   1 4548.24 863.430   1
  -8  -5   2 4768.31 475.516  -2
  -8   5  -1 4768.31 475.516   1
  -8  -5  -2 733.591 318.488   1
  -8  -5   3 8073.03 529.415  -2
  -8   5  -2 8073.03 529.415   1
  -8  -5  -3 11492.0 717.734   1
  -8   5   4 11235.5 606.077  -2
  -8  -5  -3 11235.5 606.077   1
  -8  -5  -4 2282.07 456.651   1
  -8   5   5 12822.1 626.772  -2
  -8  -5  -4 12822.1 626.772   1
   8   5   5 2790.10 497.406   1
  -8   5   6 3691.90 455.035  -2
  -8  -5  -5 3691.90 455.035   1
  -8  -5  -6 1922.19 629.040   1
  -8   5   7 2536.24 450.487  -2
  -8  -5  -6 2536.24 450.487   1
   8   5   7 888.554 379.945   1
  -8   5   8 1706.57 464.045  -2
  -8  -5  -7 1706.57 464.045   1
   8  -5   8 1352.35 417.724   1
  -8   5   9 1951.63 503.775  -2
  -8  -5  -8 1951.63 503.775   1
   8  -5   9 2126.35 614.292   1
  -8   5  10 3735.39 583.022  -2
  -8  -5  -9 3735.39 583.022   1
   8  -5  10-11.0957 817.914   1
  -8   5  11 6950.28 808.850  -2
  -8  -5 -10 6950.28 808.850   1
  -8  -5  12 3071.59 1056.86  -2
  -8   5 -11 3071.59 1056.86   1
  -8  -6  11 799.927 758.085   1
  -8  -6 -10 3611.37 839.015  -2
  -8   6  11 3611.37 839.015   1
   8   6 -10 5828.70 633.327   1
  -8  -6  -9 8216.70 691.581  -2
  -8   6  10 8216.70 691.581   1
  -8   6   9 199.923 479.707   1
   8  -6   8 875.675 481.372  -2
   8   6  -9 875.675 481.372   1
  -8  -6   8 33.4377 615.531   1
   8  -6   7 471.121 425.998  -2
   8   6  -8 471.121 425.998   1
  -8  -6   7 630.961 579.958   1
   8  -6   6 4437.46 429.967  -2
   8   6  -7 4437.46 429.967   1
   8   6  -6 164.502 293.841   1
  -8  -6  -5 1406.37 441.842  -2
  -8   6   6 1406.37 441.842   1
   8   6  -5 415.815 301.335   1
   8   6   4 12057.6 621.774  -2
   8  -6  -5 12057.6 621.774   1
  -8  -6   4 18359.2 697.998   1
   8   6   3 20459.6 737.587  -2
   8  -6  -4 20459.6 737.587   1
   8   6  -3 128.997 246.453   1
  -8  -6  -2 1159.35 443.379  -2
  -8   6   3 1159.35 443.379   1
  -8  -6   2 13376.5 554.346   1
  -8   6  -1 14206.1 717.103  -2
  -8  -6   2 14206.1 717.103   1
   8   6  -1 1556.07 337.438   1
  -8  -6   0 2217.90 432.423  -2
  -8   6   1 2217.90 432.423   1
   8   6   0 259.000 618.578   1
  -8  -6   1 1867.89 419.445  -2
  -8   6   0 1867.89 419.445   1
   8   6   1 309.797 622.928   1
  -8   6   2 12223.8 633.326  -2
  -8  -6  -1 12223.8 633.326   1
   8   6   2 1787.48 694.718   1
  -8   6   3 866.278 397.898  -2
  -8  -6  -2 866.278 397.898   1
  -8  -6  -3 2030.26 412.994   1
  -8   6   4 16649.8 703.321  -2
  -8  -6  -3 16649.8 703.321   1
  -8  -6  -4 16606.6 908.359   1
  -8   6   5 15365.1 697.964  -2
  -8  -6  -4 15365.1 697.964   1
  -8  -6  -5 1120.01 463.745   1
  -8   6   6 1304.05 414.371  -2
  -8  -6  -5 1304.05 414.371   1
  -8  -6  -6 4526.01 618.477   1
  -8   6   7 4662.88 558.431  -2
  -8  -6  -6 4662.88 558.431   1
   8   6   7-127.322 491.754   1
  -8   6   8 673.793 480.009  -2
  -8  -6  -7 673.793 480.009   1
   8   6   8 595.976 384.112   1
  -8   6   9 594.204 413.464  -2
  -8  -6  -8 594.204 413.464   1
   8  -6   9 2405.18 667.171   1
  -8   6  10 8112.35 518.109  -2
  -8  -6  -9 8112.35 518.109   1
   8  -6  10 3414.58 945.127   1
  -8   6  11 3313.26 501.071  -2
  -8  -6 -10 3313.26 501.071   1
  -8   6  12 4142.40 1169.18  -2
  -8  -6 -11 4142.40 1169.18   1
  -8  -7  11 2670.82 615.360   1
  -8  -7 -10 3385.43 1234.53  -2
  -8   7  11 3385.43 1234.53   1
  -8  -7  10 5076.01 708.475   1
  -8  -7  -9 6809.60 1336.18  -2
  -8   7  10 6809.60 1336.18   1
  -8   7   9 2573.41 646.501   1
  -8  -7  -8 2383.49 484.418  -2
  -8   7   9 2383.49 484.418   1
  -8  -7   8 1188.67 638.154   1
  -8  -7  -7 2479.79 454.864  -2
  -8   7   8 2479.79 454.864   1
  -8  -7   7 101.037 390.535   1
  -8  -7  -6 803.481 481.053  -2
  -8   7   7 803.481 481.053   1
   8   7  -6 1857.17 350.139   1
   8   7   5 8153.71 565.590  -2
   8  -7  -6 8153.71 565.590   1
   8   7  -5 1285.33 322.144   1
   8   7   4 2846.78 452.072  -2
   8  -7  -5 2846.78 452.072   1
  -8  -7   4 144.192 269.892   1
   8   7   3 7007.24 537.549  -2
   8  -7  -4 7007.24 537.549   1
  -8  -7   3 11885.4 702.192   1
  -8  -7  -2 13233.9 693.092  -2
  -8   7   3 13233.9 693.092   1
   8   7  -2 2364.73 691.084   1
  -8  -7  -1 3692.89 493.327  -2
  -8   7   2 3692.89 493.327   1
   8   7  -1 457.565 588.801   1
  -8   7   0 1315.79 430.951  -2
  -8  -7   1 1315.79 430.951   1
   8   7   0 263.115 633.819   1
  -8   7   1 1097.73 412.661  -2
  -8  -7   0 1097.73 412.661   1
   8   7   1 557.659 654.153   1
  -8   7   2 2785.82 447.851  -2
  -8  -7  -1 2785.82 447.851   1
   8   7   2 737.815 726.038   1
  -8   7   3 11328.0 622.075  -2
  -8  -7  -2 11328.0 622.075   1
   8   7   3 6305.91 1036.91   1
  -8   7   4 8622.25 608.708  -2
  -8  -7  -3 8622.25 608.708   1
  -8  -7  -4 738.431 411.093   1
  -8   7   5 1971.49 431.725  -2
  -8  -7  -4 1971.49 431.725   1
   8   7   5 7789.54 724.457   1
  -8   7   6 9188.57 603.478  -2
  -8  -7  -5 9188.57 603.478   1
  -8  -7  -6 412.394 466.784   1
  -8   7   7 527.710 426.839  -2
  -8  -7  -6 527.710 426.839   1
  -8  -7  -7 821.126 472.979   1
  -8   7   8 1598.64 428.307  -2
  -8  -7  -7 1598.64 428.307   1
  -8  -7  -8 62.0105 532.891   1
  -8   7   9 1355.47 537.124  -2
  -8  -7  -8 1355.47 537.124   1
   8  -7   9 1168.55 799.505   1
  -8   7  10 5396.78 627.590  -2
  -8  -7  -9 5396.78 627.590   1
  -8   7  11 2173.62 571.384  -2
  -8  -7 -10 2173.62 571.384   1
   8   8 -11 2914.42 880.733   1
  -8  -8 -10 6008.02 1293.94  -2
  -8   8  11 6008.02 1293.94   1
   8   8 -10 218.473 725.157   1
  -8  -8  -9 1381.63 1077.32  -2
  -8   8  10 1381.63 1077.32   1
  -8   8   9 4151.47 596.838   1
  -8  -8  -8 5880.19 1239.79  -2
  -8   8   9 5880.19 1239.79   1
  -8   8   8 313.589 524.212   1
  -8  -8  -7 542.483 533.792  -2
  -8   8   8 542.483 533.792   1
   8   8  -7 775.035 549.154   1
  -8  -8  -6 1872.07 526.580  -2
  -8   8   7 1872.07 526.580   1
   8   8  -6-110.402 505.192   1
  -8  -8  -5-108.793 492.313  -2
  -8   8   6-108.793 492.313   1
   8   8   4 2271.80 463.988  -2
   8  -8  -5 2271.80 463.988   1
   8   8  -4 1096.88 578.488   1
   8   8   3 1645.44 435.180  -2
   8  -8  -4 1645.44 435.180   1
   8   8  -3 3442.64 757.639   1
  -8   8  -2 6758.67 578.276  -2
  -8  -8   3 6758.67 578.276   1
   8   8  -2 196.434 623.959   1
  -8   8  -1 866.065 454.526  -2
  -8  -8   2 866.065 454.526   1
   8   8  -1 173.630 617.547   1
  -8   8   0 666.481 425.197  -2
  -8  -8   1 666.481 425.197   1
   8   8   0 963.984 653.172   1
  -8   8   1 1100.03 419.567  -2
  -8  -8   0 1100.03 419.567   1
   8   8   1 636.063 666.233   1
  -8   8   2 1195.49 437.146  -2
  -8  -8  -1 1195.49 437.146   1
   8   8   2 2826.23 820.107   1
  -8   8   3 6976.32 564.328  -2
  -8  -8  -2 6976.32 564.328   1
   8   8   3-20.3969 707.840   1
  -8   8   4 668.180 427.138  -2
  -8  -8  -3 668.180 427.138   1
   8   8   4 2018.25 841.941   1
  -8   8   5 2138.24 452.883  -2
  -8  -8  -4 2138.24 452.883   1
   8   8   5 420.513 410.486   1
  -8   8   6 319.516 427.676  -2
  -8  -8  -5 319.516 427.676   1
  -8  -8  -6 1707.19 537.723   1
  -8   8   7 2173.02 410.267  -2
  -8  -8  -6 2173.02 410.267   1
  -8  -8  -7 794.167 518.499   1
  -8   8   8 821.361 526.095  -2
  -8  -8  -7 821.361 526.095   1
  -8  -8  -8 325.451 653.311   1
  -8   8   9 2949.06 707.756  -2
  -8  -8  -8 2949.06 707.756   1
  -8  -8  -9 244.218 767.568   1
  -8   8  10 302.494 682.087  -2
  -8  -8  -9 302.494 682.087   1
  -8   8  11 5001.54 659.959  -2
  -8  -8 -10 5001.54 659.959   1
   8   9 -10 925.497 702.510   1
  -8  -9  -9 101.985 1090.47  -2
  -8   9  10 101.985 1090.47   1
   8   9  -9-4.48606 666.868   1
  -8  -9  -8 1465.62 1044.68  -2
  -8   9   9 1465.62 1044.68   1
  -8   9   8 337.276 434.851   1
  -8  -9  -7-43.6763 1016.33  -2
  -8   9   8-43.6763 1016.33   1
  -8  -9  -6 1443.69 520.201  -2
  -8   9   7 1443.69 520.201   1
   8   9   5 4578.05 592.872  -2
   8  -9  -6 4578.05 592.872   1
   8   9   4 150.471 499.953  -2
   8  -9  -5 150.471 499.953   1
   8   9   3 2245.87 465.042  -2
   8  -9  -4 2245.87 465.042   1
  -8   9  -2 1440.15 472.372  -2
  -8  -9   3 1440.15 472.372   1
   8   9  -2 288.886 655.557   1
  -8   9  -1 400.632 427.205  -2
  -8  -9   2 400.632 427.205   1
   8   9  -1 3531.72 867.795   1
  -8   9   0 3908.29 510.316  -2
  -8  -9   1 3908.29 510.316   1
   8   9   0 278.772 653.188   1
  -8  -9   1 3760.19 504.845  -2
  -8   9   0 3760.19 504.845   1
   8   9   1-56.4494 687.566   1
  -8   9   2 382.699 435.725  -2
  -8  -9  -1 382.699 435.725   1
   8   9   2 320.971 737.704   1
  -8   9   3 1028.44 425.056  -2
  -8  -9  -2 1028.44 425.056   1
   8   9   3 137.845 692.247   1
  -8   9   4 1574.48 454.643  -2
  -8  -9  -3 1574.48 454.643   1
   8   9   4 249.939 781.436   1
  -8   9   5 328.794 416.846  -2
  -8  -9  -4 328.794 416.846   1
   8   9   5 3793.99 998.756   1
  -8   9   6 5958.90 578.085  -2
  -8  -9  -5 5958.90 578.085   1
  -8  -9  -6 23.7630 516.851   1
  -8  -9   7 1485.83 466.975  -2
  -8   9  -6 1485.83 466.975   1
  -8  -9  -7 548.437 650.401   1
  -8   9   8 1057.97 649.147  -2
  -8  -9  -7 1057.97 649.147   1
  -8  -9  -8 589.241 691.262   1
  -8   9   9 243.394 655.381  -2
  -8  -9  -8 243.394 655.381   1
  -8  -9  -9 613.552 656.618   1
  -8   9  10 1327.61 699.403  -2
  -8  -9  -9 1327.61 699.403   1
  -8 -10  -8-396.164 1058.56  -2
  -8  10   9-396.164 1058.56   1
  -8 -10  -7 1589.67 1087.94  -2
  -8  10   8 1589.67 1087.94   1
  -8 -10  -6 1081.36 1046.93  -2
  -8  10   7 1081.36 1046.93   1
   8 -10  -6 2642.55 1071.72   1
  -8 -10  -5 3263.83 600.865  -2
  -8  10   6 3263.83 600.865   1
  -8  10   5 571.505 937.816   1
   8  10   4 4629.83 623.126  -2
   8 -10  -5 4629.83 623.126   1
   8  10   3 2584.84 565.275  -2
   8 -10  -4 2584.84 565.275   1
  -8  10  -2 3896.38 550.578  -2
  -8 -10   3 3896.38 550.578   1
  -8  10  -1 909.582 462.777  -2
  -8 -10   2 909.582 462.777   1
  -8  10   0 1724.82 443.799  -2
  -8 -10   1 1724.82 443.799   1
  -8  10   1 2012.83 470.225  -2
  -8 -10   0 2012.83 470.225   1
  -8  10   2 1266.30 456.243  -2
  -8 -10  -1 1266.30 456.243   1
  -8  10   3 4117.45 520.439  -2
  -8 -10  -2 4117.45 520.439   1
  -8 -10   4 2935.13 585.489  -2
  -8  10  -3 2935.13 585.489   1
  -8 -10   5 5609.17 702.636  -2
  -8  10  -4 5609.17 702.636   1
  -8  10   6 4091.26 563.788  -2
  -8 -10  -5 4091.26 563.788   1
  -8  10   7 2119.70 562.375  -2
  -8 -10  -6 2119.70 562.375   1
  -8  10   8 2086.04 686.248  -2
  -8 -10  -7 2086.04 686.248   1
  -8 -11  -7 698.245 927.064  -2
  -8  11   8 698.245 927.064   1
  -8 -11  -6 1891.60 1051.88  -2
  -8  11   7 1891.60 1051.88   1
  -8 -11  -5 2607.09 1005.64  -2
  -8  11   6 2607.09 1005.64   1
   8 -11  -5 8282.92 1001.52   1
  -8 -11  -4 9994.82 1361.83  -2
  -8  11   5 9994.82 1361.83   1
  -8  11   4 1159.79 972.109   1
  -8 -11  -3 6407.55 747.710  -2
  -8  11   4 6407.55 747.710   1
  -8  11   3 3595.03 1067.34   1
  -8 -11  -2 3319.97 633.593  -2
  -8  11   3 3319.97 633.593   1
  -8 -11  -1 4226.15 674.728  -2
  -8  11   2 4226.15 674.728   1
  -8  11   0 1999.49 492.404  -2
  -8 -11   1 1999.49 492.404   1
  -8 -11   1 2783.93 616.810  -2
  -8  11   0 2783.93 616.810   1
  -8 -11   2 5783.50 713.597  -2
  -8  11  -1 5783.50 713.597   1
  -8 -11   3 2750.03 616.407  -2
  -8  11  -2 2750.03 616.407   1
  -8 -11   4 7151.13 736.449  -2
  -8  11  -3 7151.13 736.449   1
  -8  11   5 8315.26 766.640  -2
  -8 -11  -4 8315.26 766.640   1
  -8 -11   6 2335.44 1146.07  -2
  -8  11  -5 2335.44 1146.07   1
  -8 -12  -5 3618.76 1036.77  -2
  -8  12   6 3618.76 1036.77   1
  -8 -12  -4 2526.49 1091.93  -2
  -8  12   5 2526.49 1091.93   1
  -8 -12  -3 10631.0 1415.36  -2
  -8  12   4 10631.0 1415.36   1
  -8  12   3 1122.95 981.749   1
  -8 -12  -2 691.250 960.458  -2
  -8  12   3 691.250 960.458   1
  -8  12   2 3003.38 1098.07   1
  -8 -12  -1 3085.50 1039.60  -2
  -8  12   2 3085.50 1039.60   1
  -8  12   1 2977.21 1079.95   1
  -8 -12   0 2032.14 713.367  -2
  -8  12   1 2032.14 713.367   1
  -8  12   0 602.440 865.607   1
  -8 -12   1 2244.28 733.303  -2
  -8  12   0 2244.28 733.303   1
  -8  12  -1 1564.66 862.445   1
  -8 -12   2 3486.20 761.545  -2
  -8  12  -1 3486.20 761.545   1
  -8  12  -2 1768.09 937.650   1
  -8 -12   3 1295.31 984.700  -2
  -8  12  -2 1295.31 984.700   1
  -8  12  -3 1682.18 853.141   1
  -8 -12   4 9722.57 1351.04  -2
  -8  12  -3 9722.57 1351.04   1
  -8 -13  -3 2680.60 987.116  -2
  -8  13   4 2680.60 987.116   1
  -8 -13  -2 7657.58 1245.55  -2
  -8  13   3 7657.58 1245.55   1
  -8 -13  -1 4542.14 1077.34  -2
  -8  13   2 4542.14 1077.34   1
  -8  13   1 584.234 957.133   1
  -8 -13   0 1123.08 958.235  -2
  -8  13   1 1123.08 958.235   1
  -8  13   0 1994.23 926.301   1
  -8 -13   1 1352.06 898.154  -2
  -8  13   0 1352.06 898.154   1
  -8  13  -1 441.806 951.879   1
  -8 -13   2 2896.97 1024.86  -2
  -8  13  -1 2896.97 1024.86   1
  -8  13  -2 4380.39 1105.38   1
  -8 -13   3 7942.84 1243.45  -2
  -8  13  -2 7942.84 1243.45   1
  -8 -14   1 1341.97 997.981  -2
  -8  14   0 1341.97 997.981   1
  -8  14  -1 1168.90 1014.18   1
   9   0 -10 5545.88 803.657   1
   9   0   8 5965.73 1005.28  -2
   9   0 -10 5965.73 1005.28   1
  -9   0   8 412.157 729.650   1
   9   0   6 2780.94 554.690  -2
   9   0  -8 2780.94 554.690   1
   9   0  -6 2101.80 609.471   1
  -9   0  -4 2873.67 460.876  -2
  -9   0   6 2873.67 460.876   1
  -9   0   4 1029.00 433.789   1
   9   0   2 1560.80 487.338  -2
   9   0  -4 1560.80 487.338   1
   9   0  -2 549.980 556.528   1
  -9   0   0 1094.60 380.051  -2
  -9   0   2 1094.60 380.051   1
   9   0   0-187.069 621.537   1
  -9   0   2 213.145 363.517  -2
  -9   0   0 213.145 363.517   1
   9   0   2 333.856 628.446   1
  -9   0   4 1438.13 379.656  -2
  -9   0  -2 1438.13 379.656   1
   9   0   4 3639.95 922.261   1
  -9   0   6 4128.08 1026.56  -2
  -9   0  -4 4128.08 1026.56   1
   9   0   6 2074.86 855.689   1
  -9   0   8 3393.20 1035.46  -2
  -9   0  -6 3393.20 1035.46   1
   9   0   8 1285.78 865.775   1
  -9   0  10 6107.01 1187.23  -2
  -9   0  -8 6107.01 1187.23   1
   9  -1  10 259.233 939.943  -2
   9   1 -12 259.233 939.943   1
   9   1   9 572.620 590.702  -2
   9  -1 -11 572.620 590.702   1
  -9  -1  10 1368.43 787.179   1
   9  -1   8 1517.22 425.056  -2
   9   1 -10 1517.22 425.056   1
  -9   1   9 3363.47 676.316   1
   9  -1   7 3558.20 420.930  -2
   9   1  -9 3558.20 420.930   1
  -9  -1   8 1144.45 713.861   1
   9  -1   6 3597.70 389.947  -2
   9   1  -8 3597.70 389.947   1
   9  -1  -7 513.591 333.579   1
  -9  -1  -5 1120.28 322.056  -2
  -9   1   7 1120.28 322.056   1
  -9   1   6 123.733 295.259   1
   9  -1   4 5318.20 417.078  -2
   9   1  -6 5318.20 417.078   1
  -9   1   5 176.620 290.807   1
   9  -1   3 615.884 325.228  -2
   9   1  -5 615.884 325.228   1
  -9  -1   4 3188.98 413.052   1
  -9  -1  -2 3289.90 346.629  -2
  -9   1   4 3289.90 346.629   1
   9  -1  -3 151.944 399.425   1
  -9   1  -1 558.182 272.558  -2
  -9  -1   3 558.182 272.558   1
   9  -1  -2 6886.75 533.245   1
  -9  -1   0 7715.44 400.809  -2
  -9   1   2 7715.44 400.809   1
  -9  -1   1 23.3929 329.030   1
   9  -1  -1 307.213 283.481  -2
   9   1  -1 307.213 283.481   1
   9   1   0 339.201 433.269   1
  -9   1   2 6133.15 339.271  -2
  -9  -1   0 6133.15 339.271   1
   9  -1   1 439.349 444.285   1
  -9   1   3 512.699 253.966  -2
  -9  -1  -1 512.699 253.966   1
  -9  -1  -2 4.10996 329.345   1
   9   1  -4 3178.69 352.069  -2
   9  -1   2 3178.69 352.069   1
   9  -1   3 287.259 481.266   1
  -9  -1   5 735.529 394.100  -2
  -9   1  -3 735.529 394.100   1
  -9   1  -4 6240.02 539.659   1
  -9   1   6 5558.33 732.280  -2
  -9  -1  -4 5558.33 732.280   1
   9  -1   5 594.092 504.609   1
  -9   1   7 2443.35 663.913  -2
  -9  -1  -5 2443.35 663.913   1
   9  -1   6 2357.08 611.326   1
  -9   1   8 3593.37 728.768  -2
  -9  -1  -6 3593.37 728.768   1
   9  -1   7 959.802 587.954   1
  -9   1   9 3821.01 753.207  -2
  -9  -1  -7 3821.01 753.207   1
   9  -1   8 326.591 579.163   1
  -9   1  10 1572.52 715.073  -2
  -9  -1  -8 1572.52 715.073   1
  -9   1  11 601.839 966.859  -2
  -9  -1  -9 601.839 966.859   1
   9  -2   9 271.956 838.083  -2
   9   2 -11 271.956 838.083   1
   9   2 -10-0.88762 594.901   1
   9   2   8 2510.59 584.379  -2
   9  -2 -10 2510.59 584.379   1
   9   2  -9 8678.69 722.423   1
   9   2   7 13244.2 784.645  -2
   9  -2  -9 13244.2 784.645   1
  -9  -2   8 2485.65 630.579   1
  -9  -2  -6 3109.19 407.996  -2
  -9   2   8 3109.19 407.996   1
  -9  -2   7 2353.52 754.321   1
  -9  -2  -5 7991.62 441.235  -2
  -9   2   7 7991.62 441.235   1
  -9  -2   6 353.036 358.917   1
   9  -2   4 1196.36 339.470  -2
   9   2  -6 1196.36 339.470   1
   9   2  -5 244.249 395.828   1
  -9  -2  -3 1010.64 306.354  -2
  -9   2   5 1010.64 306.354   1
   9   2  -4 106.688 400.248   1
   9  -2   2 583.663 302.462  -2
   9   2  -4 583.663 302.462   1
   9   2  -3 6555.52 615.513   1
   9  -2   1 6444.58 390.654  -2
   9   2  -3 6444.58 390.654   1
  -9  -2   2 150.623 324.268   1
   9  -2   0 176.963 318.800  -2
   9   2  -2 176.963 318.800   1
   9  -2  -1 10041.7 612.838   1
   9  -2  -1 21047.5 555.018  -2
   9   2  -1 21047.5 555.018   1
   9  -2   0 199.402 426.799   1
  -9   2   2 529.775 253.932  -2
  -9  -2   0 529.775 253.932   1
   9  -2   1 807.609 461.547   1
   9   2  -3 5569.28 396.731  -2
   9  -2   1 5569.28 396.731   1
   9  -2   2 29.4719 449.722   1
  -9  -2   4 188.906 394.658  -2
  -9   2  -2 188.906 394.658   1
   9  -2   3 726.556 477.679   1
  -9  -2   5 1044.24 392.951  -2
  -9   2  -3 1044.24 392.951   1
   9   2   4 892.176 655.991   1
  -9  -2   6 1741.56 411.675  -2
  -9   2  -4 1741.56 411.675   1
   9  -2   5 7713.98 807.491   1
  -9   2   7 10206.1 910.323  -2
  -9  -2  -5 10206.1 910.323   1
   9  -2   6 548.237 522.452   1
  -9   2   8 3595.67 730.427  -2
  -9  -2  -6 3595.67 730.427   1
   9   2   7 3352.45 694.859   1
  -9   2   9 10712.9 961.964  -2
  -9  -2  -7 10712.9 961.964   1
   9  -2   8 4779.76 1121.47   1
  -9   2  10 3720.89 1050.57  -2
  -9  -2  -8 3720.89 1050.57   1
  -9   2  11 1594.90 962.153  -2
  -9  -2  -9 1594.90 962.153   1
   9   3 -10 3971.55 697.600   1
   9  -3   8 4973.68 1041.63  -2
   9   3 -10 4973.68 1041.63   1
   9   3  -9 110.273 527.204   1
  -9  -3  -7 494.150 486.965  -2
  -9   3   9 494.150 486.965   1
  -9  -3   8 12436.6 1327.46   1
  -9  -3  -6 19728.1 714.787  -2
  -9   3   8 19728.1 714.787   1
   9   3  -7 139.417 449.720   1
  -9  -3  -5 434.542 450.336  -2
  -9   3   7 434.542 450.336   1
   9   3  -6 896.218 342.251   1
  -9  -3  -4 1731.35 432.450  -2
  -9   3   6 1731.35 432.450   1
  -9   3   5 339.419 355.362   1
   9  -3   3-10.0753 392.809  -2
   9   3  -5-10.0753 392.809   1
  -9  -3   4 568.452 391.065   1
   9  -3   2 1176.98 357.304  -2
   9   3  -4 1176.98 357.304   1
   9   3  -3 110.024 371.454   1
   9  -3   1 459.075 352.285  -2
   9   3  -3 459.075 352.285   1
   9   3  -2 9594.07 705.997   1
   9  -3   0 26744.2 619.577  -2
   9   3  -2 26744.2 619.577   1
   9   3  -1 287.715 349.084   1
   9  -3  -1 743.282 290.761  -2
   9   3  -1 743.282 290.761   1
   9   3   0 16804.4 1412.85   1
   9   3  -2 26937.7 679.692  -2
   9  -3   0 26937.7 679.692   1
   9   3   1 608.193 664.316   1
  -9  -3   3 498.068 411.440  -2
  -9   3  -1 498.068 411.440   1
   9  -3   2 655.851 436.663   1
  -9  -3   4 916.691 417.153  -2
  -9   3  -2 916.691 417.153   1
   9   3   3-78.6032 722.906   1
   9   3  -5 354.704 374.752  -2
   9  -3   3 354.704 374.752   1
   9  -3   4 185.161 502.243   1
  -9  -3   6 1287.12 421.993  -2
  -9   3  -4 1287.12 421.993   1
   9  -3   5 228.148 497.619   1
  -9  -3   7 2067.09 495.406  -2
  -9   3  -5 2067.09 495.406   1
   9  -3   6 10253.5 898.050   1
  -9   3   8 18617.4 1121.56  -2
  -9  -3  -6 18617.4 1121.56   1
   9   3   7 527.165 581.382   1
  -9   3   9 575.441 693.697  -2
  -9  -3  -7 575.441 693.697   1
  -9   3  10 7094.10 1228.43  -2
  -9  -3  -8 7094.10 1228.43   1
  -9   3  11 523.070 979.846  -2
  -9  -3  -9 523.070 979.846   1
  -9  -3 -10-194.399 750.149   1
   9   4 -10 333.046 545.589   1
   9  -4   8 5956.75 1163.40  -2
   9   4 -10 5956.75 1163.40   1
   9   4  -9 3800.69 656.042   1
  -9  -4  -7 10813.6 752.232  -2
  -9   4   9 10813.6 752.232   1
   9   4  -8 3063.44 533.754   1
  -9  -4  -6 3778.01 586.761  -2
  -9   4   8 3778.01 586.761   1
   9   4  -7 3577.05 596.464   1
  -9  -4  -5 8739.84 606.161  -2
  -9   4   7 8739.84 606.161   1
   9   4  -6 1628.29 377.858   1
  -9  -4  -4 2364.17 464.767  -2
  -9   4   6 2364.17 464.767   1
   9   4  -5 209.972 313.404   1
  -9  -4  -3 593.969 429.630  -2
  -9   4   5 593.969 429.630   1
   9   4  -4 689.766 294.133   1
  -9  -4  -2 1031.26 454.871  -2
  -9   4   4 1031.26 454.871   1
   9   4  -3 1298.02 344.573   1
   9   4   1 2816.26 437.364  -2
   9  -4  -3 2816.26 437.364   1
   9   4  -2 257.685 361.990   1
   9   4   0 707.331 407.891  -2
   9  -4  -2 707.331 407.891   1
   9   4  -1 11789.0 1219.10   1
   9   4  -1 22542.8 765.735  -2
   9  -4  -1 22542.8 765.735   1
   9   4   0 719.107 653.920   1
  -9  -4   2 173.279 458.449  -2
  -9   4   0 173.279 458.449   1
   9   4   1 1060.54 675.895   1
  -9  -4   3 2581.56 468.422  -2
  -9   4  -1 2581.56 468.422   1
   9   4   2-124.432 664.739   1
  -9  -4   4 812.459 429.892  -2
  -9   4  -2 812.459 429.892   1
   9   4   3 262.367 734.503   1
  -9  -4   5 524.068 419.820  -2
  -9   4  -3 524.068 419.820   1
   9  -4   4 21.8332 523.364   1
  -9  -4   6 2985.39 475.361  -2
  -9   4  -4 2985.39 475.361   1
   9  -4   5 5854.38 774.109   1
  -9  -4   7 7839.22 653.843  -2
  -9   4  -5 7839.22 653.843   1
   9  -4   6 665.468 589.259   1
  -9  -4   8 3568.88 582.504  -2
  -9   4  -6 3568.88 582.504   1
   9  -4   7 6453.46 842.235   1
  -9   4   9 9632.31 1235.53  -2
  -9  -4  -7 9632.31 1235.53   1
  -9   4  10 2284.80 840.138  -2
  -9  -4  -8 2284.80 840.138   1
  -9   4  11-112.332 933.241  -2
  -9  -4  -9-112.332 933.241   1
   9   5 -10 364.939 549.121   1
   9   5  -9 1827.02 548.984   1
  -9  -5  -7 3214.36 752.538  -2
  -9   5   9 3214.36 752.538   1
   9   5  -8 584.566 412.873   1
  -9  -5  -6 3247.17 575.370  -2
  -9   5   8 3247.17 575.370   1
   9   5  -7 3303.58 451.995   1
  -9  -5  -5 3248.88 645.544  -2
  -9   5   7 3248.88 645.544   1
   9   5  -6 411.747 407.730   1
  -9  -5  -4 3220.17 502.369  -2
  -9   5   6 3220.17 502.369   1
   9   5  -5 41.4055 322.137   1
  -9  -5  -3 705.564 443.064  -2
  -9   5   5 705.564 443.064   1
   9   5  -4 478.762 302.478   1
   9   5   2 2065.84 438.249  -2
   9  -5  -4 2065.84 438.249   1
  -9   5   3-43.6162 466.440   1
   9   5   1 224.661 470.792  -2
   9  -5  -3 224.661 470.792   1
   9   5  -2 4350.16 865.535   1
   9   5   0 5690.63 505.961  -2
   9  -5  -2 5690.63 505.961   1
   9   5  -1 661.620 610.629   1
  -9  -5   1 2061.59 446.534  -2
  -9   5   1 2061.59 446.534   1
   9   5   0 399.779 626.066   1
  -9  -5   2 4665.33 530.318  -2
  -9   5   0 4665.33 530.318   1
   9   5   1-50.3035 685.402   1
  -9  -5   3 487.225 447.755  -2
  -9   5  -1 487.225 447.755   1
   9   5   2 1624.51 803.157   1
  -9  -5   4 1828.02 453.314  -2
  -9   5  -2 1828.02 453.314   1
   9   5   3 136.727 723.350   1
  -9  -5   5 1102.52 434.705  -2
  -9   5  -3 1102.52 434.705   1
   9   5   4 4187.11 982.775   1
  -9  -5   6 4027.05 501.260  -2
  -9   5  -4 4027.05 501.260   1
   9   5   5 636.792 841.052   1
  -9  -5   7 3331.12 573.578  -2
  -9   5  -5 3331.12 573.578   1
   9  -5   6 2291.42 629.805   1
  -9  -5   8 3143.45 579.906  -2
  -9   5  -6 3143.45 579.906   1
  -9   5  -7 1039.39 730.732   1
  -9   5   9 3316.55 983.434  -2
  -9  -5  -7 3316.55 983.434   1
  -9   5  10 311.617 893.492  -2
  -9  -5  -8 311.617 893.492   1
  -9   5  -9 458.445 750.300   1
   9   6 -10 3278.79 669.999   1
   9   6  -9 232.783 502.819   1
   9   6  -8 535.741 419.344   1
  -9  -6  -6 1817.71 614.873  -2
  -9   6   8 1817.71 614.873   1
   9   6  -7 231.704 437.046   1
  -9  -6  -5 1135.87 482.369  -2
  -9   6   7 1135.87 482.369   1
   9   6  -6 180.755 420.045   1
  -9  -6  -4 1326.56 477.215  -2
  -9   6   6 1326.56 477.215   1
   9   6  -5 822.197 381.190   1
  -9  -6  -3 1608.05 460.922  -2
  -9   6   5 1608.05 460.922   1
   9   6  -4 186.021 591.658   1
   9   6   2 1138.29 452.035  -2
   9  -6  -4 1138.29 452.035   1
   9   6  -3 149.926 654.740   1
   9   6   1 2250.58 457.020  -2
   9  -6  -3 2250.58 457.020   1
   9   6  -2 1270.23 686.427   1
   9   6   0 914.546 431.619  -2
   9  -6  -2 914.546 431.619   1
   9   6  -1 133.204 664.804   1
  -9  -6   1 922.268 455.059  -2
  -9   6   1 922.268 455.059   1
   9   6   0-102.836 678.954   1
  -9  -6   2 1362.49 447.667  -2
  -9   6   0 1362.49 447.667   1
   9   6   1 2412.88 790.145   1
  -9  -6   3 2754.74 486.266  -2
  -9   6  -1 2754.74 486.266   1
   9   6   2-113.666 752.093   1
  -9  -6   4 772.704 446.261  -2
  -9   6  -2 772.704 446.261   1
   9   6   3 511.800 741.181   1
  -9  -6   5 1002.44 450.680  -2
  -9   6  -3 1002.44 450.680   1
   9   6   4 945.192 827.364   1
  -9   6   6 1664.96 454.627  -2
  -9  -6  -4 1664.96 454.627   1
   9   6   5 72.8492 798.694   1
  -9   6   7 620.772 458.445  -2
  -9  -6  -5 620.772 458.445   1
  -9   6   8 878.767 612.370  -2
  -9  -6  -6 878.767 612.370   1
  -9   6   9 1396.69 634.223  -2
  -9  -6  -7 1396.69 634.223   1
  -9  -6  -8 634.962 628.414   1
  -9  -7  10 1624.43 863.407   1
  -9  -7   9 1238.30 702.719   1
  -9  -7   8 765.453 686.434   1
  -9  -7  -6 4355.14 1267.99  -2
  -9   7   8 4355.14 1267.99   1
  -9  -7   7 329.021 498.348   1
  -9  -7  -5 2665.21 571.244  -2
  -9   7   7 2665.21 571.244   1
  -9  -7  -4 2959.29 514.081  -2
  -9   7   6 2959.29 514.081   1
   9   7   3 587.788 484.849  -2
   9  -7  -5 587.788 484.849   1
   9   7  -4 2316.24 747.219   1
   9   7   2 3721.56 525.152  -2
   9  -7  -4 3721.56 525.152   1
   9   7  -3 796.937 670.289   1
   9   7   1 908.673 465.466  -2
   9  -7  -3 908.673 465.466   1
   9   7  -2 3585.98 843.571   1
  -9  -7   0 4999.95 567.871  -2
  -9   7   2 4999.95 567.871   1
   9   7  -1 155.436 693.203   1
  -9  -7   1 559.046 467.572  -2
  -9   7   1 559.046 467.572   1
   9   7   0 699.075 735.620   1
  -9  -7   2 4873.10 553.211  -2
  -9   7   0 4873.10 553.211   1
   9   7   1 437.880 729.143   1
  -9   7   3 870.193 463.274  -2
  -9  -7  -1 870.193 463.274   1
   9   7   2 450.527 760.263   1
  -9   7   4 2990.67 501.765  -2
  -9  -7  -2 2990.67 501.765   1
   9   7   3 650.231 792.984   1
  -9   7   5 204.133 468.303  -2
  -9  -7  -3 204.133 468.303   1
   9   7   4 3721.67 996.579   1
  -9   7   6 3302.01 530.155  -2
  -9  -7  -4 3302.01 530.155   1
  -9   7  -5 1450.84 599.015   1
  -9   7   7 2443.85 567.528  -2
  -9  -7  -5 2443.85 567.528   1
  -9  -7  -6 4776.17 934.752   1
  -9  -7   8 5656.91 1092.54  -2
  -9   7  -6 5656.91 1092.54   1
  -9  -7   9 728.980 937.606  -2
  -9   7  -7 728.980 937.606   1
  -9   7  -8 1224.30 757.224   1
  -9  -8  -5 6283.29 1305.22  -2
  -9   8   7 6283.29 1305.22   1
  -9  -8   6-1.59705 880.425   1
  -9  -8  -4 1076.97 764.091  -2
  -9   8   6 1076.97 764.091   1
  -9  -8   5 391.564 835.565   1
   9   8   3 3128.86 576.862  -2
   9  -8  -5 3128.86 576.862   1
   9   8  -4 372.837 629.483   1
   9   8   2 523.988 483.901  -2
   9  -8  -4 523.988 483.901   1
   9   8  -3 8342.75 1126.04   1
   9   8   1 10283.9 671.081  -2
   9  -8  -3 10283.9 671.081   1
   9   8  -2 90.4869 650.656   1
  -9  -8   0 1086.48 503.866  -2
  -9   8   2 1086.48 503.866   1
   9   8  -1 4035.16 972.887   1
  -9   8   1 10739.8 689.164  -2
  -9  -8   1 10739.8 689.164   1
   9   8   0 1272.29 723.890   1
  -9   8   2 2963.51 522.648  -2
  -9  -8   0 2963.51 522.648   1
   9   8   1 439.104 738.705   1
  -9   8   3 7584.67 618.706  -2
  -9  -8  -1 7584.67 618.706   1
   9   8   2 274.795 779.875   1
  -9   8   4 640.823 473.022  -2
  -9  -8  -2 640.823 473.022   1
   9   8   3 2457.54 889.456   1
  -9   8   5 2749.45 517.833  -2
  -9  -8  -3 2749.45 517.833   1
  -9   8  -4 1804.01 616.011   1
  -9   8   6 1794.05 576.240  -2
  -9  -8  -4 1794.05 576.240   1
  -9  -8   7 7419.17 1232.32  -2
  -9   8  -5 7419.17 1232.32   1
  -9  -8   8 1557.81 1013.09  -2
  -9   8  -6 1557.81 1013.09   1
  -9  -8   9 7726.93 1306.30  -2
  -9   8  -7 7726.93 1306.30   1
  -9  -9  -5 1846.29 1061.14  -2
  -9   9   7 1846.29 1061.14   1
  -9  -9  -4 438.242 1077.04  -2
  -9   9   6 438.242 1077.04   1
  -9  -9   5 948.564 863.983   1
  -9  -9  -3 201.487 1111.48  -2
  -9   9   5 201.487 1111.48   1
  -9  -9   4 285.116 784.339   1
   9   9   2 830.327 558.048  -2
   9  -9  -4 830.327 558.048   1
  -9   9  -1 1964.64 528.057  -2
  -9  -9   3 1964.64 528.057   1
   9   9  -2 6536.98 1040.08   1
  -9   9   0 14659.1 804.244  -2
  -9  -9   2 14659.1 804.244   1
   9   9  -1 97.7689 831.615   1
  -9   9   1 711.138 513.037  -2
  -9  -9   1 711.138 513.037   1
   9   9   0 7793.97 1208.96   1
  -9   9   2 13473.7 764.409  -2
  -9  -9   0 13473.7 764.409   1
   9   9   1 1582.19 746.027   1
  -9   9   3 2433.87 522.074  -2
  -9  -9  -1 2433.87 522.074   1
   9   9   2 915.496 813.748   1
  -9   9   4 1437.71 583.633  -2
  -9  -9  -2 1437.71 583.633   1
   9   9   3 233.998 857.077   1
  -9  -9   5 986.451 1013.42  -2
  -9   9  -3 986.451 1013.42   1
  -9  -9   6 1406.51 1065.95  -2
  -9   9  -4 1406.51 1065.95   1
  -9  -9   7 2425.96 1124.60  -2
  -9   9  -5 2425.96 1124.60   1
  -9 -10  -3 1548.47 1035.31  -2
  -9  10   5 1548.47 1035.31   1
  -9 -10   4 529.468 809.526   1
  -9 -10  -2 1782.43 982.872  -2
  -9  10   4 1782.43 982.872   1
  -9 -10   3-31.2685 861.678   1
  -9 -10  -1 2640.32 1062.09  -2
  -9  10   3 2640.32 1062.09   1
  -9  10   0 2467.00 721.627  -2
  -9 -10   2 2467.00 721.627   1
  -9  10   1 12057.6 866.221  -2
  -9 -10   1 12057.6 866.221   1
  -9 -10   0 1448.47 745.403   1
  -9 -10   2 2559.56 757.580  -2
  -9  10   0 2559.56 757.580   1
  -9 -10   3 2732.83 1141.13  -2
  -9  10  -1 2732.83 1141.13   1
  -9 -11  -1 1683.79 1085.42  -2
  -9  11   3 1683.79 1085.42   1
  10   0   6 2139.64 803.811  -2
  10   0  -8 2139.64 803.811   1
  10   0   4 11821.7 718.958  -2
  10   0  -6 11821.7 718.958   1
 -10   0  -2 14909.7 710.929  -2
 -10   0   4 14909.7 710.929   1
 -10   0   0 3204.01 450.216  -2
 -10   0   2 3204.01 450.216   1
 -10   0   2 4046.42 643.401  -2
 -10   0   0 4046.42 643.401   1
 -10   0   4 16608.3 995.708  -2
 -10   0  -2 16608.3 995.708   1
 -10   0   6 9135.15 1467.29  -2
 -10   0  -4 9135.15 1467.29   1
  10  -1   7 2393.97 931.022  -2
  10   1  -9 2393.97 931.022   1
  10  -1   6 866.710 444.517  -2
  10   1  -8 866.710 444.517   1
 -10  -1  -5 5617.95 555.360  -2
 -10   1   7 5617.95 555.360   1
 -10  -1  -4 1250.35 375.332  -2
 -10   1   6 1250.35 375.332   1
 -10  -1  -3 5173.48 391.900  -2
 -10   1   5 5173.48 391.900   1
 -10  -1  -2 1157.14 312.613  -2
 -10   1   4 1157.14 312.613   1
 -10   1  -1 8561.18 439.629  -2
 -10  -1   3 8561.18 439.629   1
 -10   1   0 219.395 289.836  -2
 -10  -1   2 219.395 289.836   1
 -10  -1   1 3654.68 408.648  -2
 -10   1   1 3654.68 408.648   1
 -10  -1   2 410.329 343.561  -2
 -10   1   0 410.329 343.561   1
 -10   1   3 9747.93 637.378  -2
 -10  -1  -1 9747.93 637.378   1
 -10   1   4 1233.50 435.930  -2
 -10  -1  -2 1233.50 435.930   1
 -10   1   5 5292.91 622.534  -2
 -10  -1  -3 5292.91 622.534   1
 -10   1   6 1657.80 733.950  -2
 -10  -1  -4 1657.80 733.950   1
 -10   1   7 5018.89 1301.66  -2
 -10  -1  -5 5018.89 1301.66   1
  10  -2   7 1333.07 861.792  -2
  10   2  -9 1333.07 861.792   1
  10  -2   6 2825.09 607.832  -2
  10   2  -8 2825.09 607.832   1
 -10  -2  -5 1425.18 442.913  -2
 -10   2   7 1425.18 442.913   1
 -10  -2  -4 2360.53 416.741  -2
 -10   2   6 2360.53 416.741   1
 -10  -2  -3 1325.83 318.573  -2
 -10   2   5 1325.83 318.573   1
 -10  -2  -2 1100.47 313.682  -2
 -10   2   4 1100.47 313.682   1
 -10  -2   3 660.873 591.009   1
 -10  -2  -1 137.379 349.405  -2
 -10   2   3 137.379 349.405   1
 -10  -2   0 7235.05 482.856  -2
 -10   2   2 7235.05 482.856   1
 -10  -2   1 213.561 343.414  -2
 -10   2   1 213.561 343.414   1
 -10  -2   2 7817.29 501.306  -2
 -10   2   0 7817.29 501.306   1
  10   2  -3 214.721 339.130  -2
  10  -2   1 214.721 339.130   1
 -10   2   4 1017.83 434.134  -2
 -10  -2  -2 1017.83 434.134   1
 -10   2   5 846.171 445.778  -2
 -10  -2  -3 846.171 445.778   1
 -10   2   6 2360.37 1191.41  -2
 -10  -2  -4 2360.37 1191.41   1
 -10   2   7 1011.81 980.613  -2
 -10  -2  -5 1011.81 980.613   1
  10  -3   6 4952.73 667.206  -2
  10   3  -8 4952.73 667.206   1
 -10  -3  -5 277.658 442.943  -2
 -10   3   7 277.658 442.943   1
  10  -3   4 1081.90 445.481  -2
  10   3  -6 1081.90 445.481   1
  10  -3   3 949.161 375.833  -2
  10   3  -5 949.161 375.833   1
 -10  -3  -2 720.394 403.416  -2
 -10   3   4 720.394 403.416   1
 -10  -3  -1 450.039 394.717  -2
 -10   3   3 450.039 394.717   1
  10   3   0 40.1201 366.388  -2
  10  -3  -2 40.1201 366.388   1
  10   3  -1 660.354 350.035  -2
  10  -3  -1 660.354 350.035   1
  10   3  -2 76.2021 345.252  -2
  10  -3   0 76.2021 345.252   1
  10   3  -3 137.671 368.905  -2
  10  -3   1 137.671 368.905   1
  10   3  -4 359.279 356.228  -2
  10  -3   2 359.279 356.228   1
  10  -3  -5 1090.93 542.725  -2
  10   3   3 1090.93 542.725   1
 -10   3   6 889.107 986.687  -2
 -10  -3  -4 889.107 986.687   1
 -10   3   7 48.6449 986.672  -2
 -10  -3  -5 48.6449 986.672   1
 -10   4  -6 3659.51 1125.74  -2
 -10  -4   8 3659.51 1125.74   1
  10  -4   5 782.111 647.980  -2
  10   4  -7 782.111 647.980   1
 -10  -4  -4 1983.35 651.756  -2
 -10   4   6 1983.35 651.756   1
 -10  -4  -3 173.745 536.756  -2
 -10   4   5 173.745 536.756   1
 -10  -4  -2 701.791 447.774  -2
 -10   4   4 701.791 447.774   1
 -10  -4  -1 1065.80 403.544  -2
 -10   4   3 1065.80 403.544   1
 -10  -4   0 7214.87 563.954  -2
 -10   4   2 7214.87 563.954   1
  10   4  -1 1144.99 403.195  -2
  10  -4  -1 1144.99 403.195   1
  10   4  -2 8184.94 583.810  -2
  10  -4   0 8184.94 583.810   1
  10   4  -3 837.216 372.957  -2
  10  -4   1 837.216 372.957   1
  10   4  -4 864.977 434.951  -2
  10  -4   2 864.977 434.951   1
 -10  -4   5 51.8274 532.086  -2
 -10   4  -3 51.8274 532.086   1
 -10   4   6 1252.48 718.553  -2
 -10  -4  -4 1252.48 718.553   1
 -10   4   7 1500.38 1079.65  -2
 -10  -4  -5 1500.38 1079.65   1
 -10   4   8 3813.68 1225.91  -2
 -10  -4  -6 3813.68 1225.91   1
  10  -5   4 366.085 983.371  -2
  10   5  -6 366.085 983.371   1
 -10  -5  -3 2498.80 692.854  -2
 -10   5   5 2498.80 692.854   1
 -10  -5  -2 1122.17 480.233  -2
 -10   5   4 1122.17 480.233   1
 -10  -5  -1 6102.06 614.441  -2
 -10   5   3 6102.06 614.441   1
  10   5   0 594.398 415.112  -2
  10  -5  -2 594.398 415.112   1
  10   5  -1 9648.48 633.975  -2
  10  -5  -1 9648.48 633.975   1
  10   5  -2 821.912 459.132  -2
  10  -5   0 821.912 459.132   1
 -10  -5   3 7959.85 719.748  -2
 -10   5  -1 7959.85 719.748   1
 -10  -5   4 1590.61 518.335  -2
 -10   5  -2 1590.61 518.335   1
 -10  -5   5 2364.76 599.714  -2
 -10   5  -3 2364.76 599.714   1
 -10   5  -4 256.348 687.483   1
 -10   5   6 898.946 744.724  -2
 -10  -5  -4 898.946 744.724   1
 -10   5   7 8655.93 1551.55  -2
 -10  -5  -5 8655.93 1551.55   1
 -10   5   8 1106.51 1129.15  -2
 -10  -5  -6 1106.51 1129.15   1
  10  -6   2 10340.0 725.309  -2
  10   6  -4 10340.0 725.309   1
  10   6   1 819.700 473.119  -2
  10  -6  -3 819.700 473.119   1
  10   6   0 3056.41 533.974  -2
  10  -6  -2 3056.41 533.974   1
  10   6  -1 718.413 447.189  -2
  10  -6  -1 718.413 447.189   1
 -10  -6   2 4231.78 606.533  -2
 -10   6   0 4231.78 606.533   1
 -10  -6   3 533.826 507.107  -2
 -10   6  -1 533.826 507.107   1
 -10  -6   4 10994.4 928.823  -2
 -10   6  -2 10994.4 928.823   1
 -10  -6   5 1101.15 749.707  -2
 -10   6  -3 1101.15 749.707   1
 -10  -6   6 9218.16 1068.08  -2
 -10   6  -4 9218.16 1068.08   1
 -10   6   7 27.6894 1084.23  -2
 -10  -6  -5 27.6894 1084.23   1
 -10   7  -1 4782.02 919.597  -2
 -10  -7   3 4782.02 919.597   1
  10   7   0 275.495 570.301  -2
  10  -7  -2 275.495 570.301   1
  10   7  -1 1002.64 543.717  -2
  10  -7  -1 1002.64 543.717   1
 -10  -7   2 1057.23 625.995  -2
 -10   7   0 1057.23 625.995   1
 -10  -7   3 7600.29 1001.08  -2
 -10   7  -1 7600.29 1001.08   1
 -10  -7   4 1951.69 773.093  -2
 -10   7  -2 1951.69 773.093   1
 -10  -7   5 4610.13 929.282  -2
 -10   7  -3 4610.13 929.282   1
 -10  -7   6 1277.29 751.241  -2
 -10   7  -4 1277.29 751.241   1
 -10   8  -1 105.933 708.573  -2
 -10  -8   3 105.933 708.573   1
 -10   8   0 2905.10 852.031  -2
 -10  -8   2 2905.10 852.031   1
  10  -8  -1 488.835 809.429  -2
  10   8  -1 488.835 809.429   1
 -10   8   2 3404.71 1230.55  -2
 -10  -8   0 3404.71 1230.55   1
 -10   8   3 2088.91 1046.18  -2
 -10  -8  -1 2088.91 1046.18   1
 -10   8   4-79.6325 1030.49  -2
 -10  -8  -2-79.6325 1030.49   1
 -10   9   0 707.108 1205.33  -2
 -10  -9   2 707.108 1205.33   1
 -10   9   1-857.402 1089.50  -2
 -10  -9   1-857.402 1089.50   1
  11   0   2 546.078 1047.86  -2
  11   0  -4 546.078 1047.86   1
  11  -1   1 888.056 1034.69  -2
  11   1  -3 888.056 1034.69   1
 -11  -2  -2 114.822 1112.32  -2
 -11   2   4 114.822 1112.32   1
 -11  -2  -1 4956.95 798.005  -2
 -11   2   3 4956.95 798.005   1
  11  -2   0-58.7012 882.110  -2
  11   2  -2-58.7012 882.110   1
  11  -2  -1 195.747 880.223  -2
  11   2  -1 195.747 880.223   1
  11  -2  -2 125.017 724.954  -2
  11   2   0 125.017 724.954   1
 -11  -3  -1 217.928 659.459  -2
 -11   3   3 217.928 659.459   1
 -11  -3   0 4689.50 790.830  -2
 -11   3   2 4689.50 790.830   1
  11  -3  -1 467.314 826.397  -2
  11   3  -1 467.314 826.397   1
  11  -3  -2 2914.77 1213.21  -2
  11   3   0 2914.77 1213.21   1
  11  -3  -3 1217.45 1087.52  -2
  11   3   1 1217.45 1087.52   1
 -11  -4   0 1782.83 1119.74  -2
 -11   4   2 1782.83 1119.74   1
  -1   0   2 1174.41 125.755   2
   1   0   2 25.8316 146.861   2
  -1  -1   4 947.372 171.165   2
  -1   1   3 390.996 236.566   2
  -1   1   2 12974.4 264.259   2
  -1   1   1 7.93773 61.1498   2
  -1   1   0 12640.1 282.489   2
  -1   1  -1 217.588 83.9301   2
  -1  -1  -2 75.9409 117.332   2
   1   1   3 873.931 271.864   2
  -1  -1  -4 909.914 307.591   2
  -1   1  -5 259.196 200.642   2
   1  -2  -8 6701.12 674.857   2
  -1  -2   7 9721.93 737.192   2
   1  -2  -2 1740.80 185.455   2
  -1   2   1 4416.67 124.270   2
   1  -2   0 179.586 59.1902   2
  -1   2  -1 35921.9 279.129   2
  -1  -2  -2 3867.72 147.670   2
  -1  -2  -3 30906.3 610.688   2
  -1   3   3 6959.24 166.865   2
   1  -3  -2 21930.7 197.965   2
  -1   3   1 30.6506 61.1404   2
   1  -3   0 1174.04 73.6816   2
  -1  -3  -1 5649.77 94.2259   2
  -1  -3  -2 164947. 724.054   2
   1   3   3 3503.04 231.524   2
   1  -4  -3 7048.79 119.189   2
   1  -4  -2 28.1116 102.001   2
   1  -4  -1 13487.9 214.390   2
   1  -4   0 2931.50 88.0392   2
  -1  -4  -1 35194.8 271.507   2
  -1  -4  -2 4900.41 201.694   2
  -1  -4  -3 49305.0 915.737   2
  -1  -5   5 8535.12 264.613   2
   1  -5  -3 165.100 94.4439   2
   1  -5  -2 6418.88 269.657   2
   1  -5  -1 81.7996 83.7306   2
  -1  -5   0 7681.98 208.564   2
  -1  -5  -1 18.3231 72.8851   2
  -1   5  -2 636.612 228.349   2
   1   6  -4 29.9437 119.781   2
   1  -6  -2 150.503 176.289   2
   1  -6  -1 192.191 102.738   2
   1  -6   0 121.792 243.619   2
  -1   7  11 724.353 410.778   2
   1  -7  -1 103.062 88.0193   2
   1  -7   4 2721.59 458.212   2
  -1   8   8 1317.95 193.303   2
  -1  -8   6 4114.82 206.919   2
   1  -8  -1 10674.0 347.781   2
  -1   9  10 196.172 180.088   2
  -1   9   9 5473.67 210.234   2
  -1  -9   6 31040.2 647.370   2
   1  -9  -1 126.421 104.227   2
   1 -10  -1 7894.73 316.527   2
   1 -11  -1 213.362 72.4208   2
   1 -12  -1 66.3108 55.9232   2
  -1 -12  -3 3291.07 173.922   2
   1 -13   0 3855.45 243.469   2
   2   0 -16 1039.54 792.012   2
   2   0 -14 1210.24 371.570   2
  -2   0  12 2804.28 305.780   2
  -2   0  10 30191.1 761.878   2
  -2   0   8 4191.19 241.393   2
  -2   0   6 12358.6 312.407   2
  -2   0   4 60115.7 606.864   2
  -2   0   2 227030. 1749.12   2
  -2   0   0 1016.62 105.021   2
  -2   0  -2 11181.2 330.397   2
  -2   0  -4 93772.3 1024.45   2
   2   0   6 38179.5 683.546   2
  -2   0  -8 2256.65 146.839   2
  -2   0 -10 4989.85 494.681   2
  -2   0 -12 10220.5 723.188   2
  -2   0 -14 128.994 436.597   2
  -2   0 -16 1846.78 554.332   2
   2   1 -17 1637.59 526.551   2
   2   1 -16 1293.07 780.007   2
   2   1 -15 369.431 507.525   2
   2   1 -14 3626.31 382.737   2
   2  -1 -13 388.649 224.149   2
  -2  -1  12 487.214 210.577   2
   2   1 -11 8587.48 346.674   2
  -2   1  10 25029.6 402.299   2
  -2  -1   9 18163.4 374.416   2
   2  -1  -8 638.226 113.028   2
   2  -1  -7 157.741 82.8733   2
  -2  -1   6 10698.6 190.269   2
  -2   1   5 1292.71 86.7079   2
  -2   1   4 1688.81 112.198   2
  -2   1   3 48306.7 304.890   2
  -2   1   2 5474.57 98.0904   2
  -2   1   1 7216.97 109.445   2
  -2   1   0 111.466 59.3789   2
  -2  -1  -1 4139.86 114.082   2
  -2  -1  -2 1150.38 98.0047   2
  -2  -1  -3 19961.0 277.800   2
  -2   1  -4 6919.46 208.066   2
  -2  -1  -5 43488.5 529.667   2
   2   1   6 9811.30 276.399   2
   2   1   7 460.066 175.338   2
  -2  -1  -8 6834.24 224.308   2
  -2  -1  -9 301.941 115.529   2
  -2  -1 -10 1616.75 159.810   2
  -2  -1 -11 10460.9 312.336   2
  -2   1 -12 13328.0 558.187   2
   2   1  13 3252.27 367.097   2
   2   1  14 2088.77 351.025   2
  -2  -1 -15 159.775 473.363   2
  -2  -1 -16 1086.17 537.492   2
   2   1  17 178.346 774.755   2
   2   2 -17 5620.05 804.918   2
   2   2 -16 1635.65 551.990   2
   2   2 -15 747.832 462.034   2
   2   2 -14 1289.30 306.553   2
   2   2 -13 363.507 277.475   2
   2   2 -12 180.466 190.493   2
   2  -2 -11 6999.49 308.127   2
  -2   2  10 4079.53 191.530   2
   2   2  -9 7275.70 265.868   2
  -2   2   8 1162.32 108.139   2
   2  -2  -7 499.311 94.0224   2
  -2  -2   6 2772.72 99.1827   2
  -2  -2   5 76.1232 59.1057   2
  -2   2   4 3613.99 116.245   2
  -2   2   3 2512.74 62.1273   2
  -2   2   2 83.1900 58.1876   2
  -2   2   1 27.7694 39.6819   2
   2  -2   0 5402.87 91.1499   2
   2  -2   1 11.2862 49.9877   2
  -2  -2  -2 17582.6 194.386   2
  -2  -2  -3 224.226 75.7241   2
  -2  -2  -4 1742.66 95.1216   2
  -2  -2  -5 4154.85 179.782   2
   2   2   6 75.5457 145.421   2
  -2  -2  -7 96.2147 139.593   2
   2  -2   8 237.127 140.872   2
  -2  -2  -9 31.8058 125.018   2
   2  -2  10 1563.64 179.104   2
  -2  -2 -11 8370.32 310.022   2
   2   2  12 3835.24 352.071   2
   2   2  13 5017.00 415.217   2
  -2  -2 -14 497.787 430.115   2
   2   2  15 137.212 339.651   2
  -2  -2 -16 1435.31 440.127   2
  -2  -2 -17 721.916 534.843   2
   2   3 -17 55.0433 581.717   2
   2   3 -15-80.3453 464.714   2
   2   3 -14 2173.62 355.289   2
   2   3 -13 133.310 239.025   2
   2   3 -12 1915.45 284.551   2
  -2   3  11-16.9638 138.616   2
   2  -3 -10 360.589 145.612   2
  -2   3   9 131.309 94.3130   2
  -2   3   8 2328.97 96.7291   2
  -2   3   7 127.705 54.5995   2
  -2  -3   6 8105.80 194.817   2
  -2   3   5 34.3970 67.5611   2
  -2   3   4 1103.60 69.6022   2
  -2  -3   3 1073.18 73.8975   2
  -2   3   2 116.603 56.6425   2
  -2   3   1 1138.95 50.2177   2
   2  -3   0 39.9453 47.5657   2
  -2   3  -1 161.483 52.7069   2
   2  -3   2 1724.36 76.9705   2
  -2   3  -3 84.6967 63.0684   2
  -2   3  -4 615.108 106.992   2
   2  -3   5 682.222 110.360   2
   2   3   6 81.5154 114.866   2
  -2  -3  -7 86.9218 159.236   2
   2  -3   8 3281.75 199.789   2
   2   3   9 34.1526 130.795   2
  -2  -3 -10 7739.21 270.751   2
   2   3  11 7.92259 172.282   2
   2  -3  12 1016.27 579.293   2
   2   3  13 76.2550 290.074   2
   2   3  14 141.987 352.208   2
   2   3  15 213.036 462.154   2
   2   3  16 1913.21 538.441   2
  -2  -3 -17 163.754 544.037   2
   2   3  18 6847.20 1188.87   2
   2   4 -17 2320.82 567.393   2
   2   4 -16 671.858 719.579   2
   2   4 -14 307.297 285.559   2
   2   4 -13 934.823 270.538   2
   2   4 -12 1715.67 260.084   2
   2   4 -11 2340.79 173.833   2
  -2   4  10 3336.41 132.240   2
   2  -4  -9 1045.50 115.933   2
  -2   4   8 2019.22 129.896   2
   2  -4  -7 633.230 82.3849   2
   2  -4  -6 8029.53 168.528   2
  -2   4   5 474.995 65.4527   2
  -2   4   4 4479.35 159.812   2
  -2   4   3 85.1124 90.9679   2
  -2   4   2 203.073 68.6568   2
  -2   4   1 564.045 60.5021   2
  -2   4   0 9506.05 126.777   2
   2  -4   1 209.492 58.5477   2
  -2   4  -2 19901.7 195.367   2
  -2  -4  -3 816.442 80.2967   2
  -2  -4  -4 3155.00 115.277   2
  -2   4  -5 431.593 72.9103   2
  -2  -4  -6 846.439 144.988   2
  -2  -4  -7 56.1105 151.287   2
  -2  -4  -8 1699.82 217.023   2
   2   4   9 968.864 205.849   2
   2   4  10 1923.50 208.212   2
   2   4  11 3259.86 292.771   2
   2   4  12 5522.13 405.249   2
   2   4  13 1446.62 274.773   2
   2   4  14 2063.32 698.678   2
  -2  -4 -15 95.6472 447.465   2
  -2  -4 -16 886.870 512.034   2
  -2  -4 -17 663.142 437.868   2
   2   5 -17 2265.78 949.304   2
   2   5 -16 482.653 540.417   2
   2   5 -15-9.23823 680.409   2
   2   5 -14 3359.92 828.322   2
   2   5 -13 629.644 246.530   2
  -2  -5  12 794.102 225.316   2
  -2  -5  11 13552.5 437.384   2
  -2   5  10 13681.5 520.014   2
  -2   5   9 5381.67 243.236   2
  -2   5   8 220.058 70.9445   2
  -2   5   7 576.875 82.0548   2
  -2   5   6 4854.30 129.695   2
  -2   5   5 14345.8 179.139   2
  -2   5   4 1720.27 131.083   2
  -2   5   3 27706.8 374.292   2
  -2   5   2 474.984 52.2385   2
  -2   5   1 9053.52 168.522   2
   2  -5   0 50.2871 65.1422   2
  -2   5  -1 6133.65 138.031   2
   2  -5   2 1880.68 72.5755   2
  -2  -5  -3 13644.9 196.966   2
  -2  -5  -4 4722.70 140.099   2
  -2  -5  -5 17817.9 320.863   2
  -2  -5  -6 8339.60 316.246   2
  -2  -5  -7 7142.28 289.632   2
   2   5   8 4944.60 454.464   2
  -2  -5  -9 776.980 258.070   2
   2   5  10 2010.77 186.305   2
  -2  -5 -11 3305.77 261.712   2
   2   5  12 10056.3 507.027   2
  -2  -5 -13 8103.19 449.380   2
  -2  -5 -14 1655.36 387.754   2
   2   5  15 1309.50 728.615   2
   2   5  16 1326.89 450.647   2
   2   5  17 240.663 438.817   2
   2   6 -17 433.403 776.081   2
   2   6 -16 55.0567 738.407   2
   2   6 -14 300.302 416.101   2
   2   6 -13 1848.70 281.530   2
   2   6 -12 4149.04 334.270   2
   2   6 -11 1996.89 256.525   2
  -2  -6  10 19275.0 856.195   2
  -2   6   9 179.586 160.933   2
  -2   6   8 743.660 145.403   2
  -2   6   7 8145.49 283.846   2
  -2   6   6 3050.25 151.468   2
  -2   6   5 1474.25 79.0319   2
  -2   6   4 31929.2 230.027   2
   2  -6  -3 3642.69 104.779   2
  -2   6   2 75633.6 382.982   2
  -2   6   1 10474.7 201.817   2
   2  -6   0 905.511 98.2338   2
   2  -6   1 72.2883 78.6440   2
   2  -6   2 2331.28 85.4950   2
   2  -6   3 10957.3 179.550   2
  -2  -6  -4 44114.8 413.476   2
  -2   6  -5 3005.00 142.817   2
  -2  -6  -6 25462.2 365.589   2
  -2  -6  -7 1369.35 321.646   2
  -2  -6  -8 21.8662 242.379   2
  -2  -6  -9 4892.44 202.593   2
  -2  -6 -10 692.894 130.263   2
   2   6  11 200.274 360.808   2
  -2  -6 -12 5892.66 425.739   2
   2   6  13 1508.82 362.930   2
   2   6  14 1441.66 396.317   2
   2   6  15 2804.31 825.977   2
   2   6  16 1379.76 816.402   2
   2   6  17 835.371 808.226   2
   2   7 -16 1271.45 440.612   2
   2  -7 -14-90.5073 594.362   2
   2   7 -13 241.519 275.204   2
   2  -7 -12 202.430 264.715   2
  -2   7  11 1931.68 303.919   2
  -2   7  10 7925.44 470.760   2
  -2   7   9 15302.4 673.362   2
  -2   7   8 5155.09 253.867   2
  -2   7   7 345.660 78.6707   2
  -2   7   6 3257.60 149.796   2
   2  -7  -5 773.759 75.6419   2
   2  -7  -4 2413.01 83.1680   2
  -2   7   3 54436.5 449.084   2
   2  -7  -2 7659.61 165.810   2
   2  -7  -1 15411.7 209.791   2
   2  -7   0 6706.18 201.229   2
   2  -7   1 11731.4 243.143   2
   2  -7   2 3606.17 122.195   2
   2  -7   3 10813.8 187.804   2
  -2  -7  -4 9493.64 191.076   2
  -2  -7  -5 35700.4 386.723   2
   2   7   6 59.7553 92.0186   2
   2   7   7 749.887 115.122   2
  -2  -7  -8 1295.46 102.249   2
  -2  -7  -9 18.2909 77.9447   2
  -2  -7 -10 831.591 284.140   2
  -2  -7 -11 9964.56 680.154   2
  -2  -7 -12 3810.78 761.997   2
   2   7  13 554.385 330.757   2
  -2  -7 -14 957.371 620.044   2
   2   7  15 754.001 648.304   2
   2   7  16 692.552 717.450   2
  -2  -7 -17 1232.40 824.219   2
   2   8 -16 1257.65 567.649   2
   2   8 -15 1471.32 515.152   2
   2   8 -13 1298.86 652.954   2
  -2   8  12 2016.04 327.352   2
  -2   8  11 5383.00 370.224   2
  -2   8  10 2307.55 296.956   2
  -2   8   9 12386.4 483.948   2
  -2   8   8 4189.35 215.891   2
  -2   8   7 263.788 75.6557   2
  -2   8   6 95.2154 55.2463   2
  -2   8   5 520.107 71.7891   2
  -2   8   4 81.0178 77.0408   2
   2  -8  -3 3799.00 124.384   2
   2  -8  -2 181.409 60.0913   2
   2  -8  -1 415.877 60.2528   2
  -2   8   0 196.371 51.2138   2
  -2   8  -1 84.5962 92.0930   2
  -2   8  -2 2550.09 111.458   2
  -2  -8  -3 296.221 89.2005   2
  -2  -8  -4 6068.54 172.888   2
  -2  -8  -5 4790.23 172.254   2
   2   8   6 811.408 124.405   2
  -2  -8  -7 123.743 109.421   2
  -2  -8  -8 1152.75 135.411   2
  -2   8  -9 188.921 68.7371   2
  -2  -8 -10 3192.59 438.827   2
  -2  -8 -11 6354.86 816.032   2
  -2  -8 -12 2660.54 478.500   2
  -2  -8 -13 4775.88 611.073   2
   2   8  14 1255.71 668.279   2
   2   8  15 2754.59 860.160   2
   2   8  16 453.313 722.516   2
   2   8  17 1352.55 842.061   2
   2   9 -16 2646.23 916.457   2
   2   9 -15 114.733 527.885   2
   2  -9 -12 426.824 619.769   2
   2  -9 -11 413.057 582.777   2
  -2   9  10 813.250 187.417   2
  -2   9   9 652.428 156.522   2
  -2   9   8 325.128 84.7761   2
  -2  -9   7 1090.00 166.525   2
  -2  -9   6 1913.12 273.207   2
  -2   9   5 168.638 79.0800   2
   2  -9  -4 2481.48 159.336   2
   2  -9  -3 3184.12 157.866   2
   2  -9  -2 57.5985 57.6296   2
   2  -9  -1 3084.71 91.9740   2
  -2   9   0 1250.45 83.8888   2
   2  -9   1 207.128 95.6414   2
  -2   9  -2 63.0532 81.2833   2
  -2   9  -3 588.707 98.8579   2
  -2  -9  -4 159.482 93.5336   2
  -2  -9  -5 5887.69 206.265   2
   2   9   6 124.676 164.563   2
  -2   9  -7 1167.79 147.417   2
  -2   9  -8 702.716 129.867   2
  -2  -9  -9 204.856 318.546   2
  -2  -9 -10 4776.16 431.241   2
  -2  -9 -12 1768.30 635.052   2
   2  10 -16 141.872 752.042   2
   2 -10 -15 661.966 622.061   2
   2 -10 -11 723.015 624.516   2
  -2  10  10 1980.84 311.980   2
   2 -10  -9 344.121 562.376   2
   2 -10  -8 2843.83 675.211   2
  -2 -10   7 1478.49 203.751   2
  -2 -10   6 4876.76 257.500   2
  -2  10   5 396.543 110.955   2
   2 -10  -4 2932.81 168.521   2
  -2 -10   3 249.897 127.145   2
   2 -10  -2 2743.56 151.845   2
   2 -10  -1 316.892 66.8579   2
   2 -10   0 6608.40 163.152   2
  -2  10  -1 54.0258 112.462   2
   2 -10   2 8932.16 263.775   2
  -2  10  -3 1429.62 123.875   2
  -2  10  -4 4749.41 192.389   2
  -2  10  -5 165.468 156.875   2
  -2 -10  -6 1276.62 186.430   2
   2  10   7 141.065 134.735   2
  -2 -10  -8 781.227 241.758   2
  -2 -10  -9 1642.66 478.857   2
  -2 -10 -10 1398.60 498.592   2
  -2 -10 -11 441.934 519.363   2
  -2 -10 -12 4497.12 788.610   2
  -2  11  14 1139.13 521.310   2
   2 -11 -10 1012.44 656.209   2
   2 -11  -9 1230.66 628.416   2
   2 -11  -8 656.562 588.081   2
   2 -11  -7 1723.48 229.271   2
  -2  11   6 945.363 165.869   2
   2 -11  -5 11910.4 296.828   2
   2 -11  -4 53.5962 122.452   2
   2 -11  -3 6620.02 233.061   2
   2 -11  -2 123.296 121.225   2
   2 -11  -1 3529.35 133.865   2
  -2  11   0 619.050 104.663   2
   2 -11   1 9368.29 262.576   2
  -2  11  -2 504.160 141.574   2
   2 -11   3 5447.92 216.026   2
  -2 -11  -4 714.699 142.501   2
   2  11   5 5486.00 378.537   2
   2  11   6 501.310 289.928   2
  -2 -11  -7 7621.59 454.839   2
  -2 -11  -8 1025.71 406.678   2
   2  11  11 1743.70 657.669   2
  -2  12  14-25.1573 1043.86   2
   2 -12 -11 1006.62 708.272   2
   2 -12 -10 5324.37 939.013   2
   2 -12  -9 123.234 664.903   2
   2 -12  -8 26.7951 591.543   2
   2 -12  -7 5093.70 828.131   2
  -2  12   6 595.760 176.243   2
   2 -12  -5 1708.25 165.769   2
   2 -12  -4 17066.7 441.084   2
   2 -12  -3 1438.42 172.225   2
   2 -12  -2 13731.0 327.828   2
   2 -12  -1 6206.14 167.134   2
  -2  12   0 1096.01 152.441   2
   2 -12   1 75.3612 149.510   2
  -2 -12  -2 278.392 155.102   2
   2 -12   3 6000.40 277.779   2
  -2 -12  -4 7161.67 341.881   2
  -2 -12  -5 2097.77 269.835   2
   2  12   6 14895.2 1211.32   2
  -2 -12  -7 1158.04 401.158   2
  -2 -12  -9 6452.33 721.108   2
   2 -13  -8 8405.36 1074.47   2
   2 -13  -7 377.291 598.100   2
  -2  13   6 67.0453 156.032   2
  -2 -13   5 133.277 159.522   2
   2 -13  -4 7900.88 377.419   2
   2 -13  -3 12841.4 436.070   2
   2 -13  -2 5614.62 243.495   2
   2 -13  -1 3433.63 267.429   2
  -2 -13   0 11774.5 474.382   2
  -2  13  -1 2654.01 273.329   2
  -2 -13  -2 9497.90 466.228   2
  -2 -13  -3 1741.46 251.234   2
  -2 -13  -4 6820.80 352.606   2
   2  13   6 3185.50 514.363   2
  -2  14  13 353.155 928.777   2
   2 -14  -9 3845.87 887.296   2
   2 -14  -8 3362.53 877.970   2
  -2 -14   7 342.538 340.581   2
  -2 -14   6 1533.56 346.735   2
   2 -14  -5 1811.86 366.640   2
   2 -14  -4 1110.40 163.722   2
   2 -14  -3 456.155 217.466   2
   2 -14  -2 540.083 151.932   2
  -2 -14   1 3054.05 351.874   2
  -2  14   0 903.522 263.087   2
  -2 -14  -1 149.767 220.081   2
  -2  14  -2 50.7555 172.665   2
  -2  14  -3 2996.38 611.604   2
  -2  14  -4 2717.00 598.184   2
   2  14   6 1187.55 636.574   2
  -2  15   6 222.490 641.562   2
   2 -15  -5 1447.29 618.672   2
   2  15  -4 1319.09 262.811   2
  -2  15   3 1928.75 282.889   2
   2 -15  -2 152.690 189.843   2
  -2  15   1 1637.85 244.778   2
  -2  15   0 1272.29 299.206   2
  -2  15  -1 257.636 344.523   2
  -2  15  -2 144.567 500.616   2
  -2  15  -3 245.857 487.388   2
  -2  15  -4 111.640 459.982   2
   2  15   6 319.621 649.816   2
   2 -16  -6 2004.00 758.464   2
   2 -16  -4 1671.50 716.889   2
   2  16  -3-31.4146 263.877   2
  -2  16   2 3962.40 399.091   2
  -2  16   1 286.797 375.911   2
  -2  16   0 3419.38 500.352   2
  -2  16  -1-92.2197 581.041   2
  -2  16  -2 3282.08 479.759   2
  -2  16  -3 208.000 549.230   2
   2 -16   4 6799.15 916.202   2
  -2  17   7 1969.13 858.637   2
   2 -17  -4 819.113 494.153   2
  -2  17   3 1816.66 794.650   2
  -2 -17   2 197.448 533.263   2
  -2  17   1 1889.20 459.281   2
  -2  17   0 597.935 403.125   2
  -2  17  -1 3622.07 546.390   2
  -2  17  -2-384.309 592.670   2
  -2  17  -3 2728.15 508.230   2
   2  17   6 341.252 780.585   2
   2 -18  -5 35.4376 542.426   2
  -2  18   4 3655.05 982.064   2
  -2  18   3 161.217 738.144   2
  -2  18   2 392.961 718.573   2
  -2  18   1 1099.50 456.185   2
  -2  18   0 1157.68 390.179   2
  -2  18  -1 147.009 375.190   2
  -2  18  -2 511.646 462.304   2
  -2  18  -3 1395.28 492.615   2
   2 -18   6 5086.62 991.147   2
   2 -18   7-46.2773 733.574   2
  -2  19   2 2878.29 902.580   2
  -2  19   1-100.632 712.498   2
  -2  19   0 5381.95 707.702   2
  -2  19  -1-34.7938 400.895   2
  -2  19  -2 2966.59 491.600   2
  -2  19  -3 163.002 402.918   2
   2  19   4 3534.15 945.570   2
  -3   0  16 3158.16 697.402   2
   3   0 -14 2207.48 307.000   2
  -3   0  12 3676.55 310.856   2
  -3   0  10 5241.48 228.830   2
  -3   0   8 154.378 134.067   2
  -3   0   6 81.5876 97.8067   2
  -3   0   4 3977.94 148.156   2
   3   0  -2 540.296 87.3942   2
  -3   0   0 43.8506 98.0705   2
  -3   0  -2 46.2226 172.673   2
  -3   0  -4 4027.39 193.745   2
   3   0   6 2839.26 253.087   2
   3   0   8 166.288 282.086   2
   3   0  10 1585.27 305.750   2
  -3   0 -12 9069.45 558.462   2
   3   0  14 3045.98 421.387   2
  -3   0 -16 116.313 540.382   2
   3   1 -17 986.745 458.614   2
  -3   1  16 2819.83 492.135   2
   3  -1 -15 4824.51 323.437   2
  -3   1  14 2150.95 251.201   2
   3  -1 -13 461.985 161.189   2
   3   1 -12 162.052 149.136   2
  -3   1  11 135.450 128.299   2
   3  -1 -10 1060.96 118.939   2
   3  -1  -9 4236.27 154.663   2
  -3   1   8 3035.13 127.786   2
  -3  -1   7 3326.53 116.344   2
   3   1  -6 511.847 82.7569   2
  -3   1   5 152.300 77.4210   2
  -3   1   4 8540.02 143.005   2
   3   1  -3 305.497 62.6789   2
  -3   1   2 9133.59 126.910   2
   3  -1  -1 95.0411 59.7323   2
  -3   1   0 409.149 65.2204   2
  -3  -1  -1 40.5964 67.7284   2
  -3   1  -2 828.717 81.2656   2
  -3  -1  -3 40.3972 84.3359   2
  -3   1  -4 13214.9 256.061   2
  -3  -1  -5 1381.25 129.180   2
  -3   1  -6 5585.07 208.393   2
   3  -1   7 3419.11 155.701   2
   3  -1   8 621.753 197.562   2
   3  -1   9 104.408 178.567   2
   3  -1  10 184.876 113.552   2
   3  -1  11 60.9983 99.7798   2
   3  -1  12 120.572 214.644   2
   3  -1  13 3380.09 294.883   2
   3   1  14 2508.53 286.434   2
   3   1  15 3137.93 365.466   2
  -3   1 -16 2018.70 415.155   2
   3   2 -17 960.960 481.606   2
   3   2 -16 4060.62 509.693   2
  -3   2  15 6580.25 394.602   2
   3  -2 -14 5704.20 330.361   2
   3   2 -13 527.565 159.635   2
   3  -2 -12 4039.84 219.219   2
  -3   2  11 153.731 115.080   2
  -3   2  10 945.138 115.367   2
  -3   2   9 13912.4 235.251   2
  -3   2   8 17113.6 229.177   2
  -3   2   7 17400.2 250.364   2
  -3   2   6 1657.93 96.2030   2
  -3   2   5 405.035 71.7307   2
  -3   2   4 4209.16 113.625   2
  -3   2   3 7844.36 128.757   2
  -3   2   2 241.630 53.0264   2
   3  -2  -1 45529.6 270.766   2
  -3   2   0 165.610 63.6020   2
   3  -2   1 13654.6 176.483   2
   3  -2   2 15.8504 71.3199   2
   3  -2   3 387.952 79.2907   2
  -3  -2  -4 8027.16 178.768   2
  -3   2  -5 7923.53 181.164   2
  -3   2  -6 1834.86 104.450   2
  -3  -2  -7 19132.5 369.516   2
  -3  -2  -8 16581.3 484.865   2
   3   2   9 4143.10 256.866   2
   3  -2  10 804.998 196.053   2
   3  -2  11 336.458 144.321   2
   3  -2  12 3039.31 274.646   2
  -3   2 -13 2529.41 272.472   2
   3   2  14 4840.08 401.217   2
   3   2  15 3825.04 356.229   2
   3   2  16 2055.47 365.101   2
   3   2  17 1010.69 715.975   2
   3   3 -17-182.646 606.346   2
   3   3 -16 829.062 410.026   2
   3   3 -15 306.884 246.843   2
   3   3 -14 1748.35 311.905   2
  -3   3  13 344.899 226.485   2
  -3   3  12 184.855 119.047   2
  -3  -3  11 1241.91 122.706   2
  -3   3  10 1903.55 117.249   2
  -3   3   9 619.060 77.8932   2
  -3   3   8 48140.8 450.811   2
  -3   3   7 76.8549 97.3897   2
  -3   3   6 16586.6 256.564   2
  -3   3   5 3532.45 105.541   2
  -3   3   4 16762.0 189.172   2
   3  -3  -3 144.388 46.9817   2
  -3   3   2 13810.4 136.529   2
  -3   3   1 1898.63 68.9426   2
   3  -3   0 141166. 467.191   2
   3  -3   1 3407.21 96.1622   2
  -3  -3  -2 3402.51 101.466   2
  -3  -3  -3 99.4738 61.4038   2
  -3  -3  -4 6257.79 167.705   2
  -3  -3  -5 3959.64 141.461   2
  -3  -3  -6 31982.6 422.700   2
  -3  -3  -7 569.144 159.159   2
  -3  -3  -8 23913.6 578.924   2
   3  -3   9 792.538 186.754   2
   3  -3  10 211.229 170.850   2
   3   3  11 1798.38 214.024   2
   3   3  12 2097.34 233.367   2
   3   3  13 180.759 204.672   2
   3   3  14 3902.73 368.664   2
   3   3  15 709.901 285.926   2
   3   3  16 337.742 298.088   2
  -3  -3 -17 722.576 536.630   2
   3   4 -17 168.822 630.197   2
   3   4 -16 3217.59 403.503   2
  -3   4  15 1780.57 338.154   2
  -3   4  14 6420.18 436.963   2
  -3   4  13 1945.66 291.575   2
   3   4 -12 1019.65 245.981   2
   3  -4 -11 457.386 131.916   2
   3   4 -10 1811.22 131.823   2
  -3   4   9 3493.03 154.155   2
  -3   4   8 12215.6 232.502   2
  -3   4   7 27859.6 363.866   2
  -3   4   6 7238.18 162.778   2
  -3   4   5 106.725 108.268   2
  -3   4   4 3425.88 113.326   2
  -3   4   3 1482.64 92.3826   2
  -3   4   2 2735.24 109.666   2
   3  -4  -1 50159.6 256.200   2
  -3   4   0 190.062 41.7668   2
  -3   4  -1 22360.2 189.820   2
   3  -4   2 1533.61 78.4105   2
  -3  -4  -3 7444.24 143.499   2
   3  -4   4 1271.10 102.810   2
  -3  -4  -5 5021.58 174.516   2
  -3  -4  -6 4873.92 230.484   2
  -3  -4  -7 30765.9 520.370   2
  -3  -4  -8 8330.89 330.914   2
  -3  -4  -9 195.360 180.251   2
   3   4  10 579.453 168.887   2
   3   4  11 238.766 183.243   2
   3   4  12 816.050 195.532   2
  -3  -4 -13 6872.51 396.059   2
   3   4  14 4849.92 376.196   2
   3   4  15 1043.26 297.696   2
   3   4  16 2180.53 342.079   2
   3   4  17 155.353 746.646   2
   3   5 -17 132.224 735.969   2
  -3   5  16 1001.47 300.182   2
  -3   5  15 8636.25 463.370   2
  -3   5  14 4079.42 333.394   2
  -3   5  13 2717.44 283.790   2
   3   5 -12 133.700 203.985   2
   3   5 -11 1485.71 217.317   2
   3  -5 -10 293.541 98.7347   2
  -3   5   9 2857.62 137.516   2
   3  -5  -8 1661.71 122.396   2
  -3   5   7 8812.54 224.462   2
  -3  -5   6 1415.97 139.108   2
  -3   5   5 41.2879 110.303   2
  -3   5   4 2378.73 101.395   2
  -3   5   3 264.262 72.3978   2
  -3   5   2 5687.84 139.051   2
   3  -5  -1 975.469 75.0682   2
   3  -5   0 72.1564 59.9662   2
   3  -5   1 208.853 64.9606   2
   3  -5   2 378.090 67.8664   2
  -3   5  -3 64.6010 74.4080   2
  -3  -5  -4 5696.09 154.085   2
  -3   5  -5 191.667 103.466   2
  -3  -5  -6 7412.22 250.041   2
  -3  -5  -7 7520.18 262.339   2
  -3  -5  -8 139.647 174.471   2
  -3  -5  -9 1097.13 199.038   2
   3   5  10 759.406 187.447   2
   3   5  11 664.412 183.278   2
   3   5  12 420.026 233.495   2
   3   5  13 4754.93 350.885   2
  -3  -5 -14 2460.24 325.182   2
   3   5  15 6381.34 430.586   2
   3   5  16 206.027 331.105   2
   3   5  17 203.944 742.424   2
  -3   6  17 683.118 659.187   2
   3   6 -16 1415.50 391.132   2
  -3   6  15 375.510 278.589   2
  -3   6  14 2156.89 255.678   2
  -3   6  13 223.420 223.307   2
   3   6 -12 2567.56 254.139   2
  -3   6  11 700.794 201.254   2
  -3   6  10 3338.93 158.008   2
  -3   6   9 8.75355 88.6294   2
  -3   6   8 404.851 91.8022   2
  -3   6   7 1058.58 158.953   2
  -3  -6   6 54.9391 107.044   2
  -3   6   5 1103.63 125.494   2
  -3   6   4 1430.11 130.875   2
  -3   6   3 70.7301 66.8474   2
  -3   6   2 1653.72 64.4684   2
  -3   6   1 2197.61 98.6739   2
  -3   6   0 123.060 66.9726   2
  -3   6  -1 5008.26 133.099   2
   3  -6   2 184.634 42.6705   2
   3  -6   3 123.985 74.1262   2
  -3   6  -4 2501.37 109.179   2
  -3   6  -5 59.2997 89.5317   2
   3   6   6 1132.49 143.340   2
  -3  -6  -7 2045.52 173.521   2
  -3  -6  -8 347.755 179.348   2
  -3  -6  -9 568.158 193.874   2
  -3  -6 -10 333.242 204.968   2
   3   6  11 71.2681 163.810   2
   3   6  12 6075.31 375.935   2
   3   6  13 142.578 260.235   2
   3   6  14 3659.16 384.920   2
   3   6  15 169.131 324.497   2
   3   6  16 226.524 333.861   2
  -3  -6 -17 475.702 764.785   2
  -3   7  17 2007.19 715.225   2
   3   7 -16 2302.99 524.979   2
   3   7 -15 1776.07 355.200   2
  -3   7  14 1692.56 313.130   2
   3   7 -13 177.346 196.215   2
  -3   7  12 766.534 189.465   2
  -3   7  11 1127.83 194.097   2
  -3   7  10 1043.61 112.762   2
  -3   7   9 999.393 95.4037   2
  -3   7   8 1085.50 91.1406   2
  -3   7   7 50.1508 132.714   2
  -3   7   6 2439.19 148.754   2
  -3   7   5 1249.09 136.458   2
  -3   7   4 10226.1 252.094   2
  -3   7   3 480.554 72.1015   2
  -3   7   2 7393.27 129.238   2
  -3   7   1 638.898 79.0909   2
   3  -7   0 714.274 83.4739   2
  -3  -7  -1 181.253 77.7967   2
  -3   7  -2 2760.50 119.251   2
   3  -7   3 154.624 63.1631   2
  -3  -7  -4 10148.7 181.139   2
   3   7   5 1963.66 121.632   2
  -3  -7  -6 6952.35 194.515   2
  -3  -7  -7 672.891 142.724   2
  -3  -7  -8 2771.25 214.320   2
  -3  -7  -9 15.7727 202.409   2
  -3  -7 -10 344.796 214.719   2
  -3  -7 -11 1458.59 272.974   2
   3   7  12 252.327 264.247   2
   3   7  13 1878.55 327.630   2
   3   7  14 2906.29 362.993   2
   3   7  15 525.165 331.719   2
   3   7  16 2683.91 406.390   2
   3   8 -16 2086.80 570.293   2
   3   8 -15 4081.90 443.312   2
   3   8 -14 343.506 321.901   2
   3   8 -13 225.864 234.225   2
  -3   8  12 2980.45 312.309   2
  -3   8  11 652.341 178.621   2
  -3   8  10 94.8364 156.787   2
  -3   8   9 13654.1 415.488   2
  -3   8   8 4539.62 196.313   2
  -3   8   7 4471.59 200.316   2
  -3   8   6 159.256 112.274   2
  -3   8   5 1167.67 121.401   2
  -3   8   4 489.736 101.433   2
  -3   8   3 11475.0 178.849   2
  -3   8   2 44.7873 66.2229   2
  -3   8   1 14124.4 222.653   2
   3  -8   0 685.056 94.6237   2
   3  -8   1 6216.91 165.452   2
  -3  -8  -2 49.7209 96.1006   2
  -3  -8  -3 7135.05 155.957   2
  -3   8  -4 3021.85 120.262   2
  -3  -8  -5 4789.55 155.395   2
  -3  -8  -6 951.911 108.197   2
  -3  -8  -7 5596.39 193.403   2
  -3  -8  -8 5598.48 247.175   2
  -3  -8  -9 7197.07 389.404   2
  -3  -8 -10 598.754 243.941   2
  -3  -8 -11 462.269 259.001   2
   3   8  12 2914.75 339.498   2
   3   8  13 669.511 303.440   2
   3   8  14 1205.93 331.439   2
   3   8  15 4361.09 424.540   2
   3   8  16 1545.84 380.574   2
   3   9 -16 1376.27 512.594   2
   3   9 -15 729.996 390.142   2
  -3   9  14 772.598 310.415   2
  -3   9  13 1327.14 272.231   2
  -3   9  12 432.748 275.702   2
  -3   9  11 2568.35 308.432   2
  -3   9  10 4289.90 268.453   2
  -3   9   9 2034.07 195.874   2
  -3   9   8 20884.5 355.429   2
  -3   9   7-24.5678 92.9707   2
  -3   9   6 1932.01 122.220   2
  -3   9   5 8596.43 163.054   2
   3  -9  -4 1248.14 76.1903   2
   3  -9  -3 1269.42 66.6903   2
  -3  -9   2 12828.0 230.355   2
   3  -9  -1 4165.41 155.291   2
   3  -9   0 39139.5 433.731   2
   3  -9   1 6449.11 186.132   2
  -3  -9  -2 3580.02 154.748   2
  -3   9  -3 85.5789 57.5223   2
  -3  -9  -4 603.668 99.2283   2
  -3  -9  -5 10559.1 224.371   2
  -3  -9  -6 6401.87 187.735   2
  -3  -9  -7 1211.72 137.242   2
  -3  -9  -8 14155.5 496.907   2
   3   9   9 1920.02 269.894   2
  -3  -9 -10 2378.44 299.623   2
  -3  -9 -11 4682.58 375.811   2
   3   9  12 266.398 279.956   2
   3   9  13 929.802 295.017   2
   3   9  14 1282.13 343.582   2
   3   9  15 1163.47 355.158   2
   3  10 -15 713.013 500.723   2
  -3  10  14 3278.96 477.530   2
  -3  10  13 1210.23 362.350   2
  -3  10  12 499.308 315.020   2
  -3  10  11 370.241 288.202   2
  -3  10  10 692.150 266.579   2
  -3  10   9 1237.71 275.291   2
  -3  10   8 1086.63 152.815   2
  -3  10   7 16878.8 396.169   2
  -3  10   6 12910.7 280.230   2
   3  10  -5 25.9429 63.8238   2
   3 -10  -4 43.6903 69.1966   2
   3 -10  -3 2123.88 88.1234   2
  -3 -10   2 12072.9 214.659   2
   3 -10  -1 21910.7 293.655   2
   3 -10   0 706.366 115.747   2
   3 -10   1 12897.6 298.386   2
  -3 -10  -2 11486.4 294.176   2
  -3  10  -3 3364.98 180.430   2
  -3 -10  -4 1090.74 114.378   2
  -3 -10  -5 1856.60 152.726   2
  -3 -10  -6 7566.13 213.073   2
  -3 -10  -7 14936.6 338.196   2
   3  10   8 284.798 249.611   2
  -3 -10  -9 65.9232 236.926   2
  -3 -10 -10 127.829 254.331   2
  -3 -10 -11 248.496 269.953   2
  -3 -10 -12 871.359 295.284   2
   3  10  13 3734.43 392.082   2
   3  10  14 628.341 321.568   2
   3  10  15 374.431 466.058   2
   3  11 -14 2692.14 527.067   2
  -3  11  13 3167.50 428.876   2
  -3  11  12 255.456 328.947   2
  -3  11  11 536.307 308.183   2
  -3  11  10 3320.52 379.119   2
  -3  11   9 748.176 263.025   2
  -3  11   8 165.825 205.030   2
  -3  11   7 11371.0 394.238   2
  -3  11   6 2308.41 190.704   2
   3  11  -5 404.618 81.0901   2
  -3  11   4 150.329 50.9396   2
  -3  11   3 1364.82 73.4071   2
  -3  11   2 14.7248 52.3858   2
  -3  11   1 124.654 81.7007   2
  -3  11   0 559.889 118.155   2
  -3  11  -1 474.201 127.898   2
  -3  11  -2 2566.70 177.474   2
  -3  11  -3 37.0057 168.928   2
  -3 -11  -4 42.4160 101.564   2
  -3 -11  -5 857.607 178.470   2
  -3 -11  -6 6164.63 388.773   2
   3  11   7 3483.01 297.079   2
   3  11   8 216.698 231.999   2
  -3 -11  -9 384.907 267.559   2
  -3 -11 -10 4763.48 376.419   2
  -3 -11 -11 252.051 285.748   2
  -3 -11 -12 1051.06 305.937   2
   3  11  13 2947.14 460.567   2
   3  11  14 2109.41 500.025   2
  -3  12  13 87.3149 577.239   2
  -3  12  12 1388.30 447.260   2
  -3  12  11 1490.34 339.050   2
  -3  12  10 397.862 293.022   2
  -3  12   9 599.625 236.378   2
  -3  12   8 1365.20 236.204   2
  -3 -12   7 619.338 290.145   2
  -3 -12   6 73.6560 153.429   2
   3  12  -5 787.246 96.3896   2
  -3  12   4 100.916 67.9571   2
  -3  12   3 262.061 63.0250   2
  -3  12   2 1919.09 161.123   2
  -3  12   1 2025.77 110.750   2
  -3  12   0 456.265 101.715   2
  -3 -12  -1 5125.05 245.469   2
  -3  12  -2 1522.21 179.766   2
  -3  12  -3 253.600 179.324   2
  -3 -12  -4 662.490 251.234   2
  -3 -12  -5 178.444 245.004   2
   3  12   6 188.502 214.833   2
   3  12   7 2273.45 431.718   2
   3  12   8 280.935 314.155   2
  -3 -12  -9 2116.99 450.642   2
  -3 -12 -10 103.704 334.625   2
  -3 -12 -11 109.839 423.409   2
  -3 -12 -12 2177.76 417.620   2
   3  12  13 145.898 423.360   2
   3  12  14 3783.32 699.263   2
  -3  13  13 36.7756 927.141   2
  -3  13  12 1213.26 595.591   2
  -3  13  11 760.648 337.140   2
  -3  13  10 951.537 334.991   2
  -3  13   9 361.178 298.072   2
  -3 -13   8 1239.78 336.682   2
  -3  13   7 57.2492 312.686   2
  -3 -13   6 5015.74 312.196   2
  -3 -13   5 236.070 234.658   2
  -3  13   4 4516.39 316.766   2
  -3  13   3 399.680 142.615   2
  -3  13   2 2508.86 260.650   2
  -3  13   1 159.139 165.044   2
  -3  13   0 3114.26 255.804   2
  -3  13  -1 96.7571 184.452   2
  -3  13  -2 2373.71 270.520   2
  -3 -13  -3 78.4219 208.642   2
  -3 -13  -4 2933.61 328.020   2
  -3 -13  -5 571.609 440.400   2
  -3 -13  -6 6539.81 702.300   2
   3  13   7 163.379 382.815   2
   3  13   8 3020.84 498.910   2
  -3 -13  -9 26.9924 416.492   2
  -3 -13 -10 104.588 440.881   2
  -3 -13 -11 608.486 400.751   2
  -3 -13 -12 307.490 443.704   2
   3  13  13 473.172 543.419   2
  -3  14  12 428.008 923.594   2
  -3  14  11 1866.14 435.365   2
  -3 -14  10 258.431 337.451   2
  -3 -14   9 5646.78 466.183   2
  -3 -14   8 202.954 301.909   2
  -3 -14   7 1669.43 355.186   2
  -3 -14   6 271.852 329.984   2
  -3 -14   5 1960.73 289.276   2
  -3  14   4 282.435 211.733   2
  -3  14   3 8401.67 370.020   2
  -3  14   2 435.004 156.041   2
  -3  14   1 4548.88 268.833   2
  -3  14   0 466.382 174.950   2
  -3  14  -1 3230.31 251.473   2
  -3 -14  -2 1001.49 238.331   2
  -3 -14  -3 6198.36 526.640   2
  -3  14  -4 488.415 382.933   2
  -3 -14  -5 3382.36 576.228   2
   3  14   6 608.263 397.051   2
   3  14   7 2846.21 493.697   2
  -3 -14  -8 340.487 423.827   2
  -3 -14  -9 4114.44 563.757   2
  -3 -14 -10 17.0700 383.685   2
  -3 -14 -11 301.456 440.885   2
  -3 -14 -12 886.171 551.313   2
  -3 -15  11 961.648 603.630   2
  -3 -15  10 6005.37 779.564   2
  -3 -15   9 762.969 348.173   2
  -3 -15   8 5789.56 523.440   2
  -3 -15   7 373.715 385.727   2
  -3 -15   6 155.017 349.933   2
  -3 -15   5 3124.96 379.601   2
  -3  15   4 325.070 236.270   2
  -3  15   3 477.129 227.997   2
  -3  15   2 5367.28 310.168   2
  -3 -15   1 635.156 215.125   2
  -3  15   0 5942.97 341.942   2
  -3  15  -1 2996.52 345.717   2
  -3  15  -2 3563.88 371.637   2
  -3  15  -3 91.2855 356.364   2
  -3 -15  -4 168.229 692.453   2
  -3 -15  -5 3032.75 600.582   2
  -3 -15  -6 142.345 523.564   2
  -3 -15  -7 604.711 442.742   2
   3  15   8 4465.03 578.569   2
  -3 -15  -9 868.166 465.097   2
  -3 -15 -10 3506.76 671.882   2
  -3 -16  10 116.843 578.498   2
  -3 -16   9 631.206 538.039   2
  -3 -16   8-27.4225 666.789   2
  -3 -16   7 1611.46 451.280   2
  -3 -16   6 9476.33 656.791   2
  -3  16   5 204.928 422.925   2
  -3  16   4 505.923 336.797   2
  -3 -16   3 91.9167 276.183   2
  -3 -16   2 10033.2 645.285   2
  -3  16   1 3080.76 369.310   2
  -3  16   0 290.497 359.902   2
  -3 -16  -1 2035.15 343.667   2
  -3  16  -2 7121.23 544.385   2
  -3  16  -3 254.663 317.792   2
  -3 -16  -4 2462.46 596.433   2
  -3 -16  -5 302.963 798.354   2
  -3 -16  -6 5436.73 742.054   2
  -3 -16  -7 1459.31 866.750   2
   3  16   8 333.063 566.324   2
   3  16   9 550.991 805.295   2
  -3 -16 -10 606.198 507.538   2
  -3 -17   8 270.358 649.434   2
  -3 -17   6 1649.26 889.228   2
  -3  17   5 1091.83 746.868   2
  -3  17   4 219.168 540.834   2
  -3  17   3 2043.66 585.924   2
  -3  17   2 479.100 451.532   2
  -3  17   1 375.338 460.429   2
  -3  17   0 146.522 351.060   2
  -3  17  -1 2533.33 460.665   2
  -3  17  -2 644.749 475.490   2
  -3  17  -3 34.5477 370.883   2
   3 -17   4-109.328 493.569   2
  -3 -17  -5 3674.52 658.876   2
   3  17   6 1551.49 479.205   2
   3  17   7 570.948 564.701   2
   3  17   8-131.374 591.725   2
  -3  18   3 1670.51 583.305   2
  -3  18   2 259.430 799.364   2
  -3  18   1 1454.06 504.177   2
  -3  18   0 248.214 505.903   2
  -3  18  -1 2256.97 395.653   2
  -3  18  -2 533.342 498.987   2
  -3  18  -3 1258.79 524.677   2
  -3 -18  -4 475.965 833.709   2
   3  18   6-101.856 555.830   2
   3 -18   7 545.320 831.532   2
  -3 -19   0 2240.68 771.692   2
  -3  19  -1 149.975 543.595   2
  -3  19  -2 1935.64 562.438   2
  -3  19  -3 2088.82 858.642   2
  -4   0  16 1413.20 491.178   2
  -4   0  14 3411.56 485.637   2
  -4   0  12 7610.70 422.633   2
  -4   0  10 129.072 208.627   2
  -4   0   8 610.693 203.912   2
  -4   0   6 52145.6 599.927   2
  -4   0   4 60683.9 596.845   2
  -4   0   2 8970.65 216.989   2
  -4   0   0 1199.27 133.742   2
  -4   0  -2 106761. 1005.92   2
  -4   0  -4 11874.6 446.623   2
  -4   0  -6 4059.02 243.691   2
   4   0   8 12306.8 775.824   2
   4   0  10 11728.2 659.626   2
   4   0  12 147.618 434.422   2
   4   0  14 2470.03 493.571   2
  -4   0 -16 2521.99 892.618   2
  -4  -1  17 257.991 1093.39   2
   4   1 -11 3903.22 690.495   2
  -4   1  10 586.886 335.864   2
  -4  -1   9 301.786 260.059   2
  -4  -1   8 5970.29 584.007   2
   4   1  -6 7194.08 375.857   2
  -4   1   5 29640.5 540.400   2
   4  -1  -4 6598.91 244.960   2
  -4   1   3 237.128 74.5964   2
  -4   1   2 419.338 70.4403   2
   4  -1  -1 439.583 73.1048   2
  -4   1   0 65.3051 77.1672   2
  -4  -1  -1 36664.9 361.145   2
   4   1   2 2236.13 117.734   2
  -4  -1  -3 23300.6 548.578   2
  -4  -1  -4 1896.04 475.359   2
  -4   1  -5 416.389 84.6474   2
  -4   1  -6 6463.10 764.287   2
   4  -1   7 3687.26 286.185   2
   4  -1   8 79.0611 101.302   2
   4  -1   9 17382.7 1211.66   2
  -4  -1 -10 11496.5 1075.57   2
  -4  -1 -11 1153.37 595.161   2
  -4  -1 -12 419.177 332.157   2
  -4  -1 -13 470.303 385.434   2
  -4  -1 -14 1552.48 471.274   2
  -4  -1 -15 1433.63 658.184   2
   4   1  16 1720.59 578.019   2
  -4  -2  17 152.906 1027.96   2
  -4   2  12 4052.89 604.989   2
   4   2 -11 2626.78 611.087   2
  -4  -2   9 1010.34 320.666   2
   4   2  -8 884.819 262.411   2
   4  -2  -7 2130.00 496.239   2
   4  -2  -5 4442.42 263.890   2
   4   2  -4 79.0378 87.3195   2
   4   2  -3 81.5395 92.3568   2
  -4  -2   2 4840.52 126.568   2
  -4  -2   1 48.7541 71.9180   2
  -4  -2   0 16072.3 230.344   2
   4  -2   1 40.6970 93.3258   2
   4   2   2 184.835 97.6518   2
   4   2   3 441.404 277.883   2
   4  -2   4 1424.88 251.368   2
  -4   2  -5 176.572 145.383   2
   4  -2   6 2943.38 271.823   2
   4  -2   7 396.781 133.096   2
   4   2   8 5163.47 480.997   2
  -4  -2  -9 8409.48 963.755   2
  -4  -2 -10 1116.86 627.308   2
  -4  -2 -12 120.295 593.305   2
  -4  -2 -13 346.943 385.344   2
  -4  -2 -14-9.60052 652.592   2
  -4  -2 -15 2035.10 806.136   2
   4   2  16 1090.22 577.757   2
   4   3 -12 620.258 487.326   2
   4   3 -11 122.771 352.318   2
   4   3 -10 2406.00 404.913   2
   4   3  -9 333.715 394.320   2
  -4  -3   8 6974.70 268.225   2
  -4   3   7 80.6299 97.1620   2
  -4   3   6 642.261 131.880   2
  -4   3   5 548.096 61.5869   2
  -4   3   4 143.019 65.8688   2
   4   3  -3 742.136 97.3111   2
  -4  -3   2 605.254 86.1843   2
  -4   3   1 180.326 66.5632   2
   4  -3   0 25.0264 89.9186   2
   4  -3   1 187.897 103.444   2
  -4  -3  -2 32.5026 110.529   2
  -4   3  -3 1340.54 192.017   2
   4  -3   4 64.0276 68.5724   2
  -4  -3  -5 75.5600 149.917   2
  -4   3  -6 5616.09 325.768   2
  -4   3  -7 248.444 258.815   2
  -4  -3  -8 6156.76 856.348   2
  -4  -3  -9 119.767 503.939   2
  -4  -3 -10-80.8855 575.085   2
  -4  -3 -11-32.6914 605.239   2
  -4  -3 -12 341.733 659.310   2
  -4  -3 -13 458.031 392.074   2
  -4  -3 -14 5711.68 968.312   2
   4   3  15 51.4800 451.079   2
  -4  -3 -16 4630.18 598.641   2
   4   4 -14 2199.97 630.253   2
   4   4 -12 2853.48 677.452   2
   4   4 -11 381.074 313.551   2
  -4   4  10 869.943 561.927   2
  -4   4   9 589.403 330.856   2
  -4   4   8 3018.43 160.853   2
   4   4  -7 1397.61 396.379   2
   4  -4  -6 2154.31 143.093   2
   4   4  -5 218.387 112.535   2
   4  -4  -4 315.421 151.204   2
   4  -4  -3 599.831 123.133   2
  -4  -4   2 9197.38 165.353   2
   4  -4  -1 438.313 78.1355   2
   4  -4   0 16372.4 236.081   2
   4  -4   1 618.741 92.6493   2
  -4  -4  -2 856.217 109.954   2
   4  -4   3 23.0736 85.6042   2
  -4  -4  -4 98.8949 254.248   2
   4   4   5 393.133 191.852   2
   4   4   6 4322.25 720.678   2
  -4  -4  -7 1780.90 585.905   2
  -4  -4  -8 4410.59 782.708   2
  -4  -4  -9 2445.15 724.732   2
  -4  -4 -10 3977.47 818.047   2
  -4  -4 -11-64.6098 626.893   2
  -4   4 -12 340.236 438.325   2
  -4  -4 -13 137.158 709.667   2
  -4  -4 -14 657.958 686.857   2
   4   4  15 1812.52 454.340   2
  -4  -4 -16 940.696 538.805   2
   4   5 -14 3128.13 674.545   2
  -4   5  12 5241.89 1001.52   2
   4   5 -10 2377.43 556.104   2
  -4   5   9 92.9899 53.6385   2
  -4  -5   5 13940.8 313.672   2
   4   5  -4 536.179 111.964   2
  -4  -5   3 944.810 159.098   2
  -4  -5   2 114.845 52.2847   2
   4  -5  -1 7649.01 159.729   2
   4  -5   0 225.434 67.3268   2
  -4  -5  -1 20331.9 353.533   2
  -4  -5  -2 3546.97 197.474   2
  -4  -5  -3 9696.78 476.514   2
   4  -5   4 1612.69 241.582   2
  -4  -5  -5 3208.72 447.520   2
  -4  -5  -6 6990.07 485.537   2
   4   5   7 2591.22 472.099   2
  -4  -5  -8-24.7964 388.862   2
  -4  -5  -9 5785.65 921.790   2
  -4  -5 -11 4367.45 910.026   2
  -4  -5 -12 559.087 687.722   2
  -4  -5 -13 549.023 606.819   2
  -4  -5 -14 1983.39 550.998   2
   4   5  15 39.8785 421.783   2
  -4  -5 -16 553.840 592.639   2
  -4  -6  16 9.84534 931.741   2
  -4   6  13 964.474 843.101   2
   4   6 -12 3819.27 490.877   2
   4   6 -11 553.449 457.015   2
   4   6 -10 572.851 435.389   2
   4   6  -9 3633.51 578.748   2
  -4   6   8 436.800 536.865   2
  -4  -6   7 1535.73 371.046   2
  -4  -6   6 35394.5 810.520   2
   4   6  -5 468.649 87.0011   2
  -4  -6   4 19309.4 464.562   2
  -4  -6   3 6694.99 244.188   2
   4  -6  -2 4183.73 129.076   2
   4  -6  -1 498.375 116.230   2
  -4   6   0 1913.69 137.447   2
  -4  -6  -1 4818.23 287.413   2
  -4  -6  -2 52736.6 552.693   2
  -4  -6  -3 4823.39 321.006   2
  -4  -6  -4 9586.02 550.196   2
  -4  -6  -5 871.336 589.974   2
  -4  -6  -6 729.332 556.128   2
  -4  -6  -7 7435.66 852.370   2
   4   6   8 6225.34 863.150   2
  -4  -6  -9 62.6682 626.831   2
  -4  -6 -10 8544.50 703.454   2
  -4  -6 -11 1429.92 477.972   2
  -4  -6 -12 1346.23 496.575   2
  -4  -6 -13 2569.96 578.463   2
  -4  -6 -14 1112.42 521.175   2
   4   6  15 423.846 422.951   2
  -4  -6 -16 1015.60 596.227   2
  -4   7  15 52.9677 817.260   2
  -4   7  13 2257.29 832.449   2
   4   7 -10 820.771 445.111   2
   4   7  -9 604.186 391.175   2
   4   7  -8 2672.96 466.725   2
   4   7  -6 365.385 262.936   2
  -4  -7   5 28399.5 376.250   2
   4  -7  -4 12647.3 342.209   2
   4  -7  -3 1565.78 132.617   2
   4  -7  -2 356.237 85.1176   2
  -4  -7   1 4095.73 159.637   2
  -4  -7   0 7239.40 338.779   2
  -4  -7  -1 23469.5 1058.93   2
  -4  -7  -2 1346.45 285.507   2
   4   7   3 19308.3 325.477   2
  -4  -7  -4 1511.65 190.901   2
  -4  -7  -5 2379.01 275.745   2
  -4  -7  -6 351.668 263.190   2
  -4  -7  -7 519.499 355.083   2
   4   7   8 2504.39 407.123   2
  -4  -7  -9 12431.5 788.757   2
  -4  -7 -10 2998.30 510.562   2
  -4  -7 -11 375.009 531.591   2
  -4  -7 -12 133.668 532.171   2
  -4  -7 -13 325.153 471.422   2
  -4  -7 -14 224.654 527.188   2
   4   7  15 2486.16 508.101   2
  -4  -7 -16 650.189 593.672   2
  -4  -8  12 2265.36 757.703   2
   4   8 -10 857.148 457.930   2
   4   8  -9 1156.35 423.336   2
   4   8  -8 351.197 316.234   2
  -4  -8   7 85.1359 283.406   2
  -4  -8   6 238.547 172.014   2
  -4  -8   5 8274.44 214.625   2
  -4  -8   4 168.850 96.7237   2
   4  -8  -2 32.6958 64.4559   2
  -4  -8   1 764.260 138.193   2
  -4   8   0 2786.50 347.589   2
  -4  -8  -2 1353.66 332.730   2
  -4  -8  -3 327.763 296.854   2
  -4  -8  -4 2668.59 160.415   2
  -4  -8  -5 5.12825 165.782   2
  -4  -8  -6 63.1808 248.410   2
  -4  -8  -7 236.009 307.507   2
  -4  -8  -8 6638.99 486.995   2
  -4  -8  -9 6218.56 718.931   2
  -4  -8 -10 686.706 474.232   2
  -4  -8 -11 2144.75 492.754   2
  -4  -8 -12 2604.06 724.696   2
  -4  -8 -13 354.782 488.630   2
  -4  -8 -14 43.3792 495.091   2
   4   8  15 1833.15 614.268   2
  -4  -9  14 680.637 763.701   2
  -4  -9  12 1815.82 731.353   2
   4   9 -11 87.9165 470.195   2
   4   9 -10 830.786 441.560   2
   4   9  -9 1202.83 414.605   2
   4   9  -8 1404.67 376.343   2
  -4  -9   6 1789.96 220.841   2
  -4  -9   5 1388.30 112.144   2
  -4  -9   4 22.9932 70.4264   2
  -4   9   2 246.334 78.9676   2
   4  -9  -1 285.582 108.557   2
  -4   9   0 381.902 220.425   2
  -4  -9  -1 928.862 274.545   2
  -4  -9  -2 664.653 563.811   2
  -4  -9  -3 7460.57 526.584   2
   4   9   4 77.3595 86.8612   2
   4   9   5 350.700 129.872   2
   4   9   6 1686.64 221.140   2
  -4  -9  -7 8.89946 277.730   2
  -4  -9  -8 3239.49 498.502   2
   4   9   9 1356.73 374.150   2
  -4  -9 -10 593.201 457.453   2
  -4  -9 -13 306.036 857.350   2
  -4  -9 -14 604.343 916.746   2
   4  10 -12 601.117 506.582   2
   4  10 -11 72.1629 464.752   2
   4  10 -10 1922.26 493.298   2
   4  10  -9 1491.68 439.351   2
   4  10  -8 2351.23 439.844   2
   4  10  -6 1198.01 283.057   2
  -4 -10   5 206.269 74.5281   2
   4 -10  -2 7420.82 348.306   2
  -4 -10   1 272.632 148.313   2
  -4 -10   0 6466.73 296.189   2
  -4 -10  -1 969.934 595.397   2
  -4 -10  -2 2915.75 476.525   2
  -4 -10  -6 795.807 256.575   2
  -4 -10  -7 2266.32 380.743   2
  -4 -10  -8 4363.93 519.699   2
  -4 -10  -9 409.408 373.407   2
  -4 -10 -10 4390.11 647.889   2
  -4 -10 -12 696.587 863.597   2
  -4 -10 -13 768.496 881.867   2
   4  10  14 120.253 576.118   2
  -4 -11  12 353.753 741.940   2
  -4 -11  11 416.845 694.665   2
   4  11  -9 803.972 395.706   2
   4  11  -8 149.211 295.351   2
  -4 -11   7 11632.4 819.850   2
   4  11  -6 221.072 180.902   2
  -4 -11   5 2868.17 138.491   2
   4 -11  -3 924.888 147.388   2
   4 -11  -2 532.280 124.776   2
   4 -11  -1 8556.46 292.038   2
  -4 -11   0 235.200 191.020   2
  -4 -11  -1 6111.04 665.736   2
  -4 -11 -12 931.023 868.488   2
  -4 -12  11 1987.07 815.540   2
  -4 -12   6 17636.2 1047.69   2
  -4 -12   5 865.865 504.095   2
   4  12  -4 3803.57 408.074   2
   4 -12  -2 175.720 203.299   2
   4 -12  -1 703.188 277.425   2
  -4 -12   0 3274.45 541.300   2
  -4 -12  -9 161.188 732.255   2
  -4 -12 -10 4529.65 1103.21   2
  -4 -13   5 7960.51 817.951   2
  -4 -13   4 10669.8 971.360   2
  -4 -13   3 215.936 497.559   2
  -4 -13   2 3181.40 730.992   2
  -4 -13   1 1771.43 287.820   2
   4 -13   0 12353.9 772.458   2
  -4 -13  -5 915.236 735.601   2
  -4 -13  -7-182.255 757.437   2
  -4 -13  -9 2804.70 1007.31   2
  -4 -13 -10 34.7352 902.268   2
  -4 -13 -12 933.049 836.992   2
  -4 -14   9 400.397 668.461   2
  -4 -14   5 3844.29 632.201   2
  -4 -14   4 950.314 513.920   2
  -4 -14   3 2353.34 673.268   2
  -4 -14   2 512.283 587.409   2
  -4 -14   1 1032.24 374.306   2
   4 -14   0 86.2691 293.825   2
   4 -14   1 737.246 344.646   2
  -4 -14  -2 723.871 709.143   2
  -4 -14  -3 422.037 705.186   2
  -4 -14  -5 249.294 778.482   2
  -4 -14  -6 672.151 852.285   2
  -4 -14  -7 1271.21 886.404   2
  -4 -14  -8 4019.86 1037.38   2
  -4 -14  -9 2204.58 1039.76   2
   4 -14  10 1685.03 836.057   2
  -4 -15   9 950.807 645.885   2
  -4 -15   8-51.7302 686.079   2
  -4 -15   6 1735.86 649.710   2
  -4 -15   4 73.9039 541.811   2
  -4 -15   3 1101.33 616.102   2
  -4 -15   2 1367.30 609.888   2
  -4 -15   1 461.133 358.119   2
  -4 -15   0 374.697 601.013   2
  -4 -15  -1 512.909 706.276   2
  -4 -15  -2 650.092 726.708   2
  -4 -15  -3 2932.54 880.846   2
  -4 -15  -4 1213.89 826.282   2
  -4 -15  -5 1709.42 878.017   2
  -4 -15  -6 535.849 845.824   2
  -4 -15  -7 311.239 877.992   2
   4 -15   9 859.832 842.180   2
  -4 -16   9 839.193 738.074   2
  -4 -16   8 1323.12 714.575   2
  -4 -16   7 789.041 603.819   2
  -4 -16   3 66.8937 578.516   2
  -4 -16   2 4381.76 839.038   2
  -4 -16   1 402.271 653.052   2
  -4 -16   0 2895.95 831.893   2
  -4 -16  -1 265.932 694.237   2
  -4 -16  -2 4844.45 991.834   2
  -4 -16  -3 101.096 754.115   2
  -4 -16  -4 1501.96 900.485   2
  -4 -16  -5 265.524 826.864   2
  -4 -16  -6-224.220 911.447   2
  -4 -17   2 853.408 675.295   2
  -4 -17   1 2943.57 865.459   2
  -4 -17   0 5.09087 742.789   2
  -4 -17  -1 2640.16 882.126   2
  -4 -17  -2 533.498 775.316   2
  -4 -17  -3 813.788 855.416   2
  -4 -17  -4-254.560 851.459   2
  -4 -18   1 621.201 705.682   2
  -4 -18   0 1256.65 775.414   2
  -4 -18  -1 553.346 771.922   2
  -4 -18  -2 610.688 777.291   2
   5   0 -16 622.780 461.285   2
  -5   0  14 1680.69 432.271   2
   5   0 -12 4542.76 368.499   2
  -5   0  10 275.922 203.546   2
  -5   0   8 280.939 181.848   2
   5   0  -6 6002.72 369.070   2
   5   0  -4 659.713 140.864   2
   5   0  -2 216.124 125.670   2
   5   0   0 110.010 167.267   2
  -5   0  -2 1304.20 198.656   2
  -5   0  -4 715.302 231.879   2
  -5   0  -6 567.595 317.397   2
   5   0   8 3212.44 276.137   2
   5   0  10 14322.3 872.460   2
   5   0  12 668.100 448.908   2
   5   0  14 414.227 496.304   2
  -5  -1  -1 69.1846 123.317   2
  -5  -4 -16 587.737 598.882   2
   5   8  -5 12805.7 459.912   2
  -5  -8   4 192.152 137.817   2
   5   8   4 3002.66 224.687   2
   5  -9  -2 7450.50 264.310   2
   5   9   5 2124.98 219.746   2
   5 -10  -2 3230.29 194.027   2
   6   0 -16 1798.65 871.069   2
  -6   0  14 924.838 395.257   2
   6   0 -12-51.4705 255.090   2
  -6   0  10 2491.52 285.592   2
  -6   0   8 30451.4 775.204   2
  -6   0   6 8529.64 364.302   2
   6   0  -4 4464.24 260.136   2
   6   0  -2 16144.1 378.000   2
   6   0   0 64535.5 821.913   2
  -6   0  -2 422.370 209.166   2
  -6   0  -4 1261.28 252.871   2
  -6   0  -6 19899.7 660.880   2
   6   0   8 8661.84 634.075   2
   6   0  10-4.62020 510.416   2
   6   0  12 4801.38 598.611   2
  -6   0 -14 3707.40 935.565   2
  -7   0  14 3555.77 752.662   2
  -7   0  12 437.695 503.754   2
  -7   0  10 631.547 533.143   2
  -7   0   8 5655.11 468.561   2
  -7   0   6 362.289 310.540   2
  -7   0   4 343.695 255.663   2
   7   0  -2 573.112 261.839   2
   7   0   0 37.5438 97.4105   2
  -7   0  -2 101.295 273.797   2
  -7   0  -4 429.782 295.451   2
  -7   0  -6 4552.03 367.702   2
   7   0   8 6672.56 429.095   2
   7   0  10 474.501 619.614   2
   7   0  12 749.600 685.981   2
  -7  -1   0 13565.0 524.595   2
  -7   2   1 2710.49 279.575   2
   7   3 -15 1374.77 789.970   2
  -7   3   1 36.8653 176.400   2
  -7   4   1 129.293 206.239   2
  -7  -5   3 311.679 332.943   2
  -7   6  13 340.193 606.765   2
  -7   6  12 929.430 580.123   2
   8   0 -12 5055.86 693.383   2
  -8   0  10 7296.38 848.887   2
  -8   0   8 431.069 478.506   2
  -8   0   6 79.7340 351.625   2
  -8   0   4 18399.0 660.302   2
   8   0  -2 19358.6 582.176   2
  -8   0   0 580.320 269.189   2
  -8   0  -2 414.302 267.650   2
   8   0   4 21259.8 639.513   2
   8   0   6 4005.00 352.273   2
   8   0   8 102.464 400.719   2
   8   0  10 4313.36 619.684   2
   8   0  12 2206.27 959.516   2
   8  -1 -12-209.315 588.452   2
   8  -1 -11 6373.23 772.725   2
   8   1 -10 5998.42 737.954   2
   8   1  -9 799.239 515.349   2
   8   1  -8 522.779 462.887   2
   8   1  -7 333.664 489.189   2
   8   1  -6 1566.21 486.303   2
   8   1  -5 4843.27 612.830   2
   8   1  -4 300.986 431.604   2
   8   1  -3 12884.7 820.123   2
   8   1  -2 940.081 396.309   2
   8   1  -1 313.807 363.150   2
  -8  -1   0-3.97413 383.663   2
  -8   1  -1 90.6422 283.552   2
   8  -1   2 327.680 362.858   2
   8  -1   3 11952.8 722.785   2
  -8   1  -4 521.548 343.263   2
  -8  -1  -5 5749.86 475.841   2
  -8  -1  -6 1548.41 308.898   2
  -8  -1  -7 132.571 322.345   2
  -8   1  -8 817.277 489.613   2
  -8  -1  -9 1204.88 533.172   2
   8   1  10 182.352 457.197   2
  -8  -1 -12 1405.54 1081.37   2
   8  -2 -12 400.297 547.918   2
   8  -2 -11 3378.06 664.843   2
   8  -2 -10 1464.28 566.280   2
   8  -2  -9 536.071 360.826   2
   8   2  -8 107.634 509.955   2
   8   2  -7 223.352 455.814   2
   8   2  -6 2378.54 535.959   2
  -8   2   5 501.951 279.486   2
   8   2  -4 4432.03 577.926   2
  -8   2   3 563.072 272.690   2
   8  -2  -2 935.122 242.580   2
  -8   2   1 51.2405 307.347   2
   8  -2   0 71.3589 499.388   2
  -8   2  -1-23.4856 340.299   2
   8  -2   2 8824.29 642.914   2
   8  -2   3 74.8064 345.404   2
   8  -2   4 1031.62 297.719   2
  -8  -2  -5 1094.96 284.874   2
  -8  -2  -6 983.509 325.134   2
  -8  -2  -7 192.665 463.365   2
  -8  -2  -8 7.11724 486.346   2
  -8   2  -9 182.968 728.043   2
  -8   2 -10 1345.97 575.014   2
  -8  -2 -12 87.9955 990.240   2
  -8  -3  13 243.200 892.214   2
   8   3 -12 5365.33 1096.44   2
  -8   3  11 385.340 483.888   2
   8   3 -10 265.009 536.104   2
   8  -3  -9-122.854 514.823   2
   8  -3  -8 137.668 478.537   2
   8  -3  -7 292.291 478.365   2
   8   3  -6 3056.57 561.515   2
   8  -3  -5-59.2823 610.186   2
  -8   3   4 724.174 224.319   2
  -8   3   3 770.268 249.566   2
  -8   3   2 201.843 278.940   2
  -8   3   1 362.220 298.636   2
   8  -3   0 20.7170 297.507   2
  -8  -3  -1 94.2512 274.793   2
   8  -3   2 931.029 283.398   2
   8  -3   3 241.032 280.578   2
   8  -3   4 263.094 282.113   2
   8  -3   5 878.873 362.455   2
  -8  -3  -6 1199.34 334.216   2
  -8  -3  -7-78.5265 377.262   2
  -8  -3  -8 745.320 489.050   2
  -8  -3  -9 259.388 846.258   2
  -8   3 -10 5607.20 794.149   2
  -8  -3 -11 74.4355 948.050   2
   8   4 -12 991.289 823.004   2
   8   4 -11 1690.45 598.346   2
   8   4 -10 659.762 571.657   2
   8   4  -9 33.5360 501.835   2
   8   4  -8 296.067 506.527   2
   8   4  -7 384.284 478.396   2
   8  -4  -6 3772.89 541.787   2
   8  -4  -5 896.150 376.503   2
   8  -4  -4 3219.78 444.870   2
  -8   4   3 38.5432 289.971   2
   8  -4  -2 168.276 244.011   2
   8  -4  -1 341.294 228.866   2
   8  -4   0 741.566 248.274   2
   8  -4   1 447.788 254.644   2
   8  -4   2 8156.69 450.700   2
   8  -4   3 1402.27 292.554   2
   8  -4   4 2519.13 371.232   2
  -8   4  -5 69.1142 311.042   2
  -8   4  -6-91.5074 578.545   2
  -8  -4  -8 80.0822 837.242   2
  -8   4  -9 668.451 751.413   2
  -8  -4 -10 1496.29 648.058   2
  -8   5  12 963.735 665.550   2
   8  -5 -11 7310.97 664.172   2
   8   5 -10 1804.53 562.079   2
   8   5  -9 739.425 420.507   2
   8  -5  -8-120.903 443.304   2
  -8   5   7 388.638 499.298   2
   8  -5  -6 156.631 408.176   2
  -8   5   5 10615.0 719.222   2
  -8   5   4 226.911 320.138   2
   8  -5  -3 7423.72 1030.08   2
   8  -5  -2 196.425 595.744   2
   8  -5  -1 258.937 210.517   2
   8  -5   0 124.912 232.703   2
   8  -5   1 3255.24 346.829   2
  -8   5  -2 528.547 261.776   2
  -8   5  -3 9210.63 661.824   2
  -8   5  -4 1980.51 319.450   2
   8  -5   5 2791.63 462.073   2
   8  -5   6 2060.14 495.952   2
   8  -5   7 618.267 441.044   2
  -8   5  -8 1523.12 744.963   2
  -8   5  -9 960.404 806.995   2
  -8  -5 -10 503.087 611.568   2
  -8  -6  12 5331.62 996.201   2
   8   6 -11-506.048 786.161   2
   8   6 -10 5350.66 779.503   2
   8  -6  -9 312.820 537.197   2
   8  -6  -8 198.596 481.857   2
  -8   6   7 695.953 447.881   2
  -8   6   6 123.659 397.872   2
  -8   6   5 475.725 366.760   2
  -8   6   4 15591.1 803.079   2
   8  -6  -3 112.593 647.627   2
   8  -6  -2 12070.8 1236.14   2
   8  -6  -1 1383.09 607.593   2
   8  -6   0 374.443 326.083   2
  -8   6  -1 539.026 268.974   2
   8  -6   2 750.226 264.533   2
  -8   6  -3 1301.63 315.196   2
  -8   6  -4 13499.9 638.289   2
   8  -6   5 878.792 314.661   2
  -8   6  -6 2747.12 716.472   2
  -8   6  -7 340.661 636.306   2
  -8  -6  -8 96.4894 546.982   2
   8  -6   9 2121.38 523.812   2
  -8   6 -10 2788.15 974.605   2
  -8  -7  12 1382.53 758.642   2
   8   7 -10 4065.84 1018.81   2
  -8   7   9 2307.49 598.412   2
  -8   7   8 958.805 523.374   2
  -8   7   7 224.608 438.783   2
   8  -7  -6 1665.29 460.255   2
  -8   7   5 1137.93 411.232   2
   8  -7  -4 195.592 677.662   2
   8  -7  -3 12110.1 1285.62   2
   8  -7  -2 2390.17 739.595   2
   8  -7  -1 1334.11 676.767   2
   8  -7   0 282.434 602.963   2
   8  -7   1 471.305 337.027   2
  -8   7  -2 660.874 284.234   2
  -8   7  -3 6246.85 465.400   2
   8  -7   4 654.068 291.591   2
  -8   7  -5 6149.76 622.425   2
  -8   7  -6 402.419 415.837   2
  -8   7  -7 740.824 676.604   2
  -8  -7  -8-55.0524 603.296   2
  -8   7  -9 922.173 514.873   2
   8  -7  10 308.414 744.974   2
  -8   8  10 341.942 739.709   2
  -8   8   9 4522.68 664.999   2
  -8   8   8 214.564 485.493   2
  -8   8   7 817.974 464.823   2
   8  -8  -6 221.734 428.232   2
   8  -8  -5 372.422 789.969   2
   8  -8  -4 1074.01 712.503   2
   8  -8  -3 3199.74 870.503   2
   8  -8  -2 71.6358 648.546   2
   8  -8  -1 509.129 667.499   2
   8  -8   0 95.5907 651.343   2
   8  -8   1 545.854 632.695   2
   8  -8   2 3211.63 726.306   2
   8  -8   3 240.558 581.667   2
   8  -8   4 1686.63 534.654   2
   8  -8   5 128.048 538.840   2
   8  -8   6 2516.16 689.758   2
  -8  -8  -7 371.854 533.905   2
   8  -8   8 27.4742 665.335   2
   8  -8   9-49.4783 741.438   2
   8  -8  10 2392.89 870.651   2
  -8   9  10 652.352 732.646   2
  -8   9   9 1330.14 630.190   2
   8  -9  -8 519.398 551.240   2
   8  -9  -7 592.382 808.699   2
   8  -9  -6 570.264 850.723   2
   8  -9  -5 480.719 774.421   2
   8  -9  -4 1938.42 834.376   2
   8  -9  -3 993.890 732.457   2
   8  -9  -2 1.29222 720.349   2
   8  -9  -1 2918.71 798.501   2
   8  -9   0 847.560 688.533   2
   8  -9   7 30.4150 671.461   2
   8  -9   8 717.011 573.402   2
   8  -9   9 297.056 705.148   2
  -8 -10  -4 4811.90 1237.99   2
   8  10   5-633.226 920.393   2
  -8  11   1 495.307 643.463   2
  -8 -11  -1 4273.30 1172.89   2
  -8 -11  -2 282.967 941.417   2
  -8 -11  -3 4391.98 1206.32   2
  -8 -11  -4 2259.46 1104.66   2
  -8 -12   5 646.056 846.872   2
  -8 -12   4 7424.45 1232.60   2
  -8 -12   3-80.8856 924.177   2
  -8 -12   2 3621.76 1035.72   2
  -8 -12   1 1665.88 963.451   2
  -8 -12   0 900.049 932.174   2
  -8 -12  -1 879.449 1027.22   2
  -8 -12  -2 2038.75 1065.40   2
  -8 -13   4 633.994 859.013   2
  -8 -13   3 3372.14 1112.76   2
  -8 -13   2 1940.43 985.177   2
  -8 -13   1 585.762 990.376   2
  -8 -13   0 913.557 1022.78   2
  -8 -14   2-91.2786 976.715   2
   9   0  -8 492.044 769.448   2
   9   0  -6 26.8779 727.120   2
   9   0  -4 908.777 699.285   2
   9   0  -2 735.247 659.331   2
   9   0   0 382.265 617.563   2
  -9   0  -2 272.260 398.570   2
   9   0   4 3203.59 683.766   2
  -9   0  -6 1398.45 761.338   2
   9   0   8 968.025 483.768   2
   9   1  -9 2421.20 657.800   2
   9   1  -8 157.524 537.837   2
   9   1  -7 584.967 511.898   2
   9   1  -6 339.289 516.983   2
   9   1  -5 69.6456 482.902   2
   9   1  -4 2918.41 557.604   2
   9   1  -3 224.119 434.758   2
   9  -1  -2 6715.55 688.794   2
  -9   1   1 148.583 333.465   2
   9   1   0 278.850 330.478   2
   9   1   1-110.758 386.561   2
  -9   1  -2 156.412 317.512   2
  -9  -1  -3 364.802 280.210   2
  -9  -1  -4 4622.28 408.134   2
   9   1   5 724.521 314.135   2
   9   1   6 1871.65 479.685   2
  -9   1  -7 724.433 524.543   2
  -9  -1  -8 213.953 622.132   2
   9  -1   9 204.137 582.930   2
   9  -2  -9 7660.93 878.016   2
   9   2  -8 1835.07 605.115   2
   9   2  -7 1876.62 556.297   2
   9  -2  -6 769.015 698.905   2
   9   2  -5 149.697 529.167   2
   9   2  -4 470.680 444.208   2
   9   2  -3 5379.11 659.624   2
   9   2  -2 128.446 447.280   2
   9   2  -1 9156.01 580.644   2
  -9   2   0 112.705 320.076   2
   9  -2   1 657.765 387.380   2
   9  -2   2 238.537 358.331   2
   9  -2   3 770.800 390.146   2
  -9  -2  -4 875.785 346.841   2
   9  -2   5 6333.63 624.524   2
   9   2   6 577.518 504.833   2
   9  -2   7 2803.42 504.243   2
   9  -2   8 2736.89 545.301   2
   9  -2   9 322.673 555.867   2
   9  -3  -9 195.652 571.622   2
   9   3  -8 8735.52 905.811   2
   9  -3  -7-108.249 531.720   2
   9   3  -6 1147.44 526.723   2
   9  -3  -5 264.344 694.272   2
   9   3  -4 778.797 482.945   2
   9  -3  -3-375.748 683.118   2
   9  -3  -2 8667.60 1081.77   2
   9  -3  -1 35.0344 359.957   2
   9  -3   0 15947.7 841.861   2
   9  -3   1 239.512 378.845   2
   9  -3   2 393.996 363.107   2
  -9  -3  -3 39.4314 341.269   2
   9  -3   4 139.292 326.289   2
   9  -3   5 109.156 421.766   2
  -9   3  -6 6236.96 1007.17   2
   9  -3   7 571.508 530.987   2
   9  -3   8 2652.26 463.135   2
   9  -3   9-2.63661 537.816   2
   9   4  -8 2823.89 670.261   2
   9   4  -7 1720.68 557.327   2
   9   4  -6 2129.91 598.964   2
   9  -4  -5 551.319 710.061   2
   9  -4  -4 1202.68 686.736   2
   9  -4  -3 1179.40 688.702   2
   9  -4  -2 36.5826 656.089   2
   9  -4  -1 10769.7 1162.26   2
   9  -4   0 547.995 580.011   2
   9  -4   1 1165.72 312.065   2
   9  -4   2-3.66228 286.568   2
   9  -4   3 200.248 300.373   2
   9  -4   4-21.7987 308.026   2
   9  -4   5 4342.57 613.053   2
   9  -4   6 415.694 407.924   2
   9  -4   7 4986.48 680.067   2
   9  -4   8 1879.63 558.548   2
   9  -4   9-15.2258 565.675   2
   9   5  -8 608.738 560.111   2
   9  -5  -7 3236.57 657.666   2
   9  -5  -6 569.850 745.616   2
   9  -5  -5 193.396 776.815   2
   9  -5  -4 360.102 702.056   2
   9  -5  -3 134.261 740.322   2
   9  -5  -2 4652.22 899.011   2
   9  -5  -1 775.610 644.601   2
   9  -5   0 352.779 660.417   2
  -9  -5  -1 30.2876 470.508   2
   9  -5   2 1259.85 429.899   2
   9  -5   3 122.790 315.194   2
   9  -5   4 3093.98 424.167   2
   9  -5   5 322.380 340.741   2
   9  -5   6 1654.37 459.694   2
   9  -5   7 1127.98 374.989   2
   9  -5   8 241.111 433.633   2
   9  -5   9 419.415 581.525   2
   9  -6  -7 17.3656 922.054   2
   9  -6  -6-66.7611 874.549   2
   9  -6  -5 884.697 789.905   2
   9  -6  -4 374.792 782.681   2
   9  -6  -3 740.417 716.592   2
   9  -6  -2 1101.54 671.123   2
   9  -6  -1 210.086 680.010   2
   9  -6   0 123.711 618.255   2
   9  -6   1 2062.55 710.103   2
   9  -6   2 230.446 629.922   2
   9  -6   3-75.2387 563.294   2
  -9   6  -4 833.020 638.080   2
   9  -6   5 401.634 404.956   2
   9  -6   6 924.360 445.106   2
   9  -6   7 1617.74 450.490   2
   9  -6   8 502.005 533.621   2
   9  -6   9-92.2289 773.153   2
   9  -7  -6 265.320 842.551   2
   9  -7  -5 795.809 868.140   2
   9  -7  -4 2358.10 854.683   2
   9  -7  -3 580.698 717.187   2
   9  -7  -2 3778.52 922.883   2
   9  -7  -1 809.487 653.034   2
   9  -7   0 32.3843 657.969   2
   9  -7   1-49.1492 643.475   2
   9  -7   2 235.776 668.509   2
   9  -7   3-117.234 611.542   2
  -9   7  -5 2804.72 1015.80   2
  -9   7  -6 2992.25 535.560   2
  -9   7  -7 148.014 802.155   2
  -9   7  -8 1036.08 564.698   2
   9  -8  -5 371.980 837.539   2
   9  -8  -4-284.029 802.076   2
   9  -8  -3 9660.83 1296.52   2
   9  -8  -2 191.827 739.772   2
   9  -8  -1 6667.01 1080.68   2
   9  -8   0 853.976 723.443   2
   9  -8   1 446.309 660.675   2
   9  -8   2 42.8176 645.819   2
  -9   8  -3 1334.45 833.421   2
  -9   8  -4 1144.35 873.593   2
  -9   8  -5 3814.76 1088.08   2
   9  -9  -4 171.087 821.757   2
   9  -9  -3 1150.33 837.008   2
   9  -9  -2 6486.50 1116.60   2
   9  -9  -1 378.063 791.116   2
   9  -9   0 7064.07 1141.57   2
   9  -9   1 995.057 709.087   2
  -9   9  -2 894.685 810.070   2
  -9   9  -3 715.386 865.428   2
  -9   9  -4 579.646 847.196   2
  -9  10  -1 868.806 800.157   2
  -9  10  -2 815.845 784.555   2
;
_shelx_hkl_checksum              81660
_olex2_date_sample_data_collection 2015-12-02
_olex2_date_sample_submission    2015-11-23
_olex2_diffrn_ambient_temperature_device 'Oxford Cryosystems Cryostream 700+'
_olex2_exptl_crystal_mounting_method
'The crystal was mounted on a MITIGEN holder in Paratone oil'
_olex2_submission_original_sample_id Me-Py-1
_olex2_submission_special_instructions 'No special instructions were received'
loop_
_space_group_symop_operation_xyz
'x, y, z'
'-x, y+1/2, -z+1/2'
'-x, -y, -z'
'x, -y-1/2, z-1/2'
loop_
_atom_site_label
_atom_site_type_symbol
_atom_site_fract_x
_atom_site_fract_y
_atom_site_fract_z
_atom_site_U_iso_or_equiv
_atom_site_adp_type
_atom_site_occupancy
_atom_site_site_symmetry_order
_atom_site_calc_flag
_atom_site_refinement_flags_posn
Bi1 Bi 0.24940(6) 0.41008(3) 0.50940(3) 0.01074(10) Uani 1 1 d .
I1 I 0.41156(9) 0.27866(5) 0.65572(5) 0.01560(17) Uani 1 1 d .
I2 I -0.05978(9) 0.43405(4) 0.64714(5) 0.01422(16) Uani 1 1 d .
I3 I 0.08964(9) 0.25510(5) 0.39078(5) 0.01630(16) Uani 1 1 d .
I4 I 0.56330(8) 0.40992(5) 0.37260(5) 0.01381(16) Uani 1 1 d .
N1 N 0.7953(11) 0.1068(6) 0.5658(7) 0.017(2) Uani 1 1 d .
C1 C 0.7999(14) 0.0126(7) 0.5554(8) 0.020(3) Uani 1 1 d .
H1 H 0.8548 -0.0255 0.6070 0.024 Uiso 1 1 calc R
C2 C 0.7264(15) -0.0287(8) 0.4714(9) 0.025(3) Uani 1 1 d .
H2 H 0.7255 -0.0961 0.4649 0.029 Uiso 1 1 calc R
C3 C 0.6529(16) 0.0272(8) 0.3954(9) 0.029(3) Uani 1 1 d .
H3 H 0.6049 -0.0012 0.3350 0.035 Uiso 1 1 calc R
C4 C 0.6493(15) 0.1242(9) 0.4071(9) 0.027(3) Uani 1 1 d .
H4 H 0.5986 0.1637 0.3553 0.032 Uiso 1 1 calc R
C5 C 0.7206(12) 0.1637(7) 0.4956(8) 0.014(2) Uani 1 1 d .
H5 H 0.7163 0.2305 0.5064 0.017 Uiso 1 1 calc R
C6 C 0.8855(14) 0.1510(7) 0.6568(8) 0.019(2) Uani 1 1 d .
H6A H 0.8025 0.1878 0.6944 0.029 Uiso 1 1 calc GR
H6B H 0.9769 0.1934 0.6350 0.029 Uiso 1 1 calc GR
H6C H 0.9361 0.1010 0.7006 0.029 Uiso 1 1 calc GR
loop_
_atom_site_aniso_label
_atom_site_aniso_U_11
_atom_site_aniso_U_22
_atom_site_aniso_U_33
_atom_site_aniso_U_23
_atom_site_aniso_U_13
_atom_site_aniso_U_12
Bi1 0.01059(18) 0.00991(16) 0.0117(2) 0.00057(15) 0.00082(15) -0.00035(18)
I1 0.0161(4) 0.0164(3) 0.0141(4) 0.0026(3) -0.0011(3) 0.0019(3)
I2 0.0152(4) 0.0132(3) 0.0146(3) 0.0024(3) 0.0039(3) 0.0024(3)
I3 0.0199(4) 0.0143(3) 0.0146(3) -0.0019(3) -0.0001(3) -0.0036(3)
I4 0.0141(4) 0.0135(3) 0.0142(4) -0.0026(3) 0.0035(3) -0.0019(3)
N1 0.008(5) 0.019(5) 0.024(5) -0.004(4) 0.000(4) 0.001(4)
C1 0.026(7) 0.017(6) 0.017(6) 0.005(5) 0.003(5) 0.007(5)
C2 0.013(7) 0.019(6) 0.042(8) 0.001(5) -0.001(5) -0.006(5)
C3 0.032(8) 0.039(7) 0.019(6) -0.005(6) 0.012(5) -0.010(6)
C4 0.018(7) 0.040(7) 0.024(7) 0.012(6) 0.002(5) -0.006(5)
C5 0.004(6) 0.017(5) 0.022(6) 0.004(4) -0.003(4) -0.003(4)
C6 0.017(6) 0.022(6) 0.018(6) 0.001(5) -0.003(5) 0.001(5)
loop_
_atom_type_symbol
_atom_type_description
_atom_type_scat_dispersion_real
_atom_type_scat_dispersion_imag
_atom_type_scat_source
C C 0.0033 0.0016 'International Tables Vol C Tables 4.2.6.8 and 6.1.1.4'
H H 0.0000 0.0000 'International Tables Vol C Tables 4.2.6.8 and 6.1.1.4'
Bi Bi -4.1077 10.2566 'International Tables Vol C Tables 4.2.6.8 and 6.1.1.4'
I I -0.4742 1.8119 'International Tables Vol C Tables 4.2.6.8 and 6.1.1.4'
N N 0.0061 0.0033 'International Tables Vol C Tables 4.2.6.8 and 6.1.1.4'
loop_
_exptl_crystal_face_index_h
_exptl_crystal_face_index_k
_exptl_crystal_face_index_l
_exptl_crystal_face_perp_dist
_exptl_oxdiff_crystal_face_indexfrac_h
_exptl_oxdiff_crystal_face_indexfrac_k
_exptl_oxdiff_crystal_face_indexfrac_l
_exptl_oxdiff_crystal_face_x
_exptl_oxdiff_crystal_face_y
_exptl_oxdiff_crystal_face_z
0 5 1 0.0290 -0.0069 4.9986 1.0036 0.1101 -0.1403 0.1867
0 4 5 0.0292 -0.0084 3.9999 5.0014 0.1648 0.0475 0.2895
1 4 -5 0.0214 0.9973 4.0013 -4.9939 -0.0954 -0.3314 0.0041
0 1 -5 0.0177 0.0021 0.9984 -4.9976 -0.0729 -0.2259 -0.1362
0 -1 5 0.0440 -0.0021 -0.9984 4.9976 0.0729 0.2259 0.1362
5 2 0 0.0487 4.9924 2.0190 0.0081 -0.3514 -0.0638 0.3027
2 -4 -5 0.0308 2.0063 -3.9920 -4.9988 -0.3200 -0.0445 -0.1930
4 -2 -5 0.0378 4.0018 -1.9848 -4.9946 -0.4385 -0.1129 -0.0351
-4 3 5 0.0315 -4.0030 2.9845 4.9954 0.4569 0.0772 0.0658
0 -4 -5 0.0292 0.0084 -3.9999 -5.0014 -0.1648 -0.0475 -0.2895
-5 -2 1 0.0397 -4.9930 -2.0188 0.9915 0.3696 0.1019 -0.2693
3 -5 4 0.0426 3.0005 -4.9855 3.9987 -0.2517 0.3350 0.1249
3 3 5 0.0405 2.9898 3.0121 5.0046 -0.0865 0.0877 0.4037
-3 2 -5 0.0292 -2.9961 1.9862 -5.0007 0.1784 -0.2660 -0.2503
0 -5 -1 0.0290 0.0069 -4.9986 -1.0036 -0.1101 0.1403 -0.1867
loop_
_geom_angle_atom_site_label_1
_geom_angle_atom_site_label_2
_geom_angle_atom_site_label_3
_geom_angle
_geom_angle_site_symmetry_1
_geom_angle_site_symmetry_3
I1 Bi1 I2 90.07(2) . .
I1 Bi1 I2 177.14(2) . 3_566
I1 Bi1 I3 92.31(2) . .
I1 Bi1 I4 93.43(2) . .
I1 Bi1 I4 90.44(2) . 3_666
I2 Bi1 I2 87.79(2) . 3_566
I2 Bi1 I4 88.60(2) . 3_666
I2 Bi1 I4 173.79(2) . .
I3 Bi1 I2 94.30(2) . .
I3 Bi1 I2 89.74(2) . 3_566
I3 Bi1 I4 176.00(2) . 3_666
I3 Bi1 I4 90.69(2) . .
I4 Bi1 I2 87.620(19) 3_666 3_566
I4 Bi1 I2 88.54(2) . 3_566
I4 Bi1 I4 86.25(2) . 3_666
Bi1 I2 Bi1 92.21(2) . 3_566
Bi1 I4 Bi1 93.75(2) . 3_666
C1 N1 C5 122.5(9) . .
C1 N1 C6 118.8(9) . .
C5 N1 C6 118.6(8) . .
N1 C1 H1 120.0 . .
N1 C1 C2 120.0(10) . .
C2 C1 H1 120.0 . .
C1 C2 H2 120.2 . .
C1 C2 C3 119.6(10) . .
C3 C2 H2 120.2 . .
C2 C3 H3 120.2 . .
C4 C3 C2 119.7(11) . .
C4 C3 H3 120.2 . .
C3 C4 H4 120.5 . .
C3 C4 C5 118.9(11) . .
C5 C4 H4 120.5 . .
N1 C5 C4 119.2(10) . .
N1 C5 H5 120.4 . .
C4 C5 H5 120.4 . .
N1 C6 H6A 109.5 . .
N1 C6 H6B 109.5 . .
N1 C6 H6C 109.5 . .
H6A C6 H6B 109.5 . .
H6A C6 H6C 109.5 . .
H6B C6 H6C 109.5 . .
loop_
_geom_bond_atom_site_label_1
_geom_bond_atom_site_label_2
_geom_bond_distance
_geom_bond_site_symmetry_2
Bi1 I1 2.9098(8) .
Bi1 I2 3.1027(9) .
Bi1 I2 3.3029(7) 3_566
Bi1 I3 2.9195(8) .
Bi1 I4 3.1063(8) .
Bi1 I4 3.2699(7) 3_666
I2 Bi1 3.3029(7) 3_566
I4 Bi1 3.2699(7) 3_666
N1 C1 1.330(12) .
N1 C5 1.332(13) .
N1 C6 1.494(13) .
C1 H1 0.9500 .
C1 C2 1.352(15) .
C2 H2 0.9500 .
C2 C3 1.374(17) .
C3 H3 0.9500 .
C3 C4 1.372(17) .
C4 H4 0.9500 .
C4 C5 1.382(15) .
C5 H5 0.9500 .
C6 H6A 0.9800 .
C6 H6B 0.9800 .
C6 H6C 0.9800 .
loop_
_geom_torsion_atom_site_label_1
_geom_torsion_atom_site_label_2
_geom_torsion_atom_site_label_3
_geom_torsion_atom_site_label_4
_geom_torsion
N1 C1 C2 C3 2.4(18)
C1 N1 C5 C4 -2.0(15)
C1 C2 C3 C4 -2.4(18)
C2 C3 C4 C5 0.2(17)
C3 C4 C5 N1 2.0(16)
C5 N1 C1 C2 -0.2(16)
C6 N1 C1 C2 -176.8(10)
C6 N1 C5 C4 174.6(10)
loop_
_diffrn_oxdiff_twin_id
_diffrn_oxdiff_twin_ratio
_diffrn_oxdiff_twin_reflns_isolated
_diffrn_oxdiff_twin_reflns_overlapped
1 0.5300 7579 18941
2 0.4700 7529 18941
loop_
_twin_individual_id
_twin_individual_mass_fraction_refined
1 0.5477(7)
2 0.4523(7)
