#------------------------------------------------------------------------------
#$Date: 2019-11-23 14:21:20 +0200 (Sat, 23 Nov 2019) $
#$Revision: 233600 $
#$URL: file:///home/coder/svn-repositories/cod/cif/1/55/31/1553103.cif $
#------------------------------------------------------------------------------
#
# This file is available in the Crystallography Open Database (COD),
# http://www.crystallography.net/
#
# All data on this site have been placed in the public domain by the
# contributors.
#
data_1553103
loop_
_publ_author_name
'Zhang, Yan-Yan'
'Hao, Jian'
'Shi, Min'
_publ_section_title
;
 One pot cascade synthesis of fused heterocycles from furan-tethered
 terminal alkynes and aldehydes in the presence of amines and CuBr
;
_journal_issue                   4
_journal_name_full               'Organic Chemistry Frontiers'
_journal_page_first              394
_journal_paper_doi               10.1039/C5QO00033E
_journal_volume                  2
_journal_year                    2015
_chemical_formula_sum            'C16 H22 N O3 S'
_chemical_formula_weight         308.40
_space_group_crystal_system      triclinic
_space_group_IT_number           2
_space_group_name_Hall           '-P 1'
_space_group_name_H-M_alt        'P -1'
_atom_sites_solution_hydrogens   geom
_audit_creation_method           SHELXL-2013
_audit_update_record
;
2014-04-02 deposited with the CCDC.
2015-02-12 downloaded from the CCDC.
;
_cell_angle_alpha                104.782(4)
_cell_angle_beta                 101.238(4)
_cell_angle_gamma                100.235(4)
_cell_formula_units_Z            2
_cell_length_a                   6.2097(13)
_cell_length_b                   11.272(2)
_cell_length_c                   11.547(3)
_cell_measurement_reflns_used    2252
_cell_measurement_temperature    293(2)
_cell_measurement_theta_max      56.248
_cell_measurement_theta_min      6.145
_cell_volume                     744.1(3)
_computing_cell_refinement       'Bruker SMART'
_computing_data_collection       'Bruker SMART'
_computing_data_reduction        'Bruker SHELXTL'
_computing_molecular_graphics    'Bruker SHELXTL'
_computing_publication_material  'Bruker SHELXTL'
_computing_structure_refinement  'SHELXL-2013 (Sheldrick, 2013)'
_computing_structure_solution    'Bruker SHELXTL'
_diffrn_ambient_temperature      293(2)
_diffrn_measured_fraction_theta_full 0.985
_diffrn_measured_fraction_theta_max 0.985
_diffrn_measurement_device_type  'CCD area detector'
_diffrn_measurement_method       'phi and omega scans'
_diffrn_radiation_type           MoK\a
_diffrn_radiation_wavelength     0.71073
_diffrn_reflns_av_R_equivalents  0.0365
_diffrn_reflns_av_unetI/netI     0.0657
_diffrn_reflns_Laue_measured_fraction_full 0.985
_diffrn_reflns_Laue_measured_fraction_max 0.985
_diffrn_reflns_limit_h_max       7
_diffrn_reflns_limit_h_min       -7
_diffrn_reflns_limit_k_max       6
_diffrn_reflns_limit_k_min       -13
_diffrn_reflns_limit_l_max       14
_diffrn_reflns_limit_l_min       -14
_diffrn_reflns_number            4414
_diffrn_reflns_point_group_measured_fraction_full 0.985
_diffrn_reflns_point_group_measured_fraction_max 0.985
_diffrn_reflns_theta_full        25.242
_diffrn_reflns_theta_max         25.998
_diffrn_reflns_theta_min         1.885
_exptl_absorpt_coefficient_mu    0.228
_exptl_absorpt_correction_T_max  0.7457
_exptl_absorpt_correction_T_min  0.6568
_exptl_absorpt_correction_type   multi-scan
_exptl_absorpt_process_details   sadabs
_exptl_crystal_colour            colorless
_exptl_crystal_density_diffrn    1.376
_exptl_crystal_description       prismatic
_exptl_crystal_F_000             330
_exptl_crystal_size_max          0.211
_exptl_crystal_size_mid          0.176
_exptl_crystal_size_min          0.123
_refine_diff_density_max         0.465
_refine_diff_density_min         -0.539
_refine_diff_density_rms         0.118
_refine_ls_extinction_coef       0.124(16)
_refine_ls_extinction_expression Fc^*^=kFc[1+0.001xFc^2^\l^3^/sin(2\q)]^-1/4^
_refine_ls_extinction_method     SHELXL
_refine_ls_goodness_of_fit_ref   1.065
_refine_ls_hydrogen_treatment    constr
_refine_ls_matrix_type           full
_refine_ls_number_parameters     192
_refine_ls_number_reflns         2882
_refine_ls_number_restraints     0
_refine_ls_restrained_S_all      1.065
_refine_ls_R_factor_all          0.0709
_refine_ls_R_factor_gt           0.0656
_refine_ls_shift/su_max          0.000
_refine_ls_shift/su_mean         0.000
_refine_ls_structure_factor_coef Fsqd
_refine_ls_weighting_details
'w=1/[\s^2^(Fo^2^)+(0.1221P)^2^+0.0825P] where P=(Fo^2^+2Fc^2^)/3'
_refine_ls_weighting_scheme      calc
_refine_ls_wR_factor_gt          0.1786
_refine_ls_wR_factor_ref         0.1866
_reflns_Friedel_coverage         0.000
_reflns_number_gt                2469
_reflns_number_total             2882
_reflns_threshold_expression     'I > 2\s(I)'
_cod_data_source_file            c5qo00033e2.cif
_cod_data_source_block           cd214171
_cod_original_cell_volume        744.2(3)
_cod_database_code               1553103
_shelx_space_group_comment
; 
The symmetry employed for this shelxl refinement is uniquely defined 
by the following loop, which should always be used as a source of 
symmetry information in preference to the above space-group names. 
They are only intended as comments. 
;
_shelxl_version_number           2013-4
_shelx_res_file
; 
TITL cd214171 in P-1 
CELL 0.71073   6.2097  11.2724  11.5469 104.782 101.238 100.235 
ZERR    2.00   0.0013   0.0024   0.0025   0.004   0.004   0.004 
LATT 1 
SFAC C  H  N  O  S 
UNIT 32 44 2 6 2 
OMIT  -3.00  52.00 
L.S. 10 
ACTA 
BOND  $H 
FMAP 2 
PLAN 20 
wpdb -1 
mpla c10 > c15 
htab 
conf 
WGHT    0.122100    0.082500 
EXTI    0.123729 
FVAR       0.50087 
MOLE 1 
S1    5    1.057499    0.470663    0.721534    11.00000    0.04531    0.03881 = 
         0.04860    0.01431    0.01110    0.00165 
N1    3    0.925377    0.389424    0.580472    11.00000    0.04205    0.04313 = 
         0.04445    0.01406    0.01353    0.00959 
O1    4    0.478651    0.180173    0.487559    11.00000    0.04559    0.05391 = 
         0.06023    0.02537    0.02685    0.01157 
O2    4    1.290075    0.471230    0.733170    11.00000    0.04082    0.07251 = 
         0.07058    0.02311    0.01229   -0.00334 
O3    4    0.989005    0.586713    0.744642    11.00000    0.08249    0.03748 = 
         0.05956    0.01357    0.01497    0.01076 
C1    1    0.689990    0.397247    0.532038    11.00000    0.04881    0.04578 = 
         0.04991    0.01449    0.01396    0.01768 
AFIX  23 
H1A   2    0.688228    0.465768    0.495592    11.00000   -1.20000 
H1B   2    0.610723    0.409598    0.597086    11.00000   -1.20000 
AFIX   0 
C2    1    0.959280    0.261867    0.527791    11.00000    0.04051    0.04744 = 
         0.05467    0.01245    0.01462    0.01422 
AFIX  23 
H2A   2    0.931805    0.208755    0.580107    11.00000   -1.20000 
H2B   2    1.111152    0.266379    0.516813    11.00000   -1.20000 
AFIX   0 
C3    1    0.783965    0.212928    0.403841    11.00000    0.04004    0.04230 = 
         0.04378    0.01343    0.01877    0.00792 
AFIX  13 
H3    2    0.839578    0.240125    0.338695    11.00000   -1.20000 
AFIX   0 
C4    1    0.586811    0.272071    0.436334    11.00000    0.04113    0.04380 = 
         0.04742    0.02042    0.01639    0.01254 
C5    1    0.411356    0.250087    0.318050    11.00000    0.05168    0.05877 = 
         0.05607    0.01986    0.00749    0.01753 
AFIX  43 
H5    2    0.377075    0.309887    0.279509    11.00000   -1.20000 
AFIX   0 
C6    1    0.316833    0.128176    0.280824    11.00000    0.04642    0.06630 = 
         0.06638    0.01317    0.00376    0.00725 
AFIX  43 
H6    2    0.203319    0.083779    0.209402    11.00000   -1.20000 
AFIX   0 
C7    1    0.429850    0.074626    0.377535    11.00000    0.04586    0.04634 = 
         0.06853    0.01903    0.01985    0.00246 
AFIX  13 
H7    2    0.342604   -0.005219    0.381192    11.00000   -1.20000 
AFIX   0 
C8    1    0.667045    0.074392    0.361615    11.00000    0.04652    0.04530 = 
         0.04893    0.01354    0.01505    0.00672 
C9    1    0.747783   -0.025139    0.327001    11.00000    0.06477    0.04648 = 
         0.09600    0.01057    0.02986    0.01338 
AFIX  93 
H9A   2    0.899414   -0.015135    0.326333    11.00000   -1.20000 
H9B   2    0.653419   -0.105743    0.303116    11.00000   -1.20000 
AFIX   0 
C10   1    0.960311    0.386962    0.817798    11.00000    0.04144    0.04480 = 
         0.03939    0.01195    0.00713    0.00274 
C11   1    1.063187    0.294194    0.843299    11.00000    0.06616    0.04799 = 
         0.05453    0.01757    0.01260    0.01353 
AFIX  43 
H11   2    1.187676    0.279428    0.813400    11.00000   -1.20000 
AFIX   0 
C12   1    0.979827    0.223748    0.913385    11.00000    0.10442    0.04958 = 
         0.06035    0.02299    0.01207    0.00536 
AFIX  43 
H12   2    1.049809    0.161625    0.930695    11.00000   -1.20000 
AFIX   0 
C13   1    0.796198    0.243185    0.958119    11.00000    0.09754    0.05836 = 
         0.04371    0.01244    0.00840   -0.02458 
C14   1    0.697961    0.337918    0.933651    11.00000    0.05990    0.09294 = 
         0.04926    0.00948    0.01879   -0.01414 
AFIX  43 
H14   2    0.575448    0.353395    0.965221    11.00000   -1.20000 
AFIX   0 
C15   1    0.777030    0.410398    0.863406    11.00000    0.04800    0.06679 = 
         0.04859    0.01219    0.01182    0.01067 
AFIX  43 
H15   2    0.708420    0.473410    0.847269    11.00000   -1.20000 
AFIX   0 
C16   1    0.705376    0.163326    1.033589    11.00000    0.18482    0.09391 = 
         0.06674    0.02438    0.03386   -0.05154 
AFIX 137 
H16A  2    0.634311    0.078973    0.980664    11.00000   -1.50000 
H16B  2    0.596621    0.199358    1.070269    11.00000   -1.50000 
H16C  2    0.827695    0.161090    1.097617    11.00000   -1.50000 
AFIX   0 
HKLF 4 
  
REM  cd214171 in P-1 
REM R1 =  0.0656 for    2469 Fo > 4sig(Fo)  and  0.0709 for all    2882 data 
REM    192 parameters refined using      0 restraints 
  
END 
  
WGHT      0.1221      0.0841 
  
REM Instructions for potential hydrogen bonds 
EQIV $1 -x+2, -y+1, -z+1 
HTAB C3 O3_$1 
  
REM Highest difference peak  0.465,  deepest hole -0.539,  1-sigma level  0.118 
Q1    1   1.0000  0.5000  0.5000  10.50000  0.05    0.47 
Q2    1   1.0024  0.3805  0.8394  11.00000  0.05    0.46 
Q3    1   0.4639  0.1861  0.5141  11.00000  0.05    0.36 
Q4    1   0.8581  0.2114  0.6694  11.00000  0.05    0.34 
Q5    1   1.3267  0.4421  0.7535  11.00000  0.05    0.33 
Q6    1   1.1333  0.4473  0.9422  11.00000  0.05    0.30 
Q7    1   1.4202  0.5233  0.6443  11.00000  0.05    0.29 
Q8    1   0.7291  0.4254  0.8402  11.00000  0.05    0.28 
Q9    1   0.3856  0.1652  0.2378  11.00000  0.05    0.28 
Q10   1   0.3269  0.1573  0.1795  11.00000  0.05    0.27 
Q11   1   0.9792 -0.0286  0.3525  11.00000  0.05    0.27 
Q12   1   0.3167  0.1201  0.1298  11.00000  0.05    0.27 
Q13   1   0.4255 -0.1835  0.2815  11.00000  0.05    0.27 
Q14   1   1.0316  0.4424  0.7907  11.00000  0.05    0.26 
Q15   1   0.9607  0.1670  0.2813  11.00000  0.05    0.26 
Q16   1   0.5705  0.3021  0.6404  11.00000  0.05    0.26 
Q17   1   0.2194  0.1112  0.0721  11.00000  0.05    0.26 
Q18   1   0.7479  0.1650  0.2379  11.00000  0.05    0.26 
Q19   1   0.8082  0.6373  0.8657  11.00000  0.05    0.26 
Q20   1   0.2839  0.1996  0.1932  11.00000  0.05    0.26 
;
_shelx_res_checksum              78411
_shelx_hkl_file
; 
   1   0   0  278.07   18.61 
   1   0   0  257.56   17.91 
   2   0   0   60.34    4.08 
   2   0   0   60.07    4.21 
   3   0   0  356.70   23.76 
   3   0   0  352.74   24.61 
   4   0   0   61.90    4.61 
   4   0   0   72.71    4.74 
  -5   0   0    0.98    0.19 
   6   0   0    5.47    0.53 
   7   0   0    2.23    0.37 
   8  -1   0    1.93    0.38 
   7  -1   0    1.36    0.31 
   6  -1   0    0.47    0.18 
   5  -1   0    1.59    0.26 
  -5   1   0    1.76    0.25 
   4  -1   0   30.51    2.14 
   4  -1   0   29.61    2.11 
  -4   1   0   29.42    2.19 
   3  -1   0   36.05    2.56 
   3  -1   0   37.75    2.63 
  -3   1   0   37.35    2.68 
   2  -1   0  254.15   17.36 
   2  -1   0  247.41   16.74 
  -2   1   0  248.08   17.64 
   1  -1   0  792.78   63.09 
   1  -1   0 1000.00   62.00 
  -1   1   0  886.38   63.23 
  -1  -1   0  174.92   12.25 
  -1  -1   0  183.94   12.46 
   1   1   0  169.63   12.26 
   1   1   0  176.45   11.80 
  -2  -1   0   38.45    2.65 
   2   1   0   35.95    2.50 
   2   1   0   35.70    2.56 
  -3  -1   0  259.03   18.02 
   3   1   0  254.51   17.07 
   3   1   0  250.26   17.66 
  -4  -1   0    2.76    0.33 
   4   1   0    2.17    0.28 
   4   1   0    2.65    0.22 
  -5  -1   0    3.74    0.45 
   5   1   0    4.13    0.40 
  -6  -1   0   16.28    1.34 
   6   1   0   16.33    1.26 
   7   1   0    2.07    0.35 
   8  -2   0    1.23    0.35 
   7  -2   0   -0.16    0.12 
   6  -2   0    4.01    0.43 
   5  -2   0    7.51    0.60 
   5  -2   0    6.09    0.61 
  -5   2   0    7.60    0.60 
   4  -2   0    1.33    0.22 
   4  -2   0    1.27    0.20 
  -4   2   0    1.37    0.17 
   3  -2   0  142.64    9.32 
   3  -2   0  139.62    9.00 
  -3   2   0  118.99    9.43 
   2  -2   0  201.50   14.11 
  -2   2   0  204.00   14.32 
   1  -2   0  365.29   25.48 
   1  -2   0  356.16   25.03 
   0  -2   0   18.18    1.32 
  -1  -2   0    3.12    0.32 
   1   2   0    4.18    0.28 
  -2  -2   0    0.09    0.08 
   2   2   0    0.12    0.06 
  -3  -2   0   45.99    3.36 
   3   2   0   46.13    3.15 
  -4  -2   0    3.34    0.39 
   4   2   0    3.09    0.31 
  -5  -2   0   24.86    1.93 
   5   2   0   24.89    1.79 
  -6  -2   0    0.30    0.18 
   6   2   0    0.22    0.14 
   7   2   0    0.80    0.23 
   8  -3   0    4.46    0.61 
   7  -3   0    2.68    0.42 
   6  -3   0   -0.05    0.12 
   5  -3   0   28.43    2.02 
   5  -3   0   27.22    2.04 
   4  -3   0   23.11    1.75 
   4  -3   0   22.47    1.70 
  -4   3   0   25.16    1.73 
   3  -3   0    1.71    0.23 
  -3   3   0    1.56    0.15 
   2  -3   0    0.28    0.05 
   2  -3   0    0.08    0.08 
   1  -3   0   18.51    1.35 
   1  -3   0   18.61    1.36 
   0  -3   0  140.18   10.04 
   0  -3   0  147.98   10.21 
  -1  -3   0    7.62    0.61 
  -2  -3   0   25.80    1.95 
   2   3   0   26.29    1.80 
  -3  -3   0    0.22    0.12 
   3   3   0    0.38    0.10 
  -4  -3   0    4.13    0.45 
   4   3   0    4.12    0.37 
  -5  -3   0    1.21    0.28 
   5   3   0    1.45    0.23 
  -6  -3   0    1.51    0.32 
   6   3   0    0.69    0.19 
   7   3   0    0.33    0.18 
   8  -4   0    0.76    0.28 
   7  -4   0    4.01    0.53 
   6  -4   0    6.28    0.60 
   6  -4   0    6.32    0.59 
   5  -4   0    5.36    0.48 
   5  -4   0    4.05    0.46 
   4  -4   0   18.73    1.47 
  -4   4   0   19.89    1.41 
   3  -4   0   41.97    3.00 
   3  -4   0   42.77    3.05 
   2  -4   0   41.92    3.09 
   2  -4   0   45.55    3.12 
   1  -4   0  108.54    7.38 
   1  -4   0  102.15    7.45 
   0  -4   0   85.75    6.05 
   0  -4   0   84.23    5.96 
  -1  -4   0    3.79    0.37 
  -2  -4   0    0.37    0.13 
   2   4   0    0.76    0.11 
  -3  -4   0    4.28    0.47 
   3   4   0    5.04    0.40 
  -4  -4   0   28.74    2.06 
   4   4   0   24.68    1.85 
  -5  -4   0    6.75    0.71 
   5   4   0    7.15    0.59 
  -6  -4   0    7.22    0.72 
   6   4   0    5.85    0.56 
   7   4   0    0.77    0.23 
   8  -5   0    3.47    0.52 
   7  -5   0    1.67    0.35 
   6  -5   0    3.25    0.41 
   6  -5   0    3.18    0.43 
   5  -5   0   23.92    1.82 
   4  -5   0  104.05    7.36 
   3  -5   0   -0.24    0.08 
   3  -5   0    0.12    0.05 
   2  -5   0    9.82    0.75 
   2  -5   0   10.29    0.81 
   1  -5   0   92.79    6.78 
   1  -5   0   98.36    6.72 
   0  -5   0   49.29    3.57 
   0  -5   0   49.69    3.52 
  -1  -5   0    0.64    0.13 
  -1  -5   0    0.63    0.16 
  -2  -5   0    2.54    0.33 
  -2  -5   0    2.31    0.23 
  -3  -5   0   37.70    2.75 
   3   5   0   35.68    2.51 
  -4  -5   0    1.82    0.34 
   4   5   0    1.46    0.21 
  -5  -5   0    3.41    0.48 
   5   5   0    2.58    0.33 
  -6  -5   0    0.71    0.28 
   6   5   0    0.71    0.21 
   7  -6   0    7.95    0.76 
   6  -6   0    4.07    0.45 
   6  -6   0    3.53    0.48 
   5  -6   0   51.49    3.75 
   4  -6   0   70.04    5.02 
   3  -6   0   68.82    5.68 
   3  -6   0   89.83    5.69 
   2  -6   0  119.55    8.41 
   1  -6   0  263.41   18.24 
   1  -6   0  259.92   18.50 
   0  -6   0   95.14    6.71 
   0  -6   0   92.25    6.60 
  -1  -6   0   40.49    2.99 
  -2  -6   0   10.32    0.89 
  -2  -6   0   10.59    0.82 
  -3  -6   0    4.62    0.51 
   4   6   0  112.74    7.63 
  -5  -6   0    0.76    0.27 
   5   6   0    0.61    0.16 
  -6  -6   0    4.80    0.65 
   6   6   0    3.93    0.43 
   7  -7   0    5.76    0.61 
   6  -7   0    3.17    0.45 
   5  -7   0   42.89    3.18 
   4  -7   0   46.95    3.44 
   3  -7   0   42.50    3.13 
   3  -7   0   45.41    3.21 
   2  -7   0   69.77    4.88 
   2  -7   0   66.36    4.88 
   1  -7   0  110.27    7.79 
   1  -7   0  110.65    7.88 
   0  -7   0    0.83    0.19 
   0  -7   0    0.88    0.20 
  -1  -7   0   38.78    2.88 
  -2  -7   0   33.72    2.43 
  -2  -7   0   33.30    2.55 
  -3  -7   0   14.02    1.21 
  -4  -7   0   17.34    1.48 
  -5  -7   0   18.28    1.59 
   7  -8   0    0.28    0.22 
   7  -8   0    0.39    0.22 
   6  -8   0    5.66    0.61 
   5  -8   0    7.53    0.74 
   4  -8   0   25.17    1.96 
   3  -8   0    5.39    0.57 
   2  -8   0    2.99    0.31 
   2  -8   0    2.72    0.39 
   1  -8   0    2.03    0.31 
   1  -8   0    1.77    0.27 
   0  -8   0    6.59    0.64 
   0  -8   0    7.75    0.66 
  -1  -8   0   29.97    1.99 
  -1  -8   0   22.00    1.88 
  -2  -8   0    0.93    0.23 
  -3  -8   0   31.44    2.47 
  -4  -8   0    9.82    0.97 
  -5  -8   0    8.62    0.92 
   7  -9   0   -0.06    0.18 
   6  -9   0    2.09    0.41 
   5  -9   0    2.99    0.47 
   4  -9   0   12.71    1.11 
   3  -9   0    3.21    0.46 
   2  -9   0   10.03    0.94 
   2  -9   0   11.63    0.90 
   1  -9   0   26.16    2.00 
   1  -9   0   26.31    1.99 
   0  -9   0   17.62    1.42 
   0  -9   0   18.47    1.44 
  -1  -9   0   10.10    0.93 
  -1  -9   0   10.98    0.90 
  -2  -9   0   10.52    0.97 
  -3  -9   0    1.27    0.33 
  -4  -9   0    9.24    0.96 
   7 -10   0    1.00    0.33 
   6 -10   0    0.19    0.21 
   5 -10   0    6.74    0.72 
   4 -10   0    2.17    0.39 
   3 -10   0    1.48    0.33 
   2 -10   0    7.40    0.72 
   2 -10   0    7.13    0.66 
   1 -10   0    1.26    0.28 
   1 -10   0    1.49    0.27 
   0 -10   0    1.60    0.31 
   0 -10   0    1.73    0.31 
  -1 -10   0    3.94    0.44 
  -1 -10   0    3.94    0.51 
  -2 -10   0    8.68    0.86 
  -3 -10   0    1.85    0.40 
  -4 -10   0    0.33    0.26 
   6 -11   0    0.00    0.23 
   5 -11   0    0.13    0.20 
   4 -11   0    5.89    0.72 
   3 -11   0    0.36    0.21 
   2 -11   0   23.87    1.91 
   1 -11   0    0.19    0.13 
   1 -11   0    0.20    0.16 
   0 -11   0    0.08    0.15 
   0 -11   0    0.23    0.17 
  -1 -11   0   11.40    1.04 
  -2 -11   0    0.64    0.26 
  -3 -11   0   -0.12    0.21 
   6 -12   0    0.02    0.24 
   5 -12   0   -0.17    0.23 
   4 -12   0    0.26    0.23 
   3 -12   0    8.48    0.87 
   2 -12   0    0.12    0.19 
   1 -12   0    3.59    0.54 
   1 -12   0    3.09    0.45 
   0 -12   0    0.35    0.26 
   0 -12   0    0.33    0.19 
  -1 -12   0    8.23    0.84 
  -2 -12   0    0.05    0.22 
   5 -13   0   -0.08    0.23 
   4 -13   0    0.80    0.33 
   3 -13   0    3.00    0.53 
   2 -13   0    1.27    0.36 
   1 -13   0    6.65    0.73 
   1 -13   0    8.08    0.80 
   0 -13   0    6.42    0.68 
   0 -13   0    5.39    0.69 
  -1 -13   0    2.19    0.45 
   4 -14   0    2.22    0.50 
   3 -14   0    1.59    0.43 
   2 -14   0    4.39    0.66 
   1 -14   0    2.41    0.47 
   0 -14   0    3.71    0.59 
   0 -14   1    0.14    0.23 
   1 -14   1    0.21    0.22 
   2 -14   1    0.22    0.23 
   3 -14   1    0.30    0.25 
   4 -14   1    0.06    0.24 
  -2 -13   1    0.34    0.26 
  -1 -13   1    0.43    0.24 
   0 -13   1    2.89    0.48 
   0 -13   1    3.20    0.50 
   1 -13   1    0.13    0.19 
   2 -13   1    5.24    0.69 
   3 -13   1    0.18    0.22 
   4 -13   1    7.38    0.89 
   5 -13   1    1.10    0.38 
  -3 -12   1    0.62    0.32 
  -2 -12   1    0.91    0.32 
  -1 -12   1   21.43    1.78 
   0 -12   1    5.85    0.61 
   0 -12   1    5.12    0.59 
   1 -12   1    2.00    0.38 
   1 -12   1    1.65    0.32 
   2 -12   1    0.08    0.17 
   3 -12   1   -0.12    0.15 
   4 -12   1    0.38    0.23 
   5 -12   1    2.30    0.47 
   6 -12   1    0.74    0.32 
  -3 -11   1    5.37    0.73 
  -2 -11   1   24.61    2.02 
  -1 -11   1   29.59    2.33 
   0 -11   1   86.27    5.98 
   0 -11   1   80.07    6.05 
   1 -11   1    0.08    0.15 
   1 -11   1    0.21    0.14 
   2 -11   1   25.55    2.02 
   3 -11   1    0.85    0.27 
   4 -11   1    0.03    0.17 
   5 -11   1    0.38    0.23 
   6 -11   1    1.71    0.41 
  -4 -10   1    4.84    0.71 
  -3 -10   1    9.88    0.98 
  -2 -10   1   30.90    2.43 
  -1 -10   1   55.92    3.66 
  -1 -10   1   42.22    3.50 
   0 -10   1    9.94    0.91 
   0 -10   1   11.13    0.93 
   1 -10   1   30.11    2.30 
   1 -10   1   30.46    2.29 
   2 -10   1   20.39    1.55 
   2 -10   1   19.58    1.60 
   3 -10   1    6.12    0.64 
   4 -10   1    3.48    0.52 
   5 -10   1   -0.04    0.17 
   6 -10   1    1.97    0.42 
   7 -10   1    0.83    0.31 
  -5  -9   1    1.76    0.44 
  -4  -9   1    0.11    0.19 
  -3  -9   1   12.47    1.13 
  -2  -9   1    1.92    0.35 
  -1  -9   1   14.39    1.20 
   0  -9   1   12.22    1.09 
   0  -9   1   14.91    1.11 
   1  -9   1   70.10    5.05 
   1  -9   1   70.41    5.08 
   2  -9   1    1.56    0.30 
   2  -9   1    1.62    0.24 
   3  -9   1    0.14    0.14 
   4  -9   1   15.55    1.31 
   5  -9   1    2.38    0.42 
   6  -9   1    0.90    0.28 
   7  -9   1    1.88    0.37 
   7  -9   1    1.91    0.40 
  -5  -8   1    2.29    0.48 
  -4  -8   1    2.04    0.42 
  -3  -8   1    1.28    0.29 
  -2  -8   1   20.87    1.67 
  -1  -8   1   10.52    0.91 
   0  -8   1   18.88    1.48 
   0  -8   1   19.15    1.46 
   1  -8   1    1.94    0.30 
   2  -8   1   37.63    2.80 
   2  -8   1   38.11    2.76 
   3  -8   1   18.55    1.47 
   4  -8   1    5.38    0.57 
   5  -8   1    0.41    0.19 
   6  -8   1    0.19    0.16 
   7  -8   1   -0.04    0.19 
   7  -8   1    0.10    0.18 
  -6  -7   1    0.11    0.24 
  -5  -7   1    2.81    0.50 
  -4  -7   1   14.07    1.24 
  -3  -7   1   17.63    1.46 
  -2  -7   1   22.27    1.62 
  -2  -7   1   21.49    1.72 
  -1  -7   1    2.58    0.32 
  -1  -7   1    1.50    0.22 
   0  -7   1   81.12    5.73 
   0  -7   1   80.73    5.82 
   1  -7   1   83.18    5.95 
   1  -7   1   83.33    5.90 
   2  -7   1    5.06    0.52 
   2  -7   1    5.46    0.45 
   3  -7   1   43.21    3.16 
   4  -7   1   29.64    2.24 
   5  -7   1    0.55    0.23 
   6  -7   1    1.08    0.26 
   6  -7   1    1.17    0.27 
   7  -7   1    9.29    0.86 
   6   6  -1    7.01    0.61 
  -6  -6   1    6.99    0.79 
   5   6  -1   14.30    1.10 
  -5  -6   1   15.85    1.33 
   4   6  -1   17.54    1.31 
  -4  -6   1   19.45    1.53 
  -3  -6   1   21.21    1.69 
  -2  -6   1    5.64    0.46 
  -2  -6   1    5.25    0.53 
  -1  -6   1    9.65    0.82 
  -1  -6   1    9.85    0.77 
   0  -6   1  113.40    8.00 
   0  -6   1  114.82    8.14 
   1  -6   1  121.36    8.47 
   1  -6   1  119.90    8.57 
   2  -6   1   56.18    3.95 
   2  -6   1   54.44    3.97 
   3  -6   1   65.72    4.70 
   4  -6   1    1.81    0.32 
   5  -6   1    6.24    0.62 
   6  -6   1    0.07    0.14 
   6  -6   1    0.83    0.24 
   7  -6   1    0.01    0.16 
   6   5  -1    8.55    0.68 
  -6  -5   1    6.11    0.76 
   5   5  -1   88.28    6.01 
   4   5  -1    1.07    0.18 
  -4  -5   1    1.17    0.27 
   3   5  -1   26.67    1.84 
  -3  -5   1   26.29    2.04 
  -2  -5   1  125.94    9.16 
  -2  -5   1  130.11    8.93 
  -1  -5   1   12.85    1.03 
  -1  -5   1   13.20    0.98 
   0  -5   1   83.07    5.80 
   0  -5   1   81.88    5.89 
   1  -5   1  107.43    7.62 
   2  -5   1   40.02    2.96 
   2  -5   1   42.07    2.93 
   3  -5   1   46.66    3.36 
   4  -5   1   99.29    7.03 
   5  -5   1    6.69    0.66 
   5  -5   1    7.66    0.67 
   6  -5   1    4.48    0.52 
   6  -5   1    4.50    0.47 
   7  -5   1    3.48    0.50 
   7   4  -1    4.06    0.47 
  -7  -4   1    6.26    0.70 
   6   4  -1    4.05    0.42 
  -6  -4   1    3.96    0.56 
   5   4  -1   57.85    3.99 
  -5  -4   1   58.08    4.31 
   4   4  -1   77.71    5.18 
  -4  -4   1   74.42    5.55 
   3   4  -1    9.71    0.74 
  -3  -4   1   10.34    0.86 
   2   4  -1   14.73    0.97 
  -2  -4   1   13.44    0.99 
  -2  -4   1   12.89    1.08 
  -1  -4   1  214.57   15.10 
  -1  -4   1  219.99   15.39 
   0  -4   1   19.62    1.45 
   1  -4   1  232.18   16.50 
   1  -4   1  235.42   16.27 
   2  -4   1   61.45    4.36 
   3  -4   1   60.18    4.28 
   4  -4   1   31.31    2.30 
   5  -4   1    3.66    0.42 
   5  -4   1    4.28    0.45 
   6  -4   1    5.11    0.53 
   7  -4   1    2.56    0.41 
   8  -4   1    0.95    0.30 
   7   3  -1    1.42    0.29 
   6   3  -1   41.05    2.84 
  -6  -3   1   39.14    3.06 
   5   3  -1   43.32    3.03 
   5   3  -1   43.64    3.03 
   4   3  -1   39.70    2.72 
   4   3  -1   38.87    2.72 
   3   3  -1   14.42    1.05 
  -3  -3   1   14.90    1.17 
   2   3  -1  124.84    8.34 
  -2  -3   1  123.82    8.85 
  -2  -3   1  123.64    8.63 
  -1  -3   1    8.32    0.61 
  -1  -3   1    8.24    0.66 
   0  -3   1   37.94    2.70 
   0  -3   1   38.44    2.74 
   1  -3   1   91.52    6.26 
   1  -3   1   85.17    6.19 
   2  -3   1    1.43    0.20 
  -3   3  -1   47.18    3.36 
   3  -3   1   47.47    3.38 
  -4   3  -1   -0.04    0.05 
   4  -3   1    0.04    0.09 
   4  -3   1   -0.04    0.08 
   5  -3   1   71.15    4.80 
   5  -3   1   67.92    4.93 
   6  -3   1   -0.09    0.13 
   7  -3   1    0.28    0.19 
   7   2  -1    4.71    0.50 
   6   2  -1    8.17    0.68 
  -6  -2   1    7.19    0.74 
   5   2  -1    6.48    0.56 
  -5  -2   1    6.55    0.63 
   4   2  -1   41.09    2.97 
  -4  -2   1   45.41    3.19 
   3   2  -1    1.95    0.21 
  -3  -2   1    2.05    0.27 
   2   2  -1   -0.01    0.05 
  -2  -2   1    0.04    0.07 
   1   2  -1  197.93   13.18 
  -1  -2   1  194.26   13.93 
  -1  -2   1  198.85   13.69 
   0  -2   1  515.97   35.77 
   0  -2   1  514.90   36.37 
   1  -2   1    2.37    0.22 
  -2   2  -1    7.62    0.57 
   2  -2   1    7.94    0.61 
  -3   2  -1   26.78    1.94 
   3  -2   1   27.70    1.89 
   3  -2   1   26.11    1.94 
  -4   2  -1   53.89    3.93 
   4  -2   1   64.13    3.90 
   4  -2   1   46.46    3.76 
   5  -2   1    2.01    0.26 
   5  -2   1    1.60    0.29 
   6  -2   1    0.65    0.21 
   7  -2   1    0.29    0.18 
   7   1  -1    4.33    0.51 
   6   1  -1    2.76    0.37 
  -6  -1   1    3.22    0.43 
   5   1  -1   12.39    0.99 
  -5  -1   1   13.56    1.07 
   4   1  -1    2.78    0.30 
  -4  -1   1    3.72    0.37 
   3   1  -1   14.23    1.06 
  -3  -1   1   15.44    1.15 
   2   1  -1   30.48    2.23 
  -2  -1   1   35.12    2.38 
   1   1  -1   22.06    1.54 
  -1  -1   1   23.12    1.64 
   0  -1   1   33.46    2.45 
  -1   1  -1  218.59   15.05 
   1  -1   1  206.80   14.78 
  -2   1  -1   17.78    1.24 
   2  -1   1   16.94    1.19 
   2  -1   1   16.05    1.22 
  -3   1  -1    0.38    0.09 
   3  -1   1    0.17    0.08 
   3  -1   1    0.06    0.06 
  -4   1  -1   29.90    2.16 
   4  -1   1   30.05    2.11 
   4  -1   1   27.72    2.07 
  -5   1  -1    2.90    0.33 
   5  -1   1    2.23    0.32 
   6  -1   1    2.60    0.37 
   7  -1   1    0.25    0.18 
   8   0  -1    0.82    0.26 
   7   0  -1   -0.12    0.19 
   6   0  -1    0.01    0.10 
  -6   0   1    0.04    0.10 
   5   0  -1    1.35    0.22 
  -5   0   1    0.73    0.18 
   4   0  -1   31.26    2.18 
   4   0  -1   31.33    2.19 
  -4   0   1   30.18    2.29 
   3   0  -1    4.24    0.35 
   3   0  -1    4.61    0.38 
  -3   0   1    3.96    0.39 
   2   0  -1  403.54   27.01 
  -2   0   1  404.05   28.49 
   1   0  -1   61.63    4.80 
  -1   0   1   81.66    5.07 
   0   0  -1  229.10   15.37 
   0   0   1  227.46   16.12 
   1   0   1  346.52   23.61 
   1   0   1  359.56   24.49 
   2   0   1   11.11    0.79 
   2   0   1   10.92    0.80 
   3   0   1    1.29    0.18 
   3   0   1    1.18    0.14 
   4   0   1   46.53    3.32 
   4   0   1   49.47    3.40 
   5   0   1   23.38    1.71 
   5   0   1   23.35    1.71 
   7   0   1    0.50    0.21 
   8  -1  -1    0.52    0.27 
   7  -1  -1    0.01    0.12 
   6  -1  -1    1.06    0.22 
   5  -1  -1    0.00    0.09 
  -5   1   1    0.08    0.10 
   4  -1  -1   71.86    4.94 
   4  -1  -1   71.14    4.81 
  -4   1   1   67.95    5.03 
   3  -1  -1  250.49   16.19 
   3  -1  -1  251.39   16.76 
  -3   1   1  221.75   17.03 
   2  -1  -1  127.54    8.70 
  -2   1   1  122.40    8.84 
   0  -1  -1    7.00    0.52 
   1   1   1  539.84   36.08 
  -2  -1  -1    0.93    0.17 
   2   1   1    1.19    0.13 
   2   1   1    1.10    0.16 
   2   1   1    1.20    0.13 
  -3  -1  -1   23.03    1.62 
   3   1   1   21.36    1.52 
   3   1   1   20.47    1.53 
  -4  -1  -1   43.45    3.14 
   4   1   1   41.82    2.95 
  -5  -1  -1   29.39    2.20 
   5   1   1   28.43    2.07 
  -6  -1  -1    5.51    0.58 
   6   1   1    5.40    0.53 
   7   1   1    3.15    0.44 
   8  -2  -1    0.80    0.26 
   7  -2  -1    0.74    0.22 
   6  -2  -1    1.71    0.30 
   5  -2  -1    0.03    0.09 
   5  -2  -1   -0.09    0.08 
  -5   2   1    0.03    0.10 
   4  -2  -1   65.65    4.74 
   4  -2  -1   68.91    4.61 
   3  -2  -1  656.72   44.79 
  -3   2   1  634.84   45.53 
   2  -2  -1  290.38   20.35 
  -2   2   1  295.54   20.68 
   1  -2  -1  464.55   32.75 
   0  -2  -1  628.93   44.33 
  -1  -2  -1   49.69    3.61 
   1   2   1   51.19    3.40 
  -2  -2  -1   49.27    3.38 
   2   2   1   44.15    3.17 
  -3  -2  -1    1.22    0.21 
   3   2   1    0.91    0.16 
   3   2   1    1.01    0.13 
  -4  -2  -1   38.32    3.10 
   4   2   1   45.63    2.92 
  -5  -2  -1   53.38    3.74 
   5   2   1   47.61    3.49 
  -6  -2  -1    0.07    0.15 
   6   2   1    0.00    0.11 
   7   2   1    2.99    0.41 
   8  -3  -1    0.22    0.21 
   7  -3  -1    0.49    0.21 
   6  -3  -1    4.62    0.48 
   5  -3  -1    1.30    0.24 
   5  -3  -1    1.19    0.22 
   4  -3  -1  142.03    9.98 
  -4   3   1  143.00   10.10 
   3  -3  -1   11.07    0.91 
  -3   3   1   12.34    0.88 
   2  -3  -1    2.36    0.26 
   2  -3  -1    2.41    0.21 
   1  -3  -1    0.53    0.08 
   0  -3  -1   84.54    6.01 
  -1  -3  -1   87.21    6.22 
   2   3   1   13.80    0.98 
  -3  -3  -1   29.03    2.14 
   3   3   1   27.84    1.97 
  -4  -3  -1   13.34    1.12 
   4   3   1   13.55    1.00 
  -5  -3  -1    4.49    0.50 
   5   3   1    4.02    0.41 
  -6  -3  -1    3.10    0.47 
   6   3   1    2.82    0.36 
   7   3   1    6.24    0.60 
   8  -4  -1    0.22    0.22 
   7  -4  -1    0.24    0.19 
   6  -4  -1    1.95    0.33 
   6  -4  -1    2.09    0.32 
   5  -4  -1   29.53    2.21 
   5  -4  -1   29.97    2.14 
   4  -4  -1   56.06    4.11 
  -4   4   1   58.75    4.10 
   3  -4  -1    2.61    0.23 
   3  -4  -1    2.76    0.30 
   2  -4  -1   41.01    3.04 
   2  -4  -1   44.89    3.07 
   1  -4  -1  184.43   13.04 
   0  -4  -1  246.17   17.41 
   0  -4  -1  246.15   17.41 
  -1  -4  -1  182.25   12.93 
  -2  -4  -1    9.42    0.83 
   2   4   1   10.48    0.73 
  -3  -4  -1    8.11    0.72 
   3   4   1    7.92    0.61 
  -4  -4  -1   26.18    2.11 
   4   4   1   28.33    1.93 
  -5  -4  -1    6.46    0.65 
   5   4   1    5.81    0.52 
  -6  -4  -1    4.53    0.60 
   6   4   1    4.59    0.46 
   8  -5  -1    0.10    0.22 
   7  -5  -1    5.01    0.59 
   6  -5  -1    1.05    0.25 
   6  -5  -1    1.57    0.28 
   5  -5  -1   12.46    1.03 
   4  -5  -1   83.55    5.82 
   4  -5  -1   80.35    5.80 
   3  -5  -1  154.45   10.43 
   3  -5  -1  143.16   10.49 
   2  -5  -1    0.56    0.15 
   2  -5  -1    0.48    0.10 
   1  -5  -1  227.96   16.19 
   1  -5  -1  229.86   15.96 
   0  -5  -1    9.17    0.74 
  -1  -5  -1    3.37    0.36 
  -2  -5  -1    1.67    0.28 
  -3  -5  -1    0.65    0.20 
   3   5   1    0.34    0.12 
   3   5   1    0.33    0.12 
  -4  -5  -1   22.72    1.75 
   4   5   1   20.96    1.54 
  -5  -5  -1    5.19    0.62 
   5   5   1    4.84    0.45 
  -6  -5  -1    3.61    0.56 
   6   5   1    3.55    0.39 
   8  -6  -1    1.96    0.39 
   7  -6  -1    5.10    0.61 
   6  -6  -1    1.97    0.34 
   5  -6  -1   20.36    1.60 
   4  -6  -1   12.83    1.08 
   3  -6  -1    0.78    0.12 
   3  -6  -1    0.92    0.21 
   2  -6  -1   22.01    1.64 
   2  -6  -1   22.69    1.70 
   1  -6  -1   85.13    6.08 
   1  -6  -1   85.09    6.03 
   0  -6  -1    0.65    0.17 
  -1  -6  -1    5.31    0.51 
  -2  -6  -1    2.20    0.34 
  -3  -6  -1   35.63    2.72 
  -4  -6  -1    5.36    0.60 
  -5  -6  -1   10.82    1.23 
   5   6   1   17.15    1.11 
  -6  -6  -1    1.93    0.44 
   6   6   1    2.70    0.36 
   7  -7  -1    1.18    0.32 
   6  -7  -1    0.13    0.16 
   5  -7  -1   10.96    0.97 
   4  -7  -1    0.28    0.20 
   3  -7  -1    3.45    0.44 
   3  -7  -1    3.77    0.35 
   2  -7  -1    1.45    0.20 
   2  -7  -1    0.77    0.22 
   2  -7  -1    1.37    0.20 
   1  -7  -1    1.30    0.22 
   1  -7  -1    1.39    0.25 
   0  -7  -1   84.98    6.13 
   0  -7  -1   88.05    6.23 
  -1  -7  -1    6.82    0.60 
  -1  -7  -1    6.60    0.63 
  -2  -7  -1    0.04    0.10 
  -2  -7  -1    0.06    0.11 
  -3  -7  -1   19.43    1.60 
  -4  -7  -1    1.75    0.37 
  -5  -7  -1    0.10    0.19 
   7  -8  -1    0.33    0.21 
   7  -8  -1    0.45    0.25 
   6  -8  -1    2.29    0.40 
   5  -8  -1    1.49    0.33 
   4  -8  -1   42.04    3.13 
   3  -8  -1    1.13    0.18 
   3  -8  -1    1.10    0.25 
   2  -8  -1   33.40    2.50 
   1  -8  -1   22.40    1.74 
   1  -8  -1   23.44    1.76 
   0  -8  -1   18.49    1.45 
   0  -8  -1   18.68    1.46 
  -1  -8  -1   66.69    4.86 
  -1  -8  -1   69.58    4.99 
  -2  -8  -1   12.19    1.06 
  -3  -8  -1   55.04    4.14 
  -4  -8  -1    5.28    0.69 
  -5  -8  -1    0.79    0.31 
   7  -9  -1    0.08    0.21 
   6  -9  -1    1.65    0.37 
   5  -9  -1    5.43    0.61 
   4  -9  -1   -0.11    0.18 
   3  -9  -1   21.13    1.69 
   2  -9  -1    9.68    0.87 
   2  -9  -1    9.76    0.82 
   1  -9  -1    2.14    0.31 
   1  -9  -1    2.03    0.35 
   0  -9  -1  102.72    7.47 
   0  -9  -1  107.83    7.60 
  -1  -9  -1   31.58    2.46 
  -1  -9  -1   32.59    2.40 
  -2  -9  -1   33.44    2.60 
  -3  -9  -1    5.38    0.68 
  -4  -9  -1    2.75    0.52 
   7 -10  -1    3.44    0.57 
   6 -10  -1    0.45    0.25 
   5 -10  -1    8.89    0.89 
   4 -10  -1    0.45    0.20 
   3 -10  -1    3.30    0.49 
   2 -10  -1    0.12    0.10 
   2 -10  -1   -0.05    0.12 
   1 -10  -1   27.81    2.19 
   1 -10  -1   29.75    2.22 
   0 -10  -1   24.12    1.84 
   0 -10  -1   22.93    1.85 
  -1 -10  -1   12.20    1.14 
  -1 -10  -1   14.59    1.13 
  -2 -10  -1    3.58    0.53 
  -3 -10  -1    3.31    0.56 
  -4 -10  -1    2.19    0.51 
   6 -11  -1    3.84    0.62 
   5 -11  -1    2.82    0.51 
   4 -11  -1    6.71    0.75 
   3 -11  -1    2.47    0.44 
   2 -11  -1    0.17    0.14 
   2 -11  -1    0.19    0.18 
   1 -11  -1    9.17    0.82 
   1 -11  -1    8.44    0.84 
   0 -11  -1   13.24    1.16 
   0 -11  -1   13.67    1.16 
  -1 -11  -1    7.74    0.79 
  -2 -11  -1    2.77    0.51 
  -3 -11  -1    8.93    0.96 
   5 -12  -1    8.43    0.92 
   4 -12  -1    0.40    0.26 
   3 -12  -1    0.76    0.34 
   1 -12  -1    1.39    0.30 
   1 -12  -1    1.25    0.33 
   0 -12  -1    4.88    0.61 
   0 -12  -1    4.96    0.62 
  -1 -12  -1    5.58    0.71 
  -2 -12  -1   15.97    1.45 
   5 -13  -1    0.24    0.28 
   4 -13  -1    0.29    0.27 
   3 -13  -1    0.22    0.26 
   2 -13  -1    1.13    0.36 
   1 -13  -1    0.40    0.24 
   1 -13  -1    0.13    0.21 
   0 -13  -1    2.41    0.46 
   0 -13  -1    3.04    0.49 
  -1 -13  -1    4.77    0.68 
   3 -14  -1    0.96    0.34 
   2 -14  -1    4.45    0.70 
   1 -14  -1    0.34    0.30 
  -1 -14   2    0.03    0.23 
   0 -14   2    0.62    0.28 
   1 -14   2    0.59    0.27 
   2 -14   2    0.04    0.22 
   3 -14   2    2.86    0.53 
   4 -14   2    1.26    0.41 
  -2 -13   2   -0.05    0.20 
  -1 -13   2    2.54    0.47 
   0 -13   2    0.50    0.23 
   0 -13   2    0.26    0.19 
   1 -13   2    0.43    0.22 
   2 -13   2    8.67    0.88 
   3 -13   2    0.34    0.22 
   4 -13   2    5.19    0.72 
   5 -13   2    0.87    0.35 
  -3 -12   2    0.94    0.34 
  -2 -12   2    2.43    0.47 
  -1 -12   2    0.50    0.23 
   0 -12   2    6.35    0.67 
   0 -12   2    7.03    0.69 
   1 -12   2    6.17    0.65 
   1 -12   2    5.63    0.59 
   2 -12   2    0.63    0.26 
   3 -12   2    4.21    0.60 
   4 -12   2    4.20    0.62 
   5 -12   2    0.69    0.31 
   6 -12   2    0.18    0.26 
  -4 -11   2    6.10    0.82 
  -3 -11   2    5.59    0.73 
  -2 -11   2    2.24    0.43 
  -1 -11   2    0.60    0.22 
  -1 -11   2    0.96    0.25 
   0 -11   2    8.87    0.85 
   0 -11   2    9.89    0.87 
   1 -11   2   21.57    1.68 
   1 -11   2   21.29    1.70 
   2 -11   2    1.82    0.37 
   3 -11   2    2.23    0.41 
   4 -11   2   14.78    1.30 
   5 -11   2    0.44    0.24 
   6 -11   2    0.02    0.20 
  -4 -10   2   22.01    1.88 
  -3 -10   2   12.23    1.14 
  -2 -10   2    3.82    0.53 
  -1 -10   2   40.13    3.04 
   0 -10   2    0.64    0.20 
   0 -10   2    0.63    0.21 
   1 -10   2   22.94    1.73 
   1 -10   2   21.21    1.70 
   2 -10   2    3.26    0.46 
   3 -10   2   13.56    1.17 
   4 -10   2    6.92    0.71 
   5 -10   2    0.61    0.24 
   6 -10   2    0.04    0.18 
  -5  -9   2   15.19    1.41 
  -4  -9   2   13.67    1.26 
  -3  -9   2    6.92    0.73 
  -2  -9   2    8.80    0.83 
  -1  -9   2  103.44    7.48 
   0  -9   2    4.11    0.45 
   0  -9   2    4.39    0.45 
   1  -9   2    3.36    0.44 
   1  -9   2    3.42    0.37 
   2  -9   2   12.93    0.98 
   2  -9   2   11.71    1.04 
   3  -9   2    7.23    0.71 
   4  -9   2    2.34    0.40 
   5  -9   2    6.96    0.71 
   6  -9   2    1.76    0.36 
   7  -9   2    3.52    0.53 
   7  -9   2    3.74    0.55 
  -5  -8   2    0.02    0.20 
  -4  -8   2   12.71    1.17 
  -3  -8   2    0.40    0.19 
  -2  -8   2   28.29    2.19 
  -1  -8   2   -0.01    0.08 
  -1  -8   2    0.03    0.10 
   0  -8   2    0.88    0.20 
   0  -8   2    0.89    0.20 
   1  -8   2   20.91    1.72 
   1  -8   2   24.48    1.72 
   2  -8   2    0.82    0.15 
   2  -8   2    0.94    0.23 
   3  -8   2    7.01    0.67 
   4  -8   2    8.93    0.82 
   5  -8   2    1.47    0.31 
   6  -8   2    2.08    0.37 
   7  -8   2    0.78    0.26 
   7  -8   2    0.30    0.21 
  -6  -7   2    1.01    0.34 
  -5  -7   2   10.53    1.03 
  -4  -7   2    2.82    0.46 
  -3  -7   2    4.49    0.51 
  -2  -7   2    2.66    0.40 
  -2  -7   2    3.70    0.33 
  -1  -7   2    4.17    0.40 
  -1  -7   2    4.46    0.45 
   0  -7   2   16.07    1.22 
   0  -7   2   14.99    1.20 
   1  -7   2    0.33    0.15 
   1  -7   2    0.48    0.13 
   2  -7   2    6.58    0.62 
   2  -7   2    6.77    0.54 
   3  -7   2   -0.01    0.12 
   4  -7   2    0.28    0.17 
   5  -7   2   -0.03    0.13 
   6  -7   2    4.41    0.53 
   6  -7   2    4.70    0.51 
   7  -7   2    2.76    0.44 
   6   6  -2    0.34    0.17 
  -6  -6   2    0.17    0.24 
   5   6  -2    8.06    0.65 
  -5  -6   2    7.60    0.81 
   4   6  -2   22.49    1.63 
  -4  -6   2   24.01    1.86 
  -3  -6   2   12.91    1.10 
  -2  -6   2   -0.05    0.08 
  -2  -6   2    0.20    0.09 
  -1  -6   2  168.08   11.56 
  -1  -6   2  163.11   11.79 
   0  -6   2   12.76    0.98 
   0  -6   2   12.40    0.99 
   1  -6   2    3.08    0.35 
   1  -6   2    3.47    0.31 
   2  -6   2   14.02    1.03 
   2  -6   2   13.91    1.10 
   3  -6   2   -0.12    0.09 
   4  -6   2    6.96    0.64 
   5  -6   2    0.64    0.21 
   6  -6   2    4.44    0.49 
   6  -6   2    4.82    0.51 
   7  -6   2    5.15    0.61 
   7   5  -2    0.82    0.28 
   6   5  -2   17.33    1.18 
  -6  -5   2   12.49    1.30 
   5   5  -2    1.55    0.23 
  -5  -5   2    0.36    0.25 
  -4  -5   2    0.40    0.18 
   3   5  -2   25.83    1.82 
  -3  -5   2   27.16    2.04 
  -2  -5   2   50.35    3.87 
  -2  -5   2   55.25    3.73 
  -1  -5   2   82.84    6.05 
  -1  -5   2   85.68    5.91 
   0  -5   2   39.36    2.85 
   0  -5   2   39.32    2.81 
   1  -5   2   45.01    3.18 
   1  -5   2   43.57    3.17 
   2  -5   2  109.97    7.74 
   3  -5   2    1.75    0.28 
   4  -5   2    8.80    0.76 
   5  -5   2  176.10   12.29 
   5  -5   2  174.21   11.86 
   6  -5   2    6.24    0.62 
   6  -5   2    6.32    0.60 
   7  -5   2    4.97    0.60 
   7   4  -2    0.68    0.22 
  -7  -4   2    0.52    0.28 
   6   4  -2    1.11    0.25 
  -6  -4   2    0.48    0.24 
   5   4  -2   49.96    2.99 
  -5  -4   2   34.64    3.19 
   4   4  -2    2.63    0.28 
  -4  -4   2    2.33    0.37 
   3   4  -2   33.86    2.39 
  -3  -4   2   35.99    2.61 
   2   4  -2    6.00    0.44 
  -2  -4   2    5.87    0.44 
  -2  -4   2    5.86    0.54 
  -1  -4   2   64.23    4.68 
  -1  -4   2   66.01    4.57 
   0  -4   2  204.31   14.12 
   0  -4   2  201.03   14.35 
   1  -4   2   50.08    3.55 
   1  -4   2   50.04    3.56 
   2  -4   2    1.71    0.24 
   3  -4   2   28.90    2.12 
   4  -4   2   74.05    5.13 
   4  -4   2   75.65    5.32 
   5  -4   2   29.08    2.03 
   5  -4   2   25.17    1.97 
   6  -4   2   14.44    1.16 
   7  -4   2    0.57    0.25 
   7   3  -2    0.16    0.16 
  -7  -3   2    0.07    0.20 
   6   3  -2   32.16    2.70 
  -6  -3   2   42.93    2.97 
  -6  -3   2   42.76    2.97 
   5   3  -2    8.19    0.68 
  -5  -3   2    8.97    0.81 
   4   3  -2   10.75    0.82 
  -4  -3   2   10.93    0.93 
   3   3  -2   14.34    1.03 
   2   3  -2   46.73    3.16 
  -2  -3   2   46.39    3.39 
  -1  -3   2  455.86   31.80 
  -1  -3   2  461.26   32.37 
   0  -3   2  276.90   19.69 
   0  -3   2  280.60   19.37 
   1  -3   2   67.02    4.77 
   1  -3   2   68.68    4.81 
   2  -3   2   41.28    2.95 
  -3   3  -2  182.89   13.04 
   3  -3   2  183.72   12.89 
   3  -3   2  187.51   12.43 
  -4   3  -2   49.32    3.51 
   4  -3   2   48.96    3.41 
   5  -3   2    0.38    0.15 
   5  -3   2    0.08    0.16 
   6  -3   2    0.14    0.16 
   7  -3   2    0.64    0.24 
   7  -3   2    0.64    0.24 
   7   2  -2    1.19    0.27 
   6   2  -2    5.46    0.51 
  -6  -2   2    5.15    0.61 
   5   2  -2    3.04    0.33 
  -5  -2   2    3.30    0.42 
   4   2  -2    2.46    0.29 
  -4  -2   2    2.97    0.36 
   3   2  -2   98.26    6.73 
  -3  -2   2  101.28    7.14 
   2   2  -2   66.82    4.56 
  -2  -2   2   68.37    4.85 
   1   2  -2   78.24    5.19 
  -1  -2   2   76.15    5.39 
  -1  -2   2   77.30    5.52 
   0  -2   2  711.36   50.14 
   1  -2   2  118.37    8.25 
  -2   2  -2  132.15    9.20 
   2  -2   2  128.14    8.76 
  -3   2  -2   10.14    0.76 
   3  -2   2    9.86    0.78 
   3  -2   2    9.98    0.77 
  -4   2  -2   29.24    2.15 
   4  -2   2   28.82    2.14 
   4  -2   2   30.41    2.10 
   5  -2   2    8.43    0.71 
   5  -2   2    8.64    0.73 
   6  -2   2    0.22    0.15 
   7  -2   2    1.48    0.32 
   7   1  -2    2.08    0.35 
   6   1  -2   -0.14    0.13 
  -6  -1   2    0.00    0.13 
   5   1  -2   26.22    1.88 
   5   1  -2   26.16    1.88 
   4   1  -2   82.24    5.59 
   3   1  -2   10.46    0.80 
   3   1  -2   11.14    0.78 
   2   1  -2  153.15   10.34 
  -2  -1   2  155.23   10.93 
   1   1  -2  595.43   43.54 
   1   1  -2  595.81   43.54 
  -1  -1   2  686.11   45.94 
  -1  -1   2  730.53   45.21 
   0  -1   2   86.46    6.05 
   0  -1   2   87.20    6.15 
  -1   1  -2   10.81    0.78 
   1  -1   2   10.06    0.75 
   1  -1   2   10.96    0.79 
  -2   1  -2  238.92   16.76 
   2  -1   2  233.23   16.49 
   2  -1   2  239.94   15.91 
  -3   1  -2    7.42    0.57 
   3  -1   2    6.98    0.56 
   3  -1   2    6.84    0.56 
  -4   1  -2    3.11    0.31 
   4  -1   2    2.31    0.31 
   4  -1   2    3.13    0.30 
  -5   1  -2    3.08    0.35 
   6  -1   2    1.72    0.33 
   7  -1   2    1.51    0.31 
   8   0  -2    0.09    0.21 
   7   0  -2    0.65    0.21 
   6   0  -2   14.16    1.19 
  -6   0   2   16.78    1.25 
   5   0  -2    0.93    0.20 
  -5   0   2    1.03    0.21 
   4   0  -2    0.20    0.10 
   4   0  -2    0.19    0.08 
  -4   0   2    0.19    0.11 
   3   0  -2  552.29   36.02 
   3   0  -2  554.50   37.33 
  -3   0   2  508.01   37.97 
   2   0  -2    0.20    0.07 
  -2   0   2    0.12    0.07 
  -1   0   2   24.52    1.77 
   0   0   2   20.32    1.45 
   0   0   2   20.34    1.45 
  -1   0  -2  600.58   45.14 
  -1   0  -2  600.38   45.14 
   1   0   2  720.66   42.83 
  -2   0  -2   21.29    1.84 
   2   0   2   26.61    1.76 
   2   0   2   28.41    1.82 
   3   0   2    0.86    0.14 
   3   0   2    0.83    0.15 
   4   0   2    2.27    0.25 
  -5   0  -2    0.43    0.17 
   5   0   2    0.47    0.19 
   6   0   2    0.34    0.17 
   7   0   2   -0.04    0.16 
   8  -1  -2    8.09    0.79 
   7  -1  -2    3.58    0.49 
   6  -1  -2   14.28    1.10 
  -6   1   2   13.53    1.13 
   5  -1  -2    0.98    0.22 
  -5   1   2    1.19    0.21 
   4  -1  -2   10.17    0.80 
   4  -1  -2   10.34    0.79 
   3  -1  -2   -0.09    0.07 
   3  -1  -2    0.06    0.07 
  -3   1   2    0.03    0.05 
  -2   1   2  427.54   30.16 
  -1   1   2  154.54   10.93 
   0   1   2  779.61   54.04 
  -1  -1  -2  848.02   53.53 
   1   1   2  771.27   52.61 
   1   1   2  658.89   50.69 
  -2  -1  -2   67.19    4.76 
   2   1   2   65.77    4.50 
  -3  -1  -2   45.32    3.10 
   3   1   2   45.87    2.93 
   3   1   2   37.17    2.99 
  -4  -1  -2   59.14    4.29 
   4   1   2   58.89    4.05 
  -5  -1  -2   32.56    2.47 
   5   1   2   32.78    2.32 
   6   1   2    0.11    0.14 
   7   1   2   -0.14    0.13 
   8  -2  -2    0.20    0.24 
   7  -2  -2    5.87    0.59 
   6  -2  -2    2.26    0.35 
   5  -2  -2   18.80    1.40 
   5  -2  -2   18.63    1.40 
  -5   2   2   18.67    1.43 
   4  -2  -2    0.57    0.14 
   4  -2  -2    0.57    0.14 
   4  -2  -2    0.10    0.11 
   3  -2  -2   10.61    0.84 
  -3   2   2   11.08    0.84 
  -2   2   2    0.03    0.03 
   1  -2  -2   80.12    5.69 
  -1  -2  -2  377.14   27.71 
   1   2   2  407.89   26.25 
  -2  -2  -2   11.86    0.99 
   2   2   2   11.53    0.94 
   2   2   2   14.70    0.92 
  -3  -2  -2   80.97    5.84 
   3   2   2   83.31    5.50 
   3   2   2   79.34    5.69 
  -4  -2  -2  154.82   10.97 
   4   2   2  152.29   10.35 
  -5  -2  -2    9.20    0.90 
   5   2   2   11.72    0.85 
  -6  -2  -2    0.34    0.20 
   6   2   2    0.47    0.17 
   7   2   2    0.04    0.16 
   8  -3  -2    0.55    0.27 
   7  -3  -2    0.53    0.21 
   6  -3  -2    0.44    0.17 
   5  -3  -2   14.69    1.17 
   5  -3  -2   14.52    1.15 
  -5   3   2   15.74    1.16 
   4  -3  -2  114.13    8.16 
  -4   3   2  118.29    8.26 
   3  -3  -2   68.67    5.10 
  -3   3   2   75.40    5.15 
   2  -3  -2  113.14    8.01 
   1  -3  -2    3.11    0.27 
   0  -3  -2    7.27    0.58 
  -1  -3  -2   13.46    1.04 
  -2  -3  -2    4.86    0.48 
   2   3   2    5.43    0.41 
  -3  -3  -2   78.87    5.70 
  -4  -3  -2   25.34    1.91 
   4   3   2   23.87    1.74 
  -5  -3  -2   -0.02    0.13 
   5   3   2    0.20    0.14 
  -6  -3  -2   -0.13    0.15 
   6   3   2    0.03    0.13 
   8  -4  -2    0.24    0.23 
   7  -4  -2    3.12    0.45 
   6  -4  -2    4.76    0.51 
   6  -4  -2    5.52    0.52 
   5  -4  -2   14.77    1.18 
   4  -4  -2   12.11    0.99 
  -4   4   2   12.53    0.94 
   3  -4  -2   28.59    2.09 
   3  -4  -2   29.26    2.13 
   1  -4  -2   85.01    6.05 
   0  -4  -2    4.42    0.40 
  -1  -4  -2  157.24   11.17 
  -2  -4  -2    0.31    0.14 
  -3  -4  -2    1.20    0.24 
   3   4   2    0.90    0.16 
   4   4   2   60.50    4.14 
  -5  -4  -2    0.60    0.22 
   5   4   2    0.52    0.20 
  -6  -4  -2    0.11    0.18 
   6   4   2   -0.13    0.19 
   8  -5  -2    5.77    0.69 
   7  -5  -2    6.09    0.63 
   6  -5  -2    1.77    0.31 
   6  -5  -2    1.79    0.30 
   5  -5  -2   31.71    2.37 
   4  -5  -2   59.67    4.32 
   4  -5  -2   60.34    4.29 
   3  -5  -2  172.36   10.71 
   3  -5  -2  128.76   10.60 
   2  -5  -2    3.01    0.28 
   1  -5  -2  182.74   12.94 
   0  -5  -2  163.13   11.59 
  -1  -5  -2    2.52    0.32 
  -2  -5  -2    0.55    0.17 
  -3  -5  -2   23.59    1.85 
  -4  -5  -2    7.28    0.69 
   4   5   2    6.17    0.53 
  -5  -5  -2    2.56    0.44 
   5   5   2    2.54    0.32 
  -6  -5  -2    0.14    0.22 
   6   5   2    0.22    0.15 
   8  -6  -2    7.07    0.74 
   7  -6  -2    1.21    0.30 
   6  -6  -2   10.15    0.90 
   5  -6  -2   54.83    3.99 
   4  -6  -2   75.05    5.13 
   4  -6  -2   68.44    5.08 
   3  -6  -2   54.99    3.94 
   3  -6  -2   55.05    3.94 
   2  -6  -2   13.72    1.05 
   2  -6  -2   12.21    0.97 
   1  -6  -2    0.23    0.12 
   0  -6  -2    0.55    0.16 
  -1  -6  -2   13.62    1.11 
  -2  -6  -2    2.46    0.37 
  -3  -6  -2   31.93    2.46 
  -4  -6  -2    6.85    0.72 
  -5  -6  -2    4.83    0.64 
   7  -7  -2    0.95    0.29 
   6  -7  -2    5.31    0.58 
   5  -7  -2   12.12    1.06 
   4  -7  -2   85.55    6.13 
   3  -7  -2    0.05    0.10 
   3  -7  -2    0.15    0.14 
   2  -7  -2   20.56    1.56 
   2  -7  -2   20.91    1.61 
   1  -7  -2   25.50    1.91 
   0  -7  -2   31.86    2.38 
  -1  -7  -2    2.80    0.39 
  -2  -7  -2   14.22    1.20 
  -3  -7  -2    0.14    0.16 
  -4  -7  -2   16.33    1.42 
  -5  -7  -2    0.05    0.19 
   7  -8  -2    0.41    0.24 
   6  -8  -2   -0.09    0.12 
   4  -8  -2    0.04    0.15 
   3  -8  -2   12.78    1.10 
   3  -8  -2   12.66    1.00 
   2  -8  -2   39.19    3.02 
   2  -8  -2   44.01    3.08 
   1  -8  -2   24.95    1.87 
   1  -8  -2   23.73    1.84 
   0  -8  -2    1.70    0.30 
   0  -8  -2    2.16    0.34 
  -1  -8  -2    9.96    0.89 
  -2  -8  -2    1.29    0.30 
  -3  -8  -2    3.38    0.51 
  -4  -8  -2    2.26    0.45 
   7  -9  -2    0.07    0.21 
   6  -9  -2   -0.01    0.16 
   5  -9  -2    0.08    0.18 
   4  -9  -2    8.40    0.82 
   3  -9  -2   10.33    0.95 
   2  -9  -2   -0.07    0.13 
   2  -9  -2    0.15    0.13 
   1  -9  -2    4.29    0.47 
   1  -9  -2    4.39    0.53 
   0  -9  -2   30.94    2.36 
   0  -9  -2   31.42    2.39 
  -1  -9  -2    3.51    0.43 
  -1  -9  -2    3.26    0.47 
  -2  -9  -2    0.37    0.19 
  -3  -9  -2    0.61    0.27 
  -4  -9  -2    1.65    0.42 
   6 -10  -2    3.02    0.53 
   5 -10  -2   -0.08    0.16 
   4 -10  -2    0.33    0.19 
   3 -10  -2    2.10    0.39 
   2 -10  -2    0.45    0.15 
   2 -10  -2    0.41    0.20 
   1 -10  -2    5.51    0.55 
   1 -10  -2    4.94    0.61 
   0 -10  -2    0.40    0.18 
   0 -10  -2    0.47    0.19 
  -1 -10  -2    1.17    0.28 
  -1 -10  -2    1.26    0.29 
  -2 -10  -2    1.08    0.32 
  -3 -10  -2    2.30    0.49 
   6 -11  -2    0.19    0.25 
   5 -11  -2   -0.01    0.20 
   4 -11  -2   -0.34    0.13 
   3 -11  -2    0.27    0.19 
   2 -11  -2    0.35    0.20 
   2 -11  -2    0.26    0.15 
   1 -11  -2    4.08    0.51 
   1 -11  -2    3.98    0.55 
   0 -11  -2    3.51    0.49 
   0 -11  -2    2.87    0.46 
  -1 -11  -2    1.75    0.38 
  -2 -11  -2    3.39    0.56 
   5 -12  -2    4.02    0.66 
   4 -12  -2    4.59    0.67 
   3 -12  -2    0.95    0.30 
   2 -12  -2    4.21    0.61 
   1 -12  -2    3.27    0.48 
   1 -12  -2    2.79    0.48 
   0 -12  -2    1.50    0.36 
   0 -12  -2    1.89    0.37 
  -1 -12  -2   -0.06    0.20 
   4 -13  -2    1.08    0.40 
   3 -13  -2    1.91    0.43 
   2 -13  -2    2.79    0.51 
   1 -13  -2    7.16    0.77 
   1 -13  -2    6.85    0.74 
   0 -13  -2    6.09    0.77 
   0 -13  -2    6.83    0.75 
  -1 -14   3    5.56    0.72 
   1 -14   3   -0.06    0.17 
   2 -14   3   -0.09    0.20 
   3 -14   3   -0.03    0.21 
   4 -14   3    1.92    0.47 
  -2 -13   3    2.60    0.50 
  -1 -13   3   -0.01    0.18 
   0 -13   3    2.51    0.44 
   0 -13   3    3.11    0.48 
   1 -13   3    0.57    0.23 
   2 -13   3    3.60    0.56 
   3 -13   3    1.11    0.32 
   4 -13   3   -0.13    0.19 
   5 -13   3    0.44    0.28 
  -3 -12   3    0.29    0.26 
  -2 -12   3    0.78    0.28 
  -1 -12   3    1.52    0.33 
   0 -12   3    0.14    0.16 
   0 -12   3    0.16    0.15 
   1 -12   3    4.83    0.60 
   2 -12   3    0.34    0.20 
   3 -12   3    0.39    0.23 
   4 -12   3    0.30    0.24 
   5 -12   3   -0.05    0.19 
  -4 -11   3   -0.08    0.22 
  -3 -11   3    5.86    0.74 
  -2 -11   3    0.16    0.17 
  -1 -11   3    3.00    0.41 
  -1 -11   3    0.75    0.21 
   0 -11   3    5.98    0.61 
   0 -11   3    5.69    0.60 
   1 -11   3   33.41    2.51 
   1 -11   3   32.68    2.49 
   2 -11   3    0.93    0.27 
   3 -11   3   -0.01    0.16 
   4 -11   3    2.78    0.47 
   5 -11   3   -0.02    0.17 
   6 -11   3    1.29    0.36 
  -4 -10   3    0.01    0.20 
  -3 -10   3    0.96    0.28 
  -2 -10   3    5.32    0.59 
  -1 -10   3    8.37    0.80 
   0 -10   3  147.70   10.74 
   0 -10   3  152.31   10.57 
   1 -10   3    3.73    0.45 
   1 -10   3    2.56    0.36 
   2 -10   3   18.18    1.47 
   3 -10   3   42.23    3.16 
   4 -10   3    2.68    0.44 
   5 -10   3    0.09    0.16 
   6 -10   3    0.18    0.21 
  -5  -9   3    6.19    0.81 
  -4  -9   3    0.26    0.22 
  -3  -9   3    0.21    0.16 
  -2  -9   3    9.34    0.87 
  -1  -9   3   17.89    1.45 
   0  -9   3   91.13    6.04 
   0  -9   3   78.49    6.11 
   1  -9   3  118.90    8.51 
   1  -9   3  121.78    8.61 
   2  -9   3   40.08    2.97 
   3  -9   3   30.56    2.33 
   4  -9   3   32.09    2.45 
   5  -9   3    2.05    0.38 
   6  -9   3   -0.08    0.15 
   7  -9   3    0.04    0.21 
   7  -9   3   -0.05    0.28 
  -5  -8   3    2.04    0.44 
  -4  -8   3    4.47    0.61 
  -3  -8   3    5.23    0.58 
  -2  -8   3    2.47    0.38 
  -1  -8   3   74.31    5.40 
   0  -8   3   66.83    4.91 
   0  -8   3   68.70    4.84 
   1  -8   3   80.45    5.52 
   1  -8   3   72.86    5.47 
   2  -8   3   40.66    3.09 
   2  -8   3   43.45    3.05 
   3  -8   3   88.36    6.31 
   4  -8   3   19.95    1.59 
   5  -8   3    0.39    0.19 
   6  -8   3    0.64    0.23 
   6  -8   3    0.70    0.23 
   7  -8   3    0.83    0.28 
   7  -8   3    0.47    0.24 
   6   7  -3   -0.20    0.21 
  -6  -7   3    0.23    0.23 
  -5  -7   3    9.95    0.99 
  -4  -7   3    0.07    0.16 
  -3  -7   3    0.54    0.18 
  -2  -7   3    0.57    0.17 
  -2  -7   3    0.72    0.14 
  -1  -7   3   35.84    2.88 
  -1  -7   3   45.41    3.00 
   0  -7   3   90.74    6.51 
   0  -7   3   90.81    6.41 
   1  -7   3   70.44    5.03 
   1  -7   3   70.76    5.06 
   2  -7   3   19.24    1.58 
   2  -7   3   21.57    1.51 
   3  -7   3   27.42    2.07 
   4  -7   3   25.81    1.97 
   5  -7   3    1.75    0.31 
   6  -7   3    0.46    0.22 
   6  -7   3    0.13    0.16 
   7  -7   3    1.95    0.39 
   6   6  -3    1.11    0.23 
  -6  -6   3    0.81    0.30 
   5   6  -3    2.61    0.31 
  -5  -6   3    2.84    0.48 
   4   6  -3   17.23    1.26 
  -4  -6   3   18.23    1.48 
  -3  -6   3    7.09    0.68 
  -2  -6   3  110.39    7.17 
  -2  -6   3   93.84    7.37 
  -1  -6   3    5.42    0.50 
  -1  -6   3    5.19    0.46 
   0  -6   3   75.31    5.50 
   0  -6   3   78.24    5.43 
   1  -6   3    0.06    0.06 
   1  -6   3   -0.04    0.09 
   2  -6   3   26.35    1.90 
   2  -6   3   26.93    1.98 
   3  -6   3    8.84    0.76 
   4  -6   3    0.03    0.12 
   5  -6   3    0.18    0.14 
   5  -6   3    0.05    0.15 
   6  -6   3    0.71    0.22 
   6  -6   3    0.53    0.18 
   7  -6   3    0.63    0.25 
   7   5  -3    0.28    0.20 
  -7  -5   3    0.35    0.27 
   6   5  -3   10.31    0.83 
   5   5  -3   39.45    2.89 
  -5  -5   3   44.85    3.20 
   4   5  -3   20.63    1.42 
  -4  -5   3   18.71    1.60 
   3   5  -3    0.72    0.13 
  -3  -5   3    0.85    0.22 
  -2  -5   3   16.33    1.29 
  -1  -5   3    6.52    0.57 
  -1  -5   3    6.41    0.52 
   0  -5   3    1.23    0.19 
   0  -5   3    1.07    0.17 
   1  -5   3   29.37    2.03 
   1  -5   3   26.42    2.00 
   2  -5   3    9.57    0.79 
   3  -5   3   24.88    1.86 
   4  -5   3    3.42    0.38 
   5  -5   3   26.84    1.96 
   5  -5   3   26.55    2.02 
   6  -5   3    0.46    0.19 
   6  -5   3    0.17    0.15 
   7  -5   3    0.45    0.23 
   7   4  -3    6.45    0.61 
  -7  -4   3    6.64    0.73 
   6   4  -3    3.69    0.38 
  -6  -4   3    3.35    0.52 
   5   4  -3   18.95    1.38 
   3   4  -3    1.06    0.15 
  -3  -4   3    1.09    0.23 
   2   4  -3  144.10    9.37 
  -2  -4   3  133.42    9.71 
  -2  -4   3  141.91    9.97 
  -1  -4   3   92.67    6.40 
  -1  -4   3   86.58    6.25 
   0  -4   3   66.18    4.53 
   0  -4   3   62.40    4.59 
   1  -4   3   25.90    1.88 
   1  -4   3   26.23    1.90 
   2  -4   3   18.66    1.40 
   3  -4   3    0.02    0.09 
   4  -4   3  111.52    8.15 
   4  -4   3  120.34    7.88 
   5  -4   3    1.09    0.26 
   5  -4   3    1.40    0.27 
   6  -4   3    6.43    0.63 
   7  -4   3    1.54    0.34 
   7   3  -3    0.24    0.23 
  -7  -3   3    0.24    0.22 
   6   3  -3    0.79    0.19 
  -6  -3   3    0.29    0.21 
   5   3  -3   49.07    3.39 
  -5  -3   3   49.00    3.65 
   4   3  -3    8.60    0.66 
  -4  -3   3    8.17    0.75 
   3   3  -3   84.64    5.72 
   2   3  -3   67.03    4.42 
  -2  -3   3   59.52    4.72 
  -2  -3   3   69.51    4.58 
  -1  -3   3  337.56   23.80 
  -1  -3   3  348.62   24.24 
   0  -3   3   53.59    3.83 
   0  -3   3   53.84    3.78 
   1  -3   3   14.70    1.07 
  -2   3  -3  144.17    9.78 
  -2   3  -3  144.19    9.78 
   2  -3   3  126.55    9.67 
  -3   3  -3    1.91    0.18 
   3  -3   3    1.77    0.24 
   3  -3   3    2.02    0.26 
   4  -3   3   29.67    2.16 
   4  -3   3   29.03    2.09 
   5  -3   3   15.45    1.23 
   5  -3   3   16.23    1.23 
   6  -3   3    3.03    0.41 
   7  -3   3    2.19    0.38 
   7   2  -3   -0.07    0.14 
  -7  -2   3   -0.04    0.20 
   6   2  -3    2.43    0.34 
  -6  -2   3    2.66    0.41 
   5   2  -3   13.67    1.03 
  -5  -2   3   13.24    1.12 
   4   2  -3   71.46    4.92 
  -4  -2   3   73.11    5.24 
   3   2  -3   65.36    4.50 
  -3  -2   3   67.55    4.80 
   2   2  -3   76.11    4.88 
  -2  -2   3   69.21    5.04 
  -2  -2   3   71.86    5.19 
  -1  -2   3  598.15   41.47 
   0  -2   3  683.40   48.18 
   0  -2   3  683.35   48.18 
  -1   2  -3  178.37   12.78 
   1  -2   3  183.78   12.60 
  -2   2  -3  119.41    8.80 
   2  -2   3  124.47    8.70 
   2  -2   3  129.67    8.38 
  -3   2  -3    0.29    0.08 
   3  -2   3    0.29    0.10 
   3  -2   3    0.30    0.11 
  -4   2  -3    1.30    0.18 
   4  -2   3    1.21    0.21 
   4  -2   3    0.76    0.18 
   5  -2   3   45.41    3.08 
   5  -2   3   39.41    2.98 
   6  -2   3    5.90    0.58 
   7  -2   3    3.82    0.50 
   8   1  -3    1.20    0.29 
   7   1  -3    0.95    0.24 
   6   1  -3   11.23    0.90 
   5   1  -3    3.18    0.36 
  -5  -1   3    3.30    0.39 
   4   1  -3  193.13   14.81 
   4   1  -3  235.02   14.36 
   3   1  -3   32.04    2.16 
  -3  -1   3   30.37    2.29 
   2   1  -3  181.29   12.03 
  -2  -1   3  177.48   12.71 
  -1  -1   3  579.73   40.89 
   0  -1   3   21.79    1.56 
   0  -1   3   21.50    1.46 
   0  -1   3   21.19    1.54 
   1  -1   3    0.86    0.11 
   1  -1   3    1.64    0.16 
  -2   1  -3  146.00   10.21 
   2  -1   3  145.18    9.69 
   2  -1   3  141.45   10.06 
  -3   1  -3    0.70    0.13 
   3  -1   3    0.55    0.13 
   3  -1   3    0.64    0.13 
  -4   1  -3   77.94    5.62 
   4  -1   3   78.45    5.35 
   4  -1   3   78.88    5.53 
   5  -1   3   36.16    2.57 
   7  -1   3    2.44    0.39 
   8   0  -3   -0.08    0.17 
   7   0  -3    7.01    0.68 
   6   0  -3    2.39    0.34 
  -6   0   3    1.73    0.31 
   5   0  -3   43.08    2.92 
  -5   0   3   40.17    3.07 
   4   0  -3   34.21    2.40 
   4   0  -3   34.53    2.36 
  -4   0   3   32.33    2.49 
   3   0  -3   97.94    7.22 
  -3   0   3  116.51    7.64 
   2   0  -3   15.53    1.09 
  -1   0   3    6.58    0.52 
  -1   0   3    7.05    0.54 
   0   0   3   53.11    3.72 
  -1   0  -3  251.62   18.03 
   1   0   3  259.19   17.75 
  -2   0  -3  251.08   17.44 
   2   0   3  238.94   16.52 
   2   0   3  250.11   17.15 
  -3   0  -3    0.41    0.12 
   3   0   3    0.64    0.15 
   3   0   3    0.59    0.13 
   4   0   3   82.77    5.85 
   4   0   3   89.26    6.06 
  -5   0  -3   16.33    1.28 
   5   0   3   15.79    1.22 
   6   0   3    1.71    0.29 
   7   0   3    0.85    0.25 
   8  -1  -3    2.13    0.40 
   7  -1  -3    0.63    0.22 
   7  -1  -3    0.63    0.22 
   6  -1  -3    3.01    0.37 
  -6   1   3    1.77    0.29 
   5  -1  -3    5.47    0.50 
   5  -1  -3    6.05    0.47 
  -5   1   3    4.31    0.48 
   4  -1  -3   60.07    4.32 
   4  -1  -3   61.88    4.20 
  -4   1   3   61.68    4.42 
   3  -1  -3  226.89   15.28 
  -3   1   3  228.26   16.11 
  -2   1   3  204.95   14.50 
  -1   1   3   85.55    6.08 
   0  -1  -3  507.17   35.95 
   0   1   3  512.50   35.36 
  -1  -1  -3  827.36   56.67 
   1   1   3  780.24   55.71 
  -3  -1  -3   17.26    1.28 
   3   1   3   14.78    1.21 
   3   1   3   17.82    1.19 
  -4  -1  -3   50.16    3.67 
   4   1   3   51.04    3.46 
   4   1   3   49.27    3.56 
  -5  -1  -3    0.36    0.17 
   5   1   3    0.50    0.16 
   6   1   3    1.33    0.25 
   7   1   3    2.11    0.35 
   8  -2  -3   -0.14    0.21 
   7  -2  -3    4.98    0.53 
   6  -2  -3    0.05    0.12 
   5  -2  -3    0.12    0.12 
   5  -2  -3    0.11    0.12 
  -5   2   3    0.18    0.13 
   4  -2  -3    1.77    0.26 
   4  -2  -3    2.05    0.26 
  -3   2   3   53.96    3.88 
  -2   2   3   81.45    5.81 
   1  -2  -3  100.09    7.10 
   0  -2  -3    2.41    0.24 
   1   2   3    9.46    0.73 
  -2  -2  -3   70.52    5.07 
   2   2   3   70.50    4.96 
  -3  -2  -3    1.25    0.24 
   3   2   3    1.42    0.21 
   3   2   3    1.33    0.19 
  -4  -2  -3   -0.14    0.09 
   4   2   3   -0.11    0.09 
  -5  -2  -3   12.82    1.05 
   5   2   3   11.61    0.94 
   6   2   3    0.09    0.14 
   8  -3  -3    0.29    0.22 
   7  -3  -3   -0.04    0.12 
   6  -3  -3    0.03    0.11 
   5  -3  -3   -0.07    0.09 
   5  -3  -3    0.02    0.12 
  -5   3   3    0.16    0.11 
   4  -3  -3    1.17    0.22 
  -4   3   3    1.66    0.21 
   2  -3  -3    1.52    0.18 
   1  -3  -3    2.07    0.22 
   0  -3  -3   18.85    1.40 
  -1  -3  -3  362.01   25.59 
   2   3   3   18.67    1.31 
  -3  -3  -3    0.27    0.14 
   3   3   3    0.35    0.13 
  -4  -3  -3    0.95    0.24 
   4   3   3    0.96    0.19 
  -5  -3  -3    0.69    0.22 
   5   3   3    0.27    0.13 
  -6  -3  -3    1.39    0.32 
   8  -4  -3    0.15    0.21 
   7  -4  -3    0.58    0.22 
   6  -4  -3    4.20    0.49 
   6  -4  -3    3.97    0.44 
   5  -4  -3   -0.07    0.13 
  -5   4   3    0.00    0.10 
   4  -4  -3    9.47    0.83 
  -4   4   3   10.11    0.78 
   3  -4  -3    5.45    0.46 
   2  -4  -3   27.63    2.01 
   1  -4  -3    0.66    0.13 
   0  -4  -3   81.10    5.80 
  -1  -4  -3   13.99    1.10 
  -2  -4  -3   10.17    0.86 
  -3  -4  -3    0.00    0.12 
   3   4   3    0.02    0.09 
  -4  -4  -3    3.46    0.47 
   4   4   3    3.52    0.34 
  -5  -4  -3    3.83    0.53 
   5   4   3    3.82    0.37 
  -6  -4  -3    1.13    0.32 
   6   4   3    0.98    0.22 
   8  -5  -3    5.38    0.66 
   7  -5  -3   -0.03    0.13 
   6  -5  -3    0.60    0.19 
   6  -5  -3    0.51    0.19 
   5  -5  -3   37.26    2.76 
   4  -5  -3    0.44    0.15 
   4  -5  -3    0.30    0.11 
   3  -5  -3    0.11    0.07 
   3  -5  -3   -0.10    0.09 
   2  -5  -3   14.94    1.13 
   1  -5  -3   84.39    6.03 
   0  -5  -3  164.61   11.70 
  -1  -5  -3    0.49    0.14 
  -2  -5  -3    1.05    0.23 
  -3  -5  -3   33.84    2.59 
  -4  -5  -3    0.03    0.14 
   4   5   3    0.12    0.15 
  -5  -5  -3    3.21    0.50 
   5   5   3    3.11    0.36 
   8  -6  -3    1.17    0.32 
   7  -6  -3    1.23    0.30 
   6  -6  -3    7.67    0.73 
   5  -6  -3    1.23    0.27 
   4  -6  -3    6.26    0.63 
   3  -6  -3   36.14    2.61 
   3  -6  -3   35.45    2.66 
   2  -6  -3    3.55    0.35 
   1  -6  -3  136.47    9.71 
   0  -6  -3   56.35    4.10 
  -1  -6  -3  125.72    9.01 
  -2  -6  -3    6.56    0.64 
  -3  -6  -3   17.63    1.47 
  -4  -6  -3    0.04    0.15 
  -5  -6  -3    1.74    0.38 
   7  -7  -3    0.50    0.23 
   6  -7  -3    5.02    0.61 
   5  -7  -3   -0.04    0.13 
   4  -7  -3    3.88    0.39 
   4  -7  -3    4.59    0.55 
   3  -7  -3   87.56    6.41 
   3  -7  -3   92.38    6.43 
   2  -7  -3    0.04    0.12 
   1  -7  -3   77.50    5.59 
   0  -7  -3  178.20   12.69 
  -1  -7  -3   20.09    1.60 
  -2  -7  -3   26.99    2.11 
  -3  -7  -3   -0.01    0.14 
  -4  -7  -3    0.18    0.20 
  -5  -7  -3    1.48    0.41 
   7  -8  -3    2.83    0.49 
   6  -8  -3   -0.05    0.16 
   5  -8  -3    3.20    0.49 
   4  -8  -3   10.33    0.95 
   3  -8  -3    9.68    0.86 
   3  -8  -3    8.86    0.76 
   2  -8  -3    5.47    0.52 
   2  -8  -3    5.62    0.58 
   1  -8  -3   53.62    3.90 
   1  -8  -3   53.03    3.90 
   0  -8  -3   45.64    3.39 
  -1  -8  -3    1.11    0.25 
  -2  -8  -3    0.35    0.17 
  -3  -8  -3    3.99    0.58 
  -4  -8  -3    1.13    0.35 
   7  -9  -3    0.52    0.27 
   6  -9  -3    2.71    0.48 
   5  -9  -3    3.11    0.50 
   4  -9  -3    5.28    0.65 
   3  -9  -3    2.14    0.40 
   3  -9  -3    1.82    0.29 
   2  -9  -3    3.75    0.42 
   2  -9  -3    3.87    0.52 
   1  -9  -3    2.91    0.44 
   1  -9  -3    3.11    0.40 
   0  -9  -3    0.09    0.13 
  -1  -9  -3   13.00    1.14 
  -2  -9  -3    0.96    0.29 
  -3  -9  -3   10.43    1.03 
  -4  -9  -3    2.89    0.56 
   6 -10  -3    3.74    0.60 
   5 -10  -3    1.65    0.37 
   4 -10  -3    0.41    0.22 
   3 -10  -3   -0.09    0.11 
   3 -10  -3    0.18    0.16 
   2 -10  -3    0.08    0.15 
   2 -10  -3    0.05    0.16 
   1 -10  -3    1.96    0.34 
   1 -10  -3    1.71    0.36 
   0 -10  -3    5.64    0.61 
   0 -10  -3    5.39    0.59 
  -1 -10  -3    1.46    0.31 
  -1 -10  -3    1.62    0.34 
  -2 -10  -3   12.85    1.19 
  -3 -10  -3   10.11    1.04 
   6 -11  -3    0.75    0.33 
   5 -11  -3    0.13    0.24 
   4 -11  -3    1.00    0.30 
   3 -11  -3   -0.11    0.15 
   2 -11  -3   -0.07    0.13 
   2 -11  -3    0.18    0.18 
   1 -11  -3    0.19    0.16 
   1 -11  -3    0.21    0.19 
   0 -11  -3    2.75    0.47 
   0 -11  -3    3.43    0.49 
  -1 -11  -3    9.57    0.96 
  -2 -11  -3    2.53    0.49 
   5 -12  -3   -0.12    0.32 
   4 -12  -3    6.61    0.83 
   3 -12  -3    2.39    0.47 
   2 -12  -3    0.28    0.20 
   2 -12  -3    0.18    0.21 
   1 -12  -3    0.69    0.25 
   1 -12  -3    0.54    0.24 
   0 -12  -3    0.50    0.27 
   0 -12  -3    0.33    0.21 
  -1 -12  -3    0.18    0.22 
   4 -13  -3    2.80    0.56 
   3 -13  -3    2.67    0.53 
   2 -13  -3    0.97    0.32 
   1 -13  -3    1.54    0.39 
   1 -13  -3    1.27    0.37 
   1 -15   4    4.20    0.62 
   2 -15   4    3.01    0.55 
  -1 -14   4    2.37    0.46 
   1 -14   4    4.97    0.65 
   2 -14   4    3.57    0.57 
   3 -14   4    3.27    0.56 
   4 -14   4    7.65    0.92 
  -2 -13   4    3.60    0.59 
  -1 -13   4    0.72    0.27 
   0 -13   4    1.46    0.32 
   0 -13   4    1.23    0.31 
   1 -13   4    0.72    0.25 
   2 -13   4   -0.13    0.15 
   3 -13   4    7.47    0.80 
   4 -13   4    1.69    0.39 
   5 -13   4    4.27    0.66 
  -3 -12   4    2.20    0.47 
  -2 -12   4   10.47    1.01 
  -1 -12   4   17.68    1.49 
   0 -12   4    0.09    0.17 
   0 -12   4    0.09    0.14 
   1 -12   4    2.81    0.45 
   2 -12   4   -0.05    0.15 
   3 -12   4    5.99    0.67 
   4 -12   4    0.87    0.29 
   5 -12   4    0.83    0.31 
  -4 -11   4    2.01    0.46 
  -3 -11   4    7.06    0.78 
  -2 -11   4    4.61    0.60 
  -1 -11   4    1.42    0.28 
  -1 -11   4    2.98    0.42 
   0 -11   4   -0.02    0.12 
   0 -11   4   -0.29    0.13 
   1 -11   4    4.92    0.51 
   1 -11   4    4.72    0.58 
   2 -11   4   15.27    1.29 
   3 -11   4    0.18    0.17 
   4 -11   4    4.14    0.58 
   5 -11   4    0.98    0.30 
   6 -11   4    1.33    0.36 
  -5 -10   4   -0.10    0.23 
  -4 -10   4    3.16    0.55 
  -3 -10   4    2.66    0.46 
  -2 -10   4   20.80    1.70 
  -1 -10   4    8.56    0.80 
   0 -10   4    3.12    0.41 
   0 -10   4    2.78    0.41 
   1 -10   4    9.17    0.86 
   1 -10   4   10.07    0.83 
   2 -10   4    0.18    0.17 
   3 -10   4    0.16    0.20 
   4 -10   4    9.87    0.92 
   5 -10   4    1.54    0.35 
   6 -10   4   -0.12    0.16 
  -5  -9   4    0.05    0.21 
  -4  -9   4    7.32    0.79 
  -3  -9   4   23.27    1.89 
  -2  -9   4   -0.06    0.12 
  -1  -9   4   -0.01    0.08 
  -1  -9   4    0.80    0.21 
   0  -9   4   34.43    2.56 
   0  -9   4   33.66    2.52 
   1  -9   4   32.08    2.34 
   1  -9   4   30.56    2.35 
   2  -9   4    1.05    0.25 
   3  -9   4    3.38    0.46 
   4  -9   4    2.05    0.36 
   5  -9   4    1.38    0.31 
   6  -9   4    0.62    0.27 
   6  -9   4    0.60    0.23 
  -5  -8   4   -0.02    0.18 
  -4  -8   4    9.82    0.95 
  -3  -8   4   21.67    1.76 
  -2  -8   4    3.24    0.44 
  -2  -8   4    3.34    0.33 
  -1  -8   4  166.63   11.90 
   0  -8   4  133.18    9.33 
   0  -8   4  127.76    9.18 
   1  -8   4   13.57    1.10 
   2  -8   4    2.92    0.41 
   2  -8   4    3.44    0.30 
   3  -8   4   22.41    1.74 
   4  -8   4    0.18    0.15 
   5  -8   4    0.86    0.22 
   6  -8   4    0.00    0.16 
   6  -8   4   -0.09    0.13 
   7  -8   4    1.46    0.33 
   6   7  -4    2.67    0.34 
  -6  -7   4    1.25    0.42 
  -5  -7   4    0.34    0.24 
  -4  -7   4    5.88    0.65 
  -3  -7   4    0.83    0.22 
  -2  -7   4   16.59    1.32 
  -2  -7   4   15.99    1.20 
  -1  -7   4   69.25    5.03 
   0  -7   4   46.78    3.33 
   0  -7   4   45.73    3.37 
   1  -7   4    7.12    0.63 
   1  -7   4    7.07    0.58 
   2  -7   4    1.97    0.20 
   2  -7   4    2.04    0.31 
   3  -7   4    5.16    0.52 
   4  -7   4   -0.04    0.10 
   5  -7   4   17.52    1.33 
   5  -7   4   14.61    1.23 
   6  -7   4    3.46    0.48 
   6  -7   4    3.58    0.48 
   7  -7   4    4.48    0.58 
   6   6  -4    6.79    0.61 
  -6  -6   4    8.39    0.83 
   5   6  -4    5.21    0.46 
  -5  -6   4    5.95    0.64 
   4   6  -4   19.28    1.41 
  -4  -6   4   21.36    1.65 
  -3  -6   4    1.17    0.25 
  -2  -6   4   17.15    1.44 
  -2  -6   4   19.15    1.34 
  -1  -6   4    9.79    0.82 
   0  -6   4  126.26    8.97 
   0  -6   4  125.68    8.83 
   1  -6   4   17.34    1.21 
   1  -6   4   14.23    1.14 
   2  -6   4   29.71    2.22 
   2  -6   4   30.20    2.15 
   3  -6   4    3.37    0.38 
   4  -6   4   48.13    3.50 
   4  -6   4   48.16    3.50 
   5  -6   4    0.84    0.22 
   5  -6   4    0.71    0.21 
   6  -6   4    1.69    0.32 
   6  -6   4    1.83    0.34 
   7  -6   4    5.76    0.62 
   7   5  -4    2.75    0.37 
  -7  -5   4    2.99    0.51 
   6   5  -4    8.05    0.69 
  -6  -5   4    9.34    0.88 
   5   5  -4    1.70    0.24 
  -5  -5   4    2.24    0.42 
   4   5  -4   88.56    5.99 
   3   5  -4    9.49    0.67 
  -3  -5   4    8.17    0.79 
  -2  -5   4   33.45    2.34 
  -2  -5   4   32.57    2.47 
  -1  -5   4  746.84   52.69 
   0  -5   4   93.53    7.08 
   0  -5   4  108.43    7.20 
   1  -5   4   18.60    1.37 
   1  -5   4   18.83    1.41 
   2  -5   4   32.24    2.36 
   3  -5   4    0.09    0.14 
   4  -5   4    7.34    0.69 
   4  -5   4    8.17    0.67 
   5  -5   4    0.50    0.20 
   5  -5   4    0.70    0.21 
   6  -5   4    5.89    0.61 
   6  -5   4    6.57    0.63 
   7  -5   4    2.85    0.45 
   7   4  -4    7.86    0.71 
   6   4  -4    0.02    0.11 
  -6  -4   4   -0.05    0.15 
   5   4  -4   24.00    1.73 
  -5  -4   4   24.54    1.93 
   4   4  -4    9.08    0.67 
  -4  -4   4    7.82    0.79 
   3   4  -4   47.07    3.10 
  -3  -4   4   43.51    3.35 
   2   4  -4  144.44    9.35 
  -2  -4   4  135.32    9.94 
  -2  -4   4  138.35    9.71 
  -1  -4   4  489.69   34.57 
   0  -4   4   19.95    1.46 
   0  -4   4   20.04    1.48 
   1  -4   4    0.61    0.14 
   1  -4   4    0.75    0.11 
  -2   4  -4    5.36    0.41 
   2  -4   4    5.13    0.48 
  -3   4  -4   55.08    3.92 
   3  -4   4   56.59    3.80 
   3  -4   4   54.13    3.95 
   4  -4   4   13.49    1.01 
   4  -4   4   12.69    1.05 
   5  -4   4   27.49    2.06 
   5  -4   4   27.19    1.99 
   6  -4   4    8.90    0.79 
   7  -4   4    2.32    0.44 
   7   3  -4    0.12    0.19 
   7   3  -4    0.13    0.19 
  -7  -3   4    0.05    0.23 
   6   3  -4    0.63    0.17 
  -6  -3   4    0.88    0.25 
   5   3  -4   19.82    1.41 
  -5  -3   4   18.74    1.56 
   4   3  -4   29.32    2.13 
  -4  -3   4   32.25    2.33 
   3   3  -4   -0.02    0.06 
  -3  -3   4   -0.02    0.10 
   2   3  -4  178.58   11.51 
  -2  -3   4  166.98   12.20 
  -2  -3   4  169.64   11.94 
  -1  -3   4    2.05    0.20 
   0  -3   4  134.25    9.34 
   0  -3   4  128.98    9.19 
   1  -3   4   34.80    2.57 
   1  -3   4   36.71    2.57 
  -2   3  -4    0.50    0.08 
   2  -3   4    0.51    0.11 
   2  -3   4    0.22    0.11 
  -3   3  -4    7.57    0.60 
   3  -3   4    7.97    0.63 
   3  -3   4    8.14    0.66 
   4  -3   4    6.27    0.58 
   4  -3   4    6.51    0.56 
   5  -3   4    9.51    0.83 
   5  -3   4   10.53    0.86 
   6  -3   4   14.35    1.17 
   7  -3   4    2.36    0.44 
   7   2  -4    0.47    0.19 
  -7  -2   4    0.23    0.19 
   6   2  -4    1.02    0.22 
  -6  -2   4    1.19    0.27 
   5   2  -4    8.73    0.72 
  -5  -2   4    9.02    0.80 
  -5  -2   4    9.03    0.80 
   4   2  -4    9.28    0.65 
  -4  -2   4    6.72    0.69 
   3   2  -4   53.73    3.65 
   2   2  -4    0.52    0.09 
  -2  -2   4    0.70    0.10 
  -2  -2   4    0.44    0.13 
   1   2  -4  157.49   10.23 
  -1  -2   4  146.93   10.84 
  -1  -2   4  153.93   10.64 
   0  -2   4    0.02    0.05 
   0  -2   4    0.09    0.06 
   1  -2   4  397.13   27.76 
   1  -2   4  402.51   26.74 
  -2   2  -4   53.99    3.93 
   2  -2   4   55.80    3.75 
   2  -2   4   55.75    3.91 
   3  -2   4   56.59    3.92 
   3  -2   4   58.12    4.08 
  -4   2  -4    2.74    0.29 
   4  -2   4    2.61    0.32 
   4  -2   4    2.46    0.32 
   5  -2   4    0.44    0.17 
   5  -2   4    0.86    0.20 
   6  -2   4    0.03    0.17 
   7  -2   4    0.54    0.23 
   8   1  -4    7.38    0.71 
   7   1  -4    0.13    0.15 
  -7  -1   4    0.22    0.22 
   6   1  -4    8.87    0.75 
  -6  -1   4    8.79    0.81 
   5   1  -4    3.96    0.41 
  -5  -1   4    4.65    0.47 
   4   1  -4   12.44    0.93 
   4   1  -4   12.94    0.92 
  -4  -1   4   11.80    1.01 
   3   1  -4    2.88    0.26 
  -3  -1   4    2.76    0.32 
   2   1  -4   40.43    2.85 
  -2  -1   4   44.20    3.07 
   1   1  -4    8.70    0.58 
  -1  -1   4    8.77    0.67 
  -1  -1   4    7.90    0.64 
   0  -1   4  199.91   14.20 
   0  -1   4  195.57   14.43 
   0  -1   4  216.07   13.68 
  -1   1  -4    0.40    0.09 
   1  -1   4    0.54    0.09 
   1  -1   4    0.51    0.11 
   2  -1   4   23.73    1.70 
   2  -1   4   22.90    1.62 
  -3   1  -4   91.04    5.94 
   3  -1   4   77.93    5.63 
   3  -1   4   80.28    5.85 
  -4   1  -4   46.43    3.59 
   4  -1   4   48.95    3.55 
   4  -1   4   53.49    3.44 
   6  -1   4    1.08    0.26 
   7  -1   4    1.72    0.34 
   8   0  -4    0.32    0.25 
   7   0  -4    3.29    0.44 
   6   0  -4   -0.02    0.09 
  -6   0   4    0.02    0.12 
   5   0  -4   86.15    5.78 
  -5   0   4   82.98    6.10 
   4   0  -4   30.01    2.11 
   4   0  -4   28.33    2.06 
  -4   0   4   29.42    2.19 
   3   0  -4    8.51    0.65 
  -3   0   4    8.51    0.71 
  -2   0   4    0.99    0.16 
  -1   0   4    0.38    0.09 
  -1   0   4    0.01    0.06 
   0   0  -4  161.05   10.79 
   0   0   4  143.72   10.61 
  -1   0  -4   39.45    2.68 
   1   0   4   34.91    2.64 
   2   0   4  173.44   11.32 
   2   0   4  163.56   11.75 
  -3   0  -4   51.44    3.73 
   3   0   4   52.04    3.53 
   3   0   4   51.08    3.66 
   4   0   4   84.20    5.57 
   4   0   4   79.20    5.76 
   5   0   4   -0.06    0.11 
   6   0   4    5.12    0.52 
   7   0   4    1.69    0.32 
   8  -1  -4    0.94    0.29 
   7  -1  -4    3.26    0.44 
   6  -1  -4    6.17    0.60 
  -6   1   4    7.06    0.63 
   5  -1  -4   32.61    2.33 
   5  -1  -4   32.14    2.37 
  -5   1   4   33.88    2.46 
   4  -1  -4   47.99    3.42 
   4  -1  -4   47.37    3.31 
  -4   1   4   48.66    3.50 
  -3   1   4   99.61    7.11 
  -2   1   4    1.71    0.22 
  -1   1   4   20.25    1.50 
   0  -1  -4  285.66   20.20 
   0   1   4  286.51   19.89 
  -1  -1  -4  227.21   18.35 
   1   1   4  300.24   18.08 
   1   1   4  252.83   17.38 
  -2  -1  -4  122.76    8.43 
   2   1   4  126.70    7.96 
   2   1   4  105.30    8.26 
  -3  -1  -4  151.34   10.18 
   3   1   4  134.33    9.96 
  -4  -1  -4   16.57    1.24 
   4   1   4   14.20    1.16 
   4   1   4   15.54    1.14 
  -5  -1  -4    1.28    0.28 
   5   1   4    1.45    0.25 
   6   1   4    0.62    0.19 
   8  -2  -4    4.21    0.56 
   7  -2  -4   -0.02    0.14 
   6  -2  -4   25.20    1.85 
  -6   2   4   24.96    1.91 
   5  -2  -4   48.45    3.44 
   5  -2  -4   50.30    3.55 
  -4   2   4    1.91    0.26 
  -3   2   4    1.13    0.19 
  -2   2   4    8.33    0.67 
   1  -2  -4    8.90    0.70 
   0  -2  -4   81.06    5.78 
  -1  -2  -4  794.32   57.33 
   1   2   4  831.95   56.39 
   2   2   4   81.39    5.74 
  -3  -2  -4   41.73    3.13 
   3   2   4   42.89    2.91 
   3   2   4   42.35    3.04 
  -4  -2  -4    9.20    0.79 
   4   2   4    8.25    0.68 
  -5  -2  -4   17.78    1.46 
   6   2   4    0.68    0.20 
   8  -3  -4    3.29    0.51 
   7  -3  -4    6.43    0.64 
   6  -3  -4    3.62    0.44 
   5  -3  -4   47.30    3.40 
   5  -3  -4   45.91    3.28 
  -5   3   4   47.49    3.43 
   4  -3  -4   34.84    2.26 
  -4   3   4   26.61    2.23 
  -3   3   4   10.12    0.81 
   2  -3  -4    2.12    0.23 
   1  -3  -4   47.36    3.41 
   0  -3  -4  634.40   44.60 
   0  -3  -4  630.11   44.60 
  -1  -3  -4   46.48    3.38 
  -2  -3  -4    7.74    0.68 
  -3  -3  -4   29.24    2.23 
   3   3   4   29.40    2.04 
   4   3   4   69.52    4.74 
  -5  -3  -4    0.34    0.20 
   5   3   4    0.31    0.19 
   6   3   4    1.34    0.29 
   8  -4  -4    0.21    0.23 
   7  -4  -4    1.07    0.26 
   6  -4  -4    9.91    0.93 
   6  -4  -4   13.48    1.01 
   5  -4  -4   48.48    3.46 
  -5   4   4   46.40    3.45 
  -4   4   4    9.43    0.77 
   3  -4  -4    0.12    0.09 
   2  -4  -4   56.93    4.09 
   1  -4  -4    5.70    0.50 
   0  -4  -4    2.85    0.31 
  -1  -4  -4    1.83    0.28 
  -3  -4  -4    3.62    0.53 
   3   4   4    6.08    0.46 
  -4  -4  -4    7.80    0.73 
   4   4   4    6.92    0.59 
  -5  -4  -4    7.51    0.76 
   5   4   4    6.99    0.61 
  -6  -4  -4    0.32    0.26 
   6   4   4    0.27    0.17 
   8  -5  -4    0.45    0.25 
   7  -5  -4    1.27    0.30 
   6  -5  -4    7.86    0.73 
   5  -5  -4    2.83    0.40 
   5  -5  -4    2.27    0.29 
   4  -5  -4    9.70    0.84 
   4  -5  -4    9.63    0.77 
   3  -5  -4    0.98    0.17 
   2  -5  -4   45.04    3.26 
   1  -5  -4    1.16    0.19 
   0  -5  -4   15.13    1.19 
  -1  -5  -4   -0.07    0.08 
  -2  -5  -4    0.15    0.14 
  -3  -5  -4    0.46    0.21 
  -4  -5  -4    1.96    0.38 
  -5  -5  -4    0.60    0.24 
   7  -6  -4    0.18    0.18 
   6  -6  -4    0.59    0.21 
   5  -6  -4    3.56    0.48 
   4  -6  -4    1.30    0.20 
   4  -6  -4    0.80    0.23 
   3  -6  -4   34.57    2.53 
   2  -6  -4    6.86    0.60 
   1  -6  -4   77.66    5.58 
   0  -6  -4    2.63    0.35 
  -1  -6  -4    5.19    0.52 
  -2  -6  -4   10.62    0.95 
  -3  -6  -4    0.10    0.17 
  -4  -6  -4    1.02    0.30 
  -5  -6  -4    0.91    0.32 
   6  -7  -4   -0.04    0.14 
   5  -7  -4    1.51    0.33 
   4  -7  -4   26.91    2.05 
   4  -7  -4   25.83    1.95 
   3  -7  -4  113.10    8.07 
   2  -7  -4    7.52    0.64 
   1  -7  -4   16.78    1.32 
   0  -7  -4   99.44    7.17 
  -2  -7  -4    3.20    0.47 
  -3  -7  -4    0.10    0.17 
  -4  -7  -4    1.45    0.37 
   7  -8  -4    0.06    0.19 
   6  -8  -4    3.99    0.57 
   5  -8  -4    1.85    0.39 
   4  -8  -4   68.27    4.98 
   3  -8  -4    4.47    0.55 
   3  -8  -4    3.79    0.40 
   2  -8  -4   53.42    3.90 
   1  -8  -4   53.84    3.95 
   0  -8  -4   20.45    1.62 
  -1  -8  -4    5.16    0.57 
  -2  -8  -4    0.06    0.16 
  -3  -8  -4    0.28    0.20 
  -4  -8  -4    6.46    0.82 
   7  -9  -4    0.38    0.27 
   6  -9  -4    2.38    0.46 
   5  -9  -4    0.19    0.16 
   4  -9  -4   10.66    1.00 
   3  -9  -4   11.27    0.92 
   3  -9  -4   10.53    1.00 
   2  -9  -4    3.56    0.40 
   2  -9  -4    3.38    0.49 
   1  -9  -4   16.95    1.37 
   0  -9  -4    6.62    0.67 
  -1  -9  -4    0.10    0.16 
  -2  -9  -4    0.57    0.27 
  -3  -9  -4    0.18    0.22 
   6 -10  -4    3.78    0.62 
   5 -10  -4    0.28    0.22 
   4 -10  -4    1.20    0.32 
   3 -10  -4    1.49    0.27 
   3 -10  -4    1.08    0.31 
   2 -10  -4    0.96    0.21 
   2 -10  -4    0.46    0.22 
   1 -10  -4    4.48    0.54 
   1 -10  -4    4.08    0.56 
   0 -10  -4    1.27    0.31 
  -1 -10  -4   -0.04    0.18 
  -2 -10  -4    0.77    0.30 
   5 -11  -4    4.06    0.63 
   4 -11  -4    0.75    0.29 
   3 -11  -4    0.03    0.17 
   2 -11  -4    0.58    0.25 
   2 -11  -4    0.73    0.22 
   1 -11  -4    1.67    0.37 
   1 -11  -4    1.92    0.37 
   0 -11  -4    2.03    0.41 
   0 -11  -4    2.40    0.44 
  -1 -11  -4   -0.07    0.18 
   5 -12  -4    0.02    0.24 
   4 -12  -4    0.21    0.25 
   3 -12  -4   -0.01    0.21 
   2 -12  -4    0.76    0.29 
   2 -12  -4    1.35    0.33 
   1 -12  -4    1.00    0.31 
   1 -12  -4    0.71    0.29 
   0 -12  -4   -0.10    0.21 
   0 -12  -4    0.11    0.20 
   2 -13  -4   -0.16    0.21 
  -1 -14   5   -0.21    0.19 
   1 -14   5    0.35    0.22 
   2 -14   5    0.19    0.19 
   3 -14   5   -0.02    0.22 
  -2 -13   5    0.46    0.26 
  -1 -13   5    2.00    0.39 
   0 -13   5    1.48    0.33 
   1 -13   5    3.92    0.55 
   2 -13   5    0.12    0.19 
   3 -13   5    6.81    0.75 
   4 -13   5    0.11    0.23 
  -3 -12   5    0.55    0.27 
  -2 -12   5    0.73    0.27 
  -1 -12   5    0.13    0.15 
   0 -12   5   12.54    1.03 
   0 -12   5   10.75    1.01 
   1 -12   5    0.18    0.17 
   2 -12   5    4.37    0.58 
   3 -12   5    8.10    0.82 
   4 -12   5    0.24    0.22 
   5 -12   5    0.17    0.20 
  -4 -11   5    0.20    0.23 
  -3 -11   5    0.60    0.27 
  -2 -11   5    0.39    0.20 
  -1 -11   5    2.63    0.38 
  -1 -11   5    2.66    0.41 
   0 -11   5    0.76    0.24 
   0 -11   5    0.65    0.20 
   1 -11   5   10.04    0.91 
   2 -11   5   23.03    1.83 
   3 -11   5    0.04    0.17 
   4 -11   5    5.11    0.65 
   5 -11   5    0.32    0.23 
   6 -11   5    1.68    0.41 
  -5 -10   5    3.54    0.67 
  -4 -10   5    1.06    0.32 
  -3 -10   5    1.43    0.33 
  -2 -10   5    0.14    0.15 
  -1 -10   5   20.86    1.53 
  -1 -10   5   16.92    1.44 
   0 -10   5   50.76    3.69 
   0 -10   5   50.50    3.73 
   1 -10   5   24.76    1.87 
   1 -10   5   24.26    1.90 
   2 -10   5   13.22    1.13 
   3 -10   5   20.16    1.63 
   4 -10   5    2.28    0.41 
   5 -10   5    0.78    0.26 
   6 -10   5    0.09    0.18 
   6 -10   5   -0.16    0.15 
  -5  -9   5    6.56    0.84 
  -4  -9   5   -0.13    0.13 
  -3  -9   5    2.86    0.46 
  -2  -9   5   24.81    1.96 
  -1  -9   5   16.89    1.31 
   0  -9   5   90.87    5.71 
   0  -9   5   66.89    5.58 
   1  -9   5  127.00    9.13 
   1  -9   5  129.33    9.05 
   2  -9   5   27.25    2.08 
   3  -9   5   23.39    1.83 
   4  -9   5    0.08    0.14 
   5  -9   5    4.23    0.57 
   6  -9   5    0.70    0.26 
   6  -9   5    0.72    0.26 
  -6  -8   5    3.92    0.65 
  -5  -8   5    3.11    0.55 
  -4  -8   5   -0.07    0.13 
  -3  -8   5    0.23    0.17 
  -2  -8   5    4.50    0.41 
  -1  -8   5    5.60    0.55 
  -1  -8   5    6.96    0.61 
   0  -8   5  108.62    7.68 
   0  -8   5  109.11    7.80 
   1  -8   5   26.83    2.02 
   2  -8   5   29.78    2.24 
   3  -8   5    3.33    0.44 
   4  -8   5   14.17    1.18 
   5  -8   5    1.27    0.27 
   5  -8   5    0.97    0.25 
   6  -8   5    0.38    0.22 
   6  -8   5    0.40    0.19 
   6   7  -5    2.19    0.33 
  -6  -7   5    1.60    0.40 
  -5  -7   5    9.91    0.97 
  -3  -7   5    0.67    0.20 
  -3  -7   5    0.68    0.20 
  -2  -7   5   24.37    1.89 
  -2  -7   5   24.23    1.89 
  -1  -7   5    1.64    0.24 
  -1  -7   5    1.82    0.29 
   0  -7   5    6.93    0.59 
   0  -7   5    6.40    0.58 
   1  -7   5   10.15    0.90 
   1  -7   5   11.57    0.86 
   2  -7   5    8.79    0.77 
   2  -7   5    9.05    0.68 
   3  -7   5    6.40    0.60 
   4  -7   5   22.24    1.73 
   5  -7   5   14.08    1.20 
   5  -7   5   14.47    1.14 
   6  -7   5    0.24    0.18 
   6  -7   5    0.00    0.16 
   7  -7   5    1.41    0.34 
   6   6  -5    0.31    0.15 
  -6  -6   5    0.40    0.24 
   5   6  -5    0.41    0.13 
  -5  -6   5    0.78    0.25 
   4   6  -5   35.69    2.48 
  -4  -6   5   36.34    2.76 
  -3  -6   5    0.02    0.11 
  -2  -6   5    6.19    0.49 
  -2  -6   5    5.74    0.57 
  -1  -6   5    1.33    0.24 
  -1  -6   5    1.86    0.22 
   0  -6   5   24.16    1.85 
   0  -6   5   26.13    1.85 
   1  -6   5   84.31    5.96 
   1  -6   5   84.11    6.00 
   2  -6   5    0.05    0.05 
   2  -6   5   -0.08    0.09 
   3  -6   5    6.99    0.64 
   4  -6   5   73.28    4.94 
   4  -6   5   70.16    5.15 
   5  -6   5    1.07    0.25 
   5  -6   5    1.55    0.30 
   6  -6   5   -0.19    0.15 
   6  -6   5    0.18    0.16 
   7  -6   5    2.59    0.44 
   7   5  -5    0.76    0.21 
  -7  -5   5    0.58    0.32 
   6   5  -5    0.42    0.15 
  -6  -5   5    0.63    0.26 
   5   5  -5   10.99    0.85 
  -5  -5   5   11.91    1.04 
   4   5  -5    1.87    0.22 
  -4  -5   5    0.96    0.28 
   3   5  -5   19.90    1.34 
  -3  -5   5   18.06    1.51 
  -2  -5   5    0.51    0.17 
  -2  -5   5    0.61    0.12 
  -1  -5   5  138.42    9.23 
  -1  -5   5  125.69    9.40 
   0  -5   5   37.73    2.72 
   1  -5   5    3.07    0.28 
   1  -5   5    3.08    0.33 
  -2   5  -5    2.64    0.23 
   2  -5   5    2.20    0.32 
   3  -5   5    5.53    0.53 
   3  -5   5    5.64    0.49 
   4  -5   5    4.90    0.48 
   4  -5   5    5.05    0.51 
   5  -5   5    2.33    0.37 
   5  -5   5    2.72    0.37 
   6  -5   5    1.70    0.34 
   6  -5   5    1.76    0.33 
   7  -5   5   -0.15    0.19 
   7   4  -5    3.10    0.38 
  -7  -4   5    1.92    0.43 
   6   4  -5    0.26    0.13 
  -6  -4   5    0.02    0.16 
  -6  -4   5    0.03    0.16 
   5   4  -5   20.22    1.46 
   4   4  -5   55.11    3.76 
   4   4  -5   54.95    3.76 
  -4  -4   5   55.55    4.07 
   3   4  -5  138.22    8.88 
  -3  -4   5  128.49    9.19 
  -3  -4   5  129.58    9.46 
  -2  -4   5   26.65    1.91 
  -1  -4   5  166.67   11.87 
  -1  -4   5  167.57   11.65 
   0  -4   5  127.42    8.90 
   0  -4   5  127.06    9.04 
   1  -4   5   12.21    0.91 
   1  -4   5   11.90    0.94 
  -2   4  -5  100.10    7.13 
   2  -4   5  101.33    7.10 
  -3   4  -5   14.50    1.06 
   3  -4   5   14.68    1.07 
   3  -4   5   13.73    1.13 
   4  -4   5    8.78    0.72 
   4  -4   5    8.50    0.75 
   5  -4   5    3.44    0.43 
   5  -4   5    2.91    0.40 
   6  -4   5    0.28    0.17 
   7  -4   5    2.09    0.39 
   7   3  -5    0.66    0.21 
  -7  -3   5    0.74    0.28 
   6   3  -5    5.57    0.51 
  -6  -3   5    5.60    0.60 
   5   3  -5   26.98    1.92 
   4   3  -5  452.20   35.06 
  -4  -3   5  599.11   37.10 
   3   3  -5    9.24    0.63 
  -3  -3   5    7.31    0.72 
   2   3  -5  391.74   28.86 
  -2  -3   5  472.88   29.98 
  -1  -3   5  550.90   38.28 
  -1  -3   5  552.79   38.95 
   0  -3   5  127.81    8.82 
   0  -3   5  124.61    8.96 
   1  -3   5    3.39    0.34 
   1  -3   5    3.34    0.31 
   1  -3   5    3.79    0.29 
  -2   3  -5    1.10    0.14 
   2  -3   5    0.88    0.18 
  -3   3  -5    8.58    0.66 
   3  -3   5    8.43    0.67 
   3  -3   5    8.20    0.71 
   4  -3   5   65.41    4.49 
   4  -3   5   65.18    4.67 
   5  -3   5    7.51    0.61 
   5  -3   5    5.33    0.58 
   6  -3   5    0.77    0.24 
   7  -3   5    4.74    0.59 
   7   2  -5   -0.05    0.14 
  -7  -2   5   -0.08    0.19 
   6   2  -5    0.82    0.19 
  -6  -2   5    0.85    0.25 
   5   2  -5  110.94    7.51 
  -5  -2   5  110.45    7.98 
   3   2  -5  150.44    9.18 
  -3  -2   5  121.88    9.73 
   2   2  -5  177.65   13.95 
  -2  -2   5  236.44   14.52 
  -2  -2   5  184.01   14.79 
  -2  -2   5  237.09   14.52 
  -1  -2   5  180.53   12.64 
  -1  -2   5  175.87   12.41 
   0  -2   5    4.48    0.40 
   0  -2   5    4.65    0.40 
  -1   2  -5   79.98    6.17 
   1  -2   5   90.45    5.84 
   1  -2   5   90.22    6.11 
  -2   2  -5  155.32   10.96 
   2  -2   5  154.10   10.82 
  -3   2  -5   44.32    3.23 
   3  -2   5   45.02    3.22 
   4  -2   5   12.14    0.96 
   4  -2   5   12.96    1.01 
   5  -2   5    5.09    0.52 
   5  -2   5    5.33    0.51 
   6  -2   5   10.33    0.88 
   7  -2   5    3.02    0.45 
   8   1  -5    1.49    0.33 
   7   1  -5    0.47    0.20 
  -7  -1   5    0.50    0.23 
   6   1  -5    0.90    0.22 
   6   1  -5    0.89    0.22 
  -6  -1   5    0.12    0.16 
  -5  -1   5   29.36    2.24 
   4   1  -5   12.36    0.90 
  -4  -1   5   11.38    0.99 
   3   1  -5   11.66    0.90 
  -3  -1   5   13.18    1.02 
  -3  -1   5   13.18    1.02 
   2   1  -5    1.01    0.11 
  -2  -1   5    0.85    0.14 
  -2  -1   5    1.00    0.18 
  -1  -1   5  187.31   13.98 
  -1  -1   5  215.07   14.25 
   0  -1   5   23.18    1.70 
   0  -1   5   23.54    1.72 
  -1   1  -5  140.70   10.38 
   1  -1   5  145.52   10.24 
   1  -1   5  153.20    9.82 
  -2   1  -5    1.51    0.20 
   2  -1   5    1.47    0.22 
   2  -1   5    1.59    0.18 
  -3   1  -5    0.42    0.13 
   3  -1   5    0.27    0.13 
   3  -1   5    0.74    0.16 
  -4   1  -5    1.18    0.22 
   4  -1   5    1.14    0.22 
   4  -1   5    1.15    0.21 
   5  -1   5    3.96    0.41 
   6  -1   5    5.77    0.57 
   7   0  -5    2.43    0.37 
   6   0  -5    5.83    0.54 
   5   0  -5    1.39    0.24 
  -5   0   5    1.39    0.28 
   4   0  -5    0.33    0.12 
  -4   0   5    0.38    0.16 
   3   0  -5   57.27    3.95 
  -3   0   5   59.05    4.21 
  -2   0   5    6.99    0.59 
  -1   0   5    1.86    0.23 
  -1   0   5    1.97    0.23 
   0   0  -5  139.62    9.40 
   0   0   5  125.12    9.24 
  -1   0  -5    5.29    0.49 
   1   0   5    5.58    0.43 
   1   0   5    7.16    0.51 
  -2   0  -5   12.44    1.06 
   2   0   5   15.67    1.07 
  -3   0  -5    2.51    0.31 
   3   0   5    2.32    0.29 
   3   0   5    2.56    0.27 
  -4   0  -5   11.76    0.99 
   4   0   5   10.45    0.94 
   4   0   5   14.50    0.94 
   5   0   5   15.20    1.16 
   6   0   5    0.55    0.22 
   8  -1  -5    1.37    0.32 
   7  -1  -5    0.19    0.16 
   6  -1  -5    0.14    0.14 
  -6   1   5    0.13    0.13 
   5  -1  -5    0.91    0.20 
   5  -1  -5    1.36    0.23 
  -5   1   5    1.28    0.24 
   4  -1  -5   14.35    1.07 
  -4   1   5   14.51    1.14 
  -3   1   5    0.37    0.13 
  -2   1   5    2.37    0.27 
   1  -1  -5    9.59    0.75 
   0  -1  -5   59.20    4.17 
   0   1   5   57.02    4.12 
  -1  -1  -5    7.99    0.65 
   1   1   5    7.74    0.64 
   2   1   5   24.59    1.64 
   2   1   5   20.26    1.53 
  -3  -1  -5   25.35    2.02 
   3   1   5   28.46    1.98 
   3   1   5   25.73    1.88 
   3   1   5   28.42    1.98 
  -4  -1  -5    8.50    0.79 
   4   1   5    8.36    0.71 
   4   1   5    9.81    0.76 
   4   1   5    9.79    0.76 
  -5  -1  -5    1.64    0.31 
   5   1   5    1.44    0.25 
   6   1   5    1.24    0.27 
   8  -2  -5    3.53    0.50 
   7  -2  -5    0.31    0.19 
   6  -2  -5    5.63    0.55 
  -6   2   5    5.48    0.55 
   5  -2  -5   10.64    0.85 
   5  -2  -5   10.16    0.86 
  -5   2   5   10.75    0.89 
  -4   2   5   19.35    1.49 
  -3   2   5   15.74    1.22 
  -2   2   5   98.44    7.03 
   1  -2  -5  110.66    7.87 
   0  -2  -5   18.22    1.37 
  -1  -2  -5   15.64    1.23 
   1   2   5   16.62    1.23 
  -2  -2  -5   44.15    3.77 
   2   2   5   58.51    3.54 
   2   2   5   52.73    3.72 
  -3  -2  -5   21.08    1.62 
   3   2   5   20.53    1.57 
  -4  -2  -5    2.60    0.38 
   4   2   5    1.87    0.26 
  -5  -2  -5   12.03    0.96 
   5   2   5    9.04    0.79 
   6   2   5    0.34    0.17 
   8  -3  -5    5.71    0.67 
   7  -3  -5    2.94    0.43 
   6  -3  -5    2.89    0.40 
   5  -3  -5   21.46    1.64 
  -5   3   5   21.23    1.64 
  -4   3   5   25.22    1.90 
  -3   3   5    0.32    0.11 
   2  -3  -5   35.10    2.56 
   1  -3  -5   12.59    0.97 
   0  -3  -5   68.62    4.93 
  -1  -3  -5   37.11    2.73 
  -2  -3  -5   70.02    5.08 
  -3  -3  -5   20.31    1.53 
   3   3   5   18.23    1.35 
  -4  -3  -5    0.02    0.14 
   4   3   5    0.16    0.12 
  -5  -3  -5    9.62    0.94 
   5   3   5   10.28    0.80 
   6   3   5    0.20    0.16 
   8  -4  -5    0.56    0.27 
   7  -4  -5    2.70    0.43 
   6  -4  -5   38.53    2.88 
   6  -4  -5   39.33    2.79 
   5  -4  -5   25.12    1.92 
   4  -4  -5    1.72    0.24 
   3  -4  -5    9.15    0.74 
   2  -4  -5    2.36    0.27 
   1  -4  -5  100.31    7.16 
   0  -4  -5   26.11    1.95 
  -1  -4  -5   84.89    6.11 
  -2  -4  -5   96.77    6.98 
  -3  -4  -5    5.78    0.60 
  -4  -4  -5    1.96    0.38 
   4   4   5    2.08    0.30 
  -5  -4  -5    1.04    0.31 
   5   4   5    0.94    0.21 
   8  -5  -5    2.46    0.45 
   7  -5  -5    1.94    0.37 
   6  -5  -5    7.38    0.71 
   5  -5  -5   -0.04    0.11 
   5  -5  -5   -0.02    0.11 
   4  -5  -5    0.86    0.19 
   3  -5  -5   32.50    2.39 
   2  -5  -5    1.56    0.23 
   0  -5  -5   54.06    3.93 
  -1  -5  -5   48.29    3.56 
  -2  -5  -5    3.09    0.42 
  -3  -5  -5    3.26    0.48 
  -4  -5  -5    0.80    0.28 
  -5  -5  -5    0.79    0.30 
   7  -6  -5   -0.04    0.14 
   6  -6  -5    0.12    0.14 
   5  -6  -5    2.10    0.36 
   4  -6  -5   24.07    1.80 
   3  -6  -5    4.74    0.45 
   2  -6  -5   27.19    2.03 
   1  -6  -5    7.41    0.65 
   0  -6  -5   15.97    1.28 
  -1  -6  -5    1.49    0.29 
  -2  -6  -5    0.17    0.13 
  -3  -6  -5    2.10    0.40 
  -4  -6  -5    1.28    0.34 
   6  -7  -5    0.09    0.16 
   5  -7  -5    0.13    0.15 
   4  -7  -5    0.25    0.19 
   4  -7  -5    0.20    0.14 
   3  -7  -5   10.80    0.89 
   3  -7  -5   10.80    0.89 
   2  -7  -5   21.16    1.62 
   1  -7  -5    1.79    0.29 
   0  -7  -5    0.18    0.12 
  -1  -7  -5   21.64    1.72 
  -2  -7  -5    7.47    0.76 
  -3  -7  -5    1.77    0.40 
  -4  -7  -5    0.20    0.24 
   7  -8  -5    0.32    0.26 
   6  -8  -5    7.43    0.78 
   5  -8  -5    0.43    0.21 
   4  -8  -5    1.09    0.30 
   4  -8  -5    1.37    0.24 
   3  -8  -5   13.42    1.09 
   2  -8  -5    4.34    0.45 
   1  -8  -5    0.12    0.12 
   0  -8  -5   69.36    5.08 
  -1  -8  -5    8.66    0.83 
  -2  -8  -5    5.20    0.66 
  -3  -8  -5    2.45    0.48 
   6  -9  -5    0.12    0.22 
   5  -9  -5    0.96    0.31 
   4  -9  -5    1.18    0.30 
   3  -9  -5    7.29    0.75 
   3  -9  -5    6.83    0.65 
   2  -9  -5    0.20    0.14 
   1  -9  -5    0.71    0.23 
   0  -9  -5    3.77    0.50 
  -1  -9  -5    9.74    0.95 
  -2  -9  -5    2.65    0.50 
  -3  -9  -5    0.42    0.26 
   6 -10  -5    0.59    0.30 
   5 -10  -5    4.37    0.64 
   4 -10  -5    3.06    0.52 
   3 -10  -5    5.43    0.54 
   3 -10  -5    4.17    0.63 
   2 -10  -5    2.47    0.44 
   2 -10  -5    2.46    0.39 
   1 -10  -5   -0.02    0.20 
   0 -10  -5    1.35    0.34 
  -1 -10  -5    0.47    0.27 
  -2 -10  -5    0.06    0.23 
   5 -11  -5    6.47    0.83 
   4 -11  -5    5.16    0.72 
   3 -11  -5    1.19    0.36 
   2 -11  -5    2.37    0.43 
   2 -11  -5    2.69    0.48 
   1 -11  -5    2.32    0.44 
   1 -11  -5    2.62    0.44 
   0 -11  -5    0.59    0.28 
   0 -11  -5    0.34    0.23 
  -1 -11  -5    3.09    0.54 
   4 -12  -5    4.17    0.68 
   3 -12  -5    2.07    0.47 
   2 -12  -5    3.49    0.59 
   2 -12  -5    3.49    0.54 
   1 -12  -5    0.63    0.27 
   1 -12  -5    0.55    0.27 
  -1 -14   6    2.40    0.48 
   1 -14   6    0.70    0.28 
   2 -14   6    3.30    0.55 
   3 -14   6   -0.09    0.22 
  -2 -13   6    8.37    0.93 
  -1 -13   6    1.91    0.41 
   0 -13   6    0.09    0.16 
   1 -13   6    0.42    0.22 
   2 -13   6    9.33    0.91 
   3 -13   6   -0.32    0.15 
   4 -13   6    3.39    0.57 
  -3 -12   6    9.29    1.00 
  -1 -12   6    6.92    0.72 
   0 -12   6    4.82    0.57 
   0 -12   6    4.44    0.54 
   1 -12   6    1.35    0.32 
   2 -12   6    1.28    0.32 
   3 -12   6    0.14    0.20 
   4 -12   6    1.17    0.33 
   5 -12   6    3.32    0.59 
  -4 -11   6    7.28    0.83 
  -3 -11   6    3.48    0.58 
  -2 -11   6    2.08    0.41 
  -1 -11   6   26.76    1.76 
  -1 -11   6   18.44    1.76 
   0 -11   6   18.40    1.46 
   0 -11   6   17.87    1.45 
   1 -11   6    4.37    0.54 
   2 -11   6   10.78    0.98 
   3 -11   6    0.22    0.19 
   4 -11   6    0.53    0.22 
   5 -11   6    0.93    0.30 
  -5 -10   6    0.50    0.30 
  -4 -10   6    3.31    0.56 
  -3 -10   6    1.93    0.40 
  -2 -10   6    7.06    0.72 
  -1 -10   6   41.74    3.17 
  -1 -10   6   42.56    3.08 
   0 -10   6   24.91    1.90 
   0 -10   6   24.60    1.91 
   1 -10   6    0.09    0.15 
   2 -10   6    0.08    0.15 
   3 -10   6   17.23    1.42 
   4 -10   6    5.92    0.66 
   5 -10   6    0.40    0.22 
   6 -10   6    0.71    0.27 
   6 -10   6    0.32    0.23 
  -5  -9   6    0.08    0.22 
  -4  -9   6    6.93    0.75 
  -3  -9   6    1.50    0.33 
  -2  -9   6   33.44    2.57 
  -1  -9   6   37.33    2.77 
  -1  -9   6   38.53    2.85 
   0  -9   6    4.67    0.47 
   0  -9   6    4.66    0.47 
   0  -9   6    3.71    0.43 
   1  -9   6    5.07    0.52 
   1  -9   6    4.67    0.47 
   2  -9   6    1.13    0.26 
   3  -9   6    0.07    0.16 
   4  -9   6   12.63    1.10 
   5  -9   6    2.09    0.39 
   5  -9   6    2.02    0.36 
   6  -9   6    1.75    0.35 
   6  -9   6    2.06    0.42 
  -6  -8   6    2.76    0.54 
  -5  -8   6    0.04    0.19 
  -4  -8   6    2.73    0.46 
  -3  -8   6   17.75    1.47 
  -2  -8   6   28.16    2.00 
  -2  -8   6   26.26    2.11 
  -1  -8   6    3.09    0.40 
  -1  -8   6    3.57    0.38 
   0  -8   6   31.50    2.45 
   0  -8   6   35.18    2.46 
   1  -8   6    0.06    0.12 
   2  -8   6   27.09    2.06 
   3  -8   6    6.18    0.61 
   4  -8   6    3.71    0.50 
   5  -8   6    5.83    0.59 
   5  -8   6    6.19    0.65 
   6  -8   6    0.14    0.19 
   6  -8   6    0.06    0.16 
   6   7  -6    3.36    0.40 
  -5  -7   6    1.49    0.34 
  -4  -7   6    4.16    0.56 
  -3  -7   6   16.94    1.40 
  -2  -7   6    0.22    0.11 
  -2  -7   6    0.25    0.13 
  -1  -7   6   41.54    2.72 
  -1  -7   6   33.28    2.75 
   0  -7   6   66.59    4.69 
   0  -7   6   64.85    4.75 
   1  -7   6   58.65    4.20 
   1  -7   6   58.05    4.19 
   2  -7   6    2.62    0.36 
   3  -7   6    2.03    0.33 
   4  -7   6    0.74    0.20 
   4  -7   6    0.71    0.22 
   5  -7   6    0.69    0.23 
   5  -7   6    0.88    0.24 
   6  -7   6    4.53    0.56 
   6  -7   6    5.33    0.63 
   6   6  -6    2.53    0.30 
  -6  -6   6    1.74    0.40 
   5   6  -6   -0.04    0.10 
  -5  -6   6    0.15    0.18 
   4   6  -6    9.56    0.66 
  -4  -6   6    6.95    0.79 
  -3  -6   6    6.40    0.63 
  -2  -6   6    3.35    0.31 
  -2  -6   6    2.82    0.37 
  -1  -6   6   76.48    5.35 
  -1  -6   6   74.99    5.46 
   0  -6   6    4.79    0.46 
   0  -6   6    4.92    0.45 
   1  -6   6   18.10    1.32 
   1  -6   6   17.01    1.36 
   2  -6   6    0.62    0.11 
   2  -6   6    0.67    0.17 
   3  -6   6    8.21    0.74 
   4  -6   6    2.69    0.41 
   4  -6   6    2.87    0.36 
   5  -6   6    1.72    0.33 
   5  -6   6    1.65    0.30 
   6  -6   6   -0.06    0.15 
   6  -6   6    0.11    0.18 
   7   5  -6    0.97    0.23 
  -7  -5   6    0.62    0.29 
   6   5  -6    1.07    0.19 
  -6  -5   6    0.89    0.28 
   5   5  -6   34.00    2.37 
   4   5  -6   31.44    2.04 
  -4  -5   6   26.65    2.25 
   3   5  -6    1.59    0.18 
  -3  -5   6    1.98    0.30 
  -2  -5   6    9.37    0.87 
  -2  -5   6   11.68    0.83 
  -1  -5   6   73.76    4.61 
  -1  -5   6   54.42    4.48 
   0  -5   6   69.58    5.11 
   0  -5   6   74.92    5.19 
   1  -5   6    0.58    0.12 
   1  -5   6    0.94    0.18 
  -2   5  -6    0.12    0.07 
   2  -5   6   -0.05    0.06 
   3  -5   6   13.72    0.99 
   3  -5   6   12.06    1.05 
   4  -5   6    0.21    0.14 
   4  -5   6    0.21    0.15 
   5  -5   6    1.04    0.25 
   5  -5   6    0.73    0.21 
   6  -5   6    0.50    0.23 
   6  -5   6    0.21    0.17 
   7   4  -6    3.15    0.38 
  -7  -4   6    1.91    0.42 
   6   4  -6    1.11    0.21 
  -6  -4   6    1.51    0.34 
   5   4  -6    0.10    0.09 
  -5  -4   6    0.19    0.17 
   4   4  -6   10.67    0.79 
  -3  -4   6   10.97    0.92 
  -3  -4   6   10.69    0.81 
  -2  -4   6   14.55    1.15 
  -2  -4   6   14.24    1.08 
  -1  -4   6    1.17    0.18 
  -1  -4   6    1.32    0.22 
   0  -4   6   26.73    1.92 
   0  -4   6   25.74    1.94 
   1  -4   6   49.89    3.57 
   1  -4   6   49.88    3.58 
  -2   4  -6    9.81    0.75 
   2  -4   6    8.60    0.79 
   2  -4   6   10.39    0.73 
   3  -4   6    1.00    0.21 
   3  -4   6    1.27    0.21 
   4  -4   6    4.39    0.42 
   4  -4   6    3.99    0.45 
   5  -4   6    0.21    0.15 
   5  -4   6    0.14    0.14 
   6  -4   6    1.42    0.29 
   7   3  -6    0.04    0.15 
   6   3  -6   12.57    1.00 
  -6  -3   6   13.81    1.17 
   5   3  -6    1.08    0.20 
  -5  -3   6    0.62    0.24 
   4   3  -6    6.86    0.53 
  -4  -3   6    6.06    0.64 
   3   3  -6    7.56    0.55 
  -3  -3   6    9.23    0.70 
  -3  -3   6    6.21    0.57 
   2   3  -6  177.01   11.99 
  -2  -3   6  181.81   12.76 
  -1  -3   6  181.64   12.98 
  -1  -3   6  184.12   12.76 
   0  -3   6  282.10   19.52 
   0  -3   6  278.88   19.83 
   1  -3   6   13.55    1.09 
   1  -3   6   14.65    0.99 
  -2   3  -6    5.83    0.48 
   2  -3   6    5.92    0.46 
   2  -3   6    5.48    0.52 
  -3   3  -6   12.19    0.88 
   3  -3   6   10.56    0.91 
   3  -3   6   10.74    0.85 
   4  -3   6    6.17    0.65 
   4  -3   6    8.96    0.66 
   5  -3   6    0.03    0.13 
   5  -3   6   -0.13    0.11 
   7   2  -6    4.15    0.45 
  -7  -2   6    4.60    0.61 
   6   2  -6    0.78    0.18 
  -6  -2   6    0.58    0.23 
   5   2  -6   47.49    3.30 
  -5  -2   6   47.98    3.56 
   4   2  -6   27.20    1.90 
   3   2  -6   39.67    2.73 
  -3  -2   6   40.42    2.97 
   2   2  -6   41.94    2.89 
  -2  -2   6   44.12    3.15 
  -1  -2   6   12.58    1.03 
  -1  -2   6   13.85    1.00 
   0  -2   6   39.92    2.86 
   0  -2   6   38.92    2.83 
  -1   2  -6   44.46    3.14 
   1  -2   6   43.50    2.95 
   1  -2   6   42.64    3.13 
   2  -2   6   37.18    2.71 
   2  -2   6   37.33    2.55 
  -3   2  -6   37.98    2.80 
   3  -2   6   37.07    2.65 
   3  -2   6   40.28    2.81 
   4  -2   6   20.35    1.84 
   4  -2   6   29.29    1.79 
   5  -2   6    0.65    0.20 
   5  -2   6    1.05    0.22 
   6  -2   6    0.15    0.16 
   7   1  -6    8.19    0.70 
  -7  -1   6    6.29    0.74 
   6   1  -6    5.09    0.51 
   6   1  -6    4.98    0.50 
  -6  -1   6    6.78    0.63 
   5   1  -6   69.27    4.55 
  -5  -1   6   62.80    4.84 
   4   1  -6    3.07    0.32 
  -4  -1   6    3.84    0.41 
   3   1  -6    1.30    0.16 
  -3  -1   6    1.13    0.23 
   2   1  -6    0.00    0.04 
  -2  -1   6    0.00    0.10 
  -2  -1   6   -0.07    0.07 
  -1  -1   6    0.05    0.09 
  -1  -1   6    0.04    0.08 
   0   1  -6  138.04    8.87 
   0  -1   6  111.61    8.71 
  -1   1  -6  187.04   13.12 
   1  -1   6  183.19   12.92 
  -2   1  -6    8.85    0.65 
   2  -1   6    8.03    0.65 
   2  -1   6    6.59    0.57 
   3  -1   6   76.52    5.49 
   3  -1   6   78.03    5.25 
  -4   1  -6   20.77    1.56 
   4  -1   6   19.57    1.54 
   4  -1   6   20.18    1.47 
   5  -1   6    0.34    0.17 
   6  -1   6    0.15    0.17 
   8   0  -6   11.01    0.97 
   8   0  -6   10.98    0.97 
   7   0  -6    0.34    0.17 
  -7   0   6    0.15    0.18 
   6   0  -6    6.33    0.60 
  -6   0   6    7.46    0.69 
   5   0  -6   12.13    0.91 
  -5   0   6   11.25    0.99 
   4   0  -6    3.87    0.37 
  -4   0   6    4.08    0.43 
   3   0  -6    1.56    0.18 
  -3   0   6    1.54    0.25 
  -2   0   6   18.10    1.39 
  -1   0   6   92.25    6.59 
  -1   0   6   95.10    6.70 
   0   0  -6   25.15    1.86 
  -1   0  -6   41.18    3.11 
   1   0   6   48.68    2.91 
   1   0   6   37.97    3.06 
   2   0   6   17.08    1.20 
  -3   0  -6   51.18    3.93 
   3   0   6   56.79    3.70 
  -4   0  -6    2.30    0.32 
   4   0   6    2.19    0.30 
   4   0   6    1.91    0.27 
   5   0   6    3.98    0.40 
   6   0   6    0.11    0.16 
   8  -1  -6    0.82    0.26 
   7  -1  -6    4.16    0.50 
   6  -1  -6    4.97    0.50 
  -6   1   6    5.26    0.54 
   5  -1  -6    4.33    0.43 
  -5   1   6    4.75    0.48 
   4  -1  -6   79.32    5.40 
  -4   1   6   79.13    5.72 
  -3   1   6    0.48    0.16 
  -2   1   6    1.04    0.19 
   1  -1  -6    2.83    0.31 
   0  -1  -6   73.47    5.29 
   0   1   6   74.24    5.23 
  -1  -1  -6    0.98    0.18 
   1   1   6    1.08    0.20 
  -2  -1  -6   13.11    1.15 
   2   1   6   15.30    1.15 
   2   1   6   15.92    1.06 
  -3  -1  -6    4.38    0.45 
   3   1   6    3.49    0.34 
   3   1   6    4.16    0.41 
  -4  -1  -6   29.72    2.27 
   4   1   6   30.68    2.10 
   4   1   6   28.60    2.20 
   5   1   6    0.11    0.13 
   6   1   6    0.41    0.19 
   8  -2  -6    0.94    0.30 
   7  -2  -6    2.27    0.38 
   6  -2  -6    6.53    0.63 
  -6   2   6    7.28    0.66 
   5  -2  -6   43.87    3.05 
  -5   2   6   43.31    3.22 
  -4   2   6   12.09    0.99 
  -3   2   6    4.05    0.41 
   2  -2  -6   16.35    1.25 
   1  -2  -6    1.85    0.24 
   0  -2  -6    5.96    0.52 
  -1  -2  -6    3.50    0.37 
   1   2   6    3.71    0.38 
  -2  -2  -6   53.66    3.82 
   2   2   6   50.60    3.75 
   3   2   6   13.74    1.11 
   3   2   6   13.90    1.01 
  -4  -2  -6    2.96    0.43 
  -5  -2  -6   10.31    0.96 
   8  -3  -6   -0.02    0.21 
   7  -3  -6    4.08    0.51 
   6  -3  -6    4.66    0.48 
  -6   3   6    4.56    0.50 
  -5   3   6    3.61    0.43 
  -4   3   6    2.87    0.35 
   3  -3  -6    0.43    0.13 
   2  -3  -6    0.42    0.13 
   1  -3  -6   28.09    2.08 
   0  -3  -6   11.48    0.92 
  -2  -3  -6    9.20    0.81 
  -4  -3  -6   10.42    0.94 
   4   3   6    9.91    0.78 
  -5  -3  -6    3.42    0.53 
   5   3   6    3.88    0.40 
   7  -4  -6    0.23    0.18 
   6  -4  -6    2.66    0.39 
   6  -4  -6    2.64    0.41 
   5  -4  -6    1.98    0.33 
  -5   4   6    1.80    0.30 
   4  -4  -6   56.51    4.10 
   3  -4  -6    1.73    0.25 
   2  -4  -6    0.62    0.14 
   1  -4  -6  105.94    7.57 
   0  -4  -6    1.94    0.27 
  -1  -4  -6   14.89    1.20 
  -1  -4  -6   14.88    1.20 
  -2  -4  -6    4.48    0.49 
  -3  -4  -6    0.60    0.21 
  -4  -4  -6   10.35    0.98 
  -5  -4  -6    2.91    0.50 
   7  -5  -6   -0.02    0.17 
   6  -5  -6   -0.05    0.13 
   5  -5  -6    8.30    0.71 
   5  -5  -6    7.72    0.75 
   4  -5  -6   16.40    1.28 
   3  -5  -6   37.50    2.76 
   2  -5  -6   36.99    2.72 
   1  -5  -6  169.41   11.96 
   1  -5  -6  166.48   11.95 
   0  -5  -6   25.44    1.93 
  -1  -5  -6    6.10    0.60 
  -2  -5  -6    0.88    0.23 
  -3  -5  -6    0.95    0.27 
  -4  -5  -6    3.14    0.51 
   7  -6  -6    0.03    0.18 
   6  -6  -6    1.28    0.30 
   5  -6  -6    3.89    0.41 
   5  -6  -6    3.56    0.50 
   4  -6  -6   50.70    3.70 
   3  -6  -6    1.42    0.24 
   2  -6  -6   66.19    4.79 
   1  -6  -6  116.13    8.32 
   0  -6  -6    6.14    0.60 
  -1  -6  -6    0.51    0.19 
  -2  -6  -6    6.20    0.67 
  -3  -6  -6   -0.13    0.15 
  -4  -6  -6    3.82    0.61 
   6  -7  -6   -0.09    0.14 
   5  -7  -6    2.75    0.45 
   4  -7  -6   -0.02    0.11 
   3  -7  -6   18.11    1.42 
   2  -7  -6   13.10    1.07 
   0  -7  -6    2.77    0.41 
  -1  -7  -6   -0.09    0.11 
  -2  -7  -6    1.16    0.31 
  -3  -7  -6    0.36    0.25 
   7  -8  -6    0.01    0.23 
   6  -8  -6    0.96    0.32 
   5  -8  -6    6.88    0.74 
   4  -8  -6    0.66    0.26 
   4  -8  -6    1.09    0.26 
   3  -8  -6    8.26    0.74 
   3  -8  -6    8.28    0.74 
   2  -8  -6   15.22    1.24 
   1  -8  -6   10.17    0.90 
   0  -8  -6    3.22    0.47 
  -1  -8  -6    1.37    0.37 
  -2  -8  -6    1.86    0.41 
  -3  -8  -6    0.14    0.23 
   6  -9  -6    1.51    0.39 
   5  -9  -6    0.07    0.20 
   4  -9  -6    5.73    0.72 
   3  -9  -6    7.32    0.70 
   2  -9  -6   15.21    1.26 
   0  -9  -6    4.58    0.57 
   0  -9  -6    4.57    0.57 
  -1  -9  -6   10.22    1.00 
  -2  -9  -6    1.11    0.33 
   5 -10  -6    0.64    0.31 
   4 -10  -6    0.32    0.22 
   3 -10  -6    2.65    0.50 
   3 -10  -6    3.50    0.46 
   1 -10  -6    1.27    0.29 
   0 -10  -6    3.94    0.58 
  -1 -10  -6    1.23    0.35 
   4 -11  -6    0.46    0.28 
   3 -11  -6    0.23    0.21 
   3 -11  -6   -0.15    0.19 
   2 -11  -6    0.78    0.29 
   2 -11  -6    0.89    0.26 
   1 -11  -6    0.22    0.22 
   1 -11  -6    0.20    0.20 
   0 -11  -6    0.44    0.27 
   1 -14   7    0.67    0.27 
   2 -14   7    2.09    0.42 
   3 -14   7    0.43    0.28 
  -2 -13   7    0.28    0.25 
  -1 -13   7    3.02    0.49 
   0 -13   7    1.25    0.31 
   1 -13   7    1.49    0.35 
   2 -13   7    3.07    0.50 
   3 -13   7   -0.06    0.22 
   4 -13   7   -0.17    0.20 
  -3 -12   7    0.32    0.25 
  -2 -12   7    0.86    0.29 
  -1 -12   7    1.26    0.30 
   0 -12   7    8.58    0.81 
   1 -12   7   16.75    1.39 
   2 -12   7    0.38    0.22 
   3 -12   7    7.57    0.81 
   4 -12   7    0.62    0.27 
  -4 -11   7    1.63    0.40 
  -3 -11   7    0.14    0.20 
  -2 -11   7    2.91    0.46 
  -1 -11   7    2.86    0.41 
  -1 -11   7    2.91    0.43 
   0 -11   7    0.26    0.17 
   0 -11   7   -0.10    0.14 
   1 -11   7    9.19    0.85 
   2 -11   7    6.42    0.67 
   3 -11   7    3.70    0.54 
   4 -11   7   -0.06    0.17 
   5 -11   7    0.68    0.28 
  -5 -10   7    1.34    0.39 
  -4 -10   7    4.33    0.63 
  -3 -10   7    0.77    0.25 
  -2 -10   7    4.05    0.53 
  -1 -10   7    4.00    0.47 
   0 -10   7    2.26    0.35 
   0 -10   7    2.01    0.31 
   1 -10   7    0.01    0.14 
   2 -10   7    2.36    0.39 
   3 -10   7    2.71    0.44 
   4 -10   7    7.07    0.74 
   5 -10   7    0.03    0.17 
   5 -10   7    0.04    0.20 
  -4  -9   7    5.42    0.68 
  -3  -9   7    2.27    0.40 
  -2  -9   7    0.41    0.18 
  -1  -9   7    6.28    0.61 
  -1  -9   7    6.92    0.64 
   0  -9   7    5.46    0.56 
   0  -9   7    6.58    0.59 
   1  -9   7    1.01    0.26 
   2  -9   7    4.54    0.50 
   3  -9   7    7.47    0.73 
   4  -9   7    9.03    0.87 
   5  -9   7    2.74    0.42 
   5  -9   7    3.45    0.52 
   6  -9   7    0.84    0.28 
   6  -9   7    0.64    0.28 
  -6  -8   7    2.38    0.53 
  -5  -8   7    8.55    0.88 
  -4  -8   7    4.54    0.58 
  -3  -8   7    0.46    0.18 
  -2  -8   7    0.19    0.12 
  -2  -8   7    0.16    0.12 
  -2  -8   7    0.16    0.12 
  -1  -8   7    3.39    0.42 
  -1  -8   7    3.71    0.39 
   0  -8   7   -0.08    0.13 
   0  -8   7    0.07    0.14 
   1  -8   7  148.86   10.76 
   1  -8   7  156.56   10.87 
   2  -8   7    6.28    0.63 
   3  -8   7   55.26    4.05 
   4  -8   7   17.04    1.32 
   4  -8   7   17.38    1.43 
   5  -8   7    7.02    0.65 
   5  -8   7    6.24    0.69 
   6  -8   7    3.66    0.48 
   6  -8   7    2.31    0.46 
  -6  -7   7    1.19    0.34 
  -5  -7   7   16.95    1.45 
  -4  -7   7    7.59    0.74 
  -4  -7   7    7.58    0.74 
  -3  -7   7    4.47    0.50 
  -2  -7   7    6.80    0.56 
  -2  -7   7    6.05    0.60 
  -1  -7   7   36.72    2.74 
  -1  -7   7   36.81    2.67 
   0  -7   7   95.52    6.81 
   0  -7   7   96.92    6.91 
   1  -7   7   37.23    2.75 
   1  -7   7   37.42    2.73 
   2  -7   7   24.73    1.90 
   3  -7   7   31.59    2.39 
   4  -7   7   18.59    1.37 
   4  -7   7   17.50    1.47 
   5  -7   7    2.14    0.40 
   5  -7   7    2.80    0.39 
   6  -7   7    8.16    0.80 
   6  -7   7    9.36    0.88 
   6   6  -7    0.70    0.18 
  -6  -6   7    0.53    0.27 
   5   6  -7   12.75    0.93 
  -5  -6   7   12.31    1.13 
  -4  -6   7    2.08    0.37 
  -3  -6   7   41.11    3.09 
  -2  -6   7   67.23    4.62 
  -2  -6   7   62.94    4.76 
  -1  -6   7   22.34    1.74 
  -1  -6   7   24.80    1.81 
   0  -6   7   14.54    1.06 
   0  -6   7   11.94    1.04 
   1  -6   7    0.51    0.17 
   1  -6   7    0.48    0.12 
  -2   6  -7    3.37    0.30 
   2  -6   7    2.38    0.36 
   3  -6   7    2.98    0.41 
   4  -6   7   19.76    1.49 
   4  -6   7   20.47    1.60 
   5  -6   7   11.15    1.02 
   5  -6   7   11.60    0.94 
   6  -6   7   -0.16    0.17 
   6  -6   7    0.00    0.21 
   7   5  -7    0.12    0.17 
  -7  -5   7    0.28    0.25 
   6   5  -7    2.53    0.31 
   5   5  -7    3.75    0.33 
  -5  -5   7    2.10    0.43 
   4   5  -7   78.50    5.38 
  -4  -5   7   81.17    5.83 
  -3  -5   7    6.30    0.51 
  -2  -5   7   72.68    5.42 
  -2  -5   7   81.85    5.59 
  -1  -5   7    2.87    0.37 
  -1  -5   7    3.53    0.35 
   0  -5   7   23.34    1.78 
   0  -5   7   24.51    1.79 
   1  -5   7    1.06    0.21 
   1  -5   7    1.02    0.17 
  -2   5  -7    2.41    0.25 
   2  -5   7    2.21    0.32 
   2  -5   7    2.18    0.25 
   3  -5   7    4.16    0.39 
   4  -5   7    6.48    0.63 
   4  -5   7    6.22    0.57 
   5  -5   7    5.00    0.52 
   5  -5   7    5.48    0.58 
   6  -5   7    0.30    0.20 
   7   4  -7   -0.03    0.21 
  -7  -4   7    0.27    0.23 
   6   4  -7    2.89    0.34 
  -6  -4   7    4.40    0.57 
   5   4  -7   20.37    1.46 
  -5  -4   7   20.57    1.68 
   4   4  -7    0.20    0.10 
  -4  -4   7    0.29    0.21 
   3   4  -7   26.81    1.71 
  -3  -4   7   24.39    1.93 
  -3  -4   7   23.29    1.80 
  -2  -4   7   11.88    0.98 
  -1  -4   7   10.46    0.78 
  -1  -4   7    8.63    0.79 
   0  -4   7    1.24    0.20 
   0  -4   7    1.34    0.22 
   1  -4   7    0.19    0.08 
   1  -4   7    0.25    0.12 
   1  -4   7    0.24    0.06 
  -2   4  -7    0.99    0.16 
   2  -4   7    1.14    0.17 
   2  -4   7    1.20    0.23 
   3  -4   7    1.80    0.23 
   4  -4   7    0.89    0.20 
   4  -4   7    0.66    0.21 
   5  -4   7    0.79    0.26 
   5  -4   7    1.14    0.24 
   6  -4   7    2.27    0.38 
   6  -4   7    2.25    0.38 
   7   3  -7    6.43    0.59 
   6   3  -7    0.01    0.12 
  -6  -3   7   -0.11    0.16 
   5   3  -7    1.10    0.19 
  -5  -3   7    1.07    0.28 
   4   3  -7    3.87    0.36 
  -4  -3   7    4.51    0.52 
   3   3  -7  103.53    6.85 
  -3  -3   7  100.16    7.14 
  -2  -3   7    1.02    0.22 
  -2  -3   7    1.22    0.19 
  -1  -3   7   24.70    1.83 
  -1  -3   7   23.82    1.79 
   0  -3   7   60.17    4.27 
   0  -3   7   59.74    4.32 
  -1   3  -7   14.10    1.09 
   1  -3   7   15.41    0.99 
   1  -3   7   12.52    1.10 
  -2   3  -7    6.69    0.56 
   2  -3   7    6.34    0.60 
   2  -3   7    7.09    0.53 
  -3   3  -7   31.61    2.08 
   3  -3   7   23.97    2.09 
   4  -3   7    3.37    0.44 
   4  -3   7    3.17    0.37 
   5  -3   7    1.01    0.23 
   5  -3   7    1.28    0.28 
   6  -3   7    0.31    0.19 
   7   2  -7   -0.08    0.14 
  -7  -2   7    0.31    0.23 
   6   2  -7    0.01    0.10 
  -6  -2   7    0.24    0.21 
   5   2  -7    5.56    0.50 
  -5  -2   7    6.58    0.65 
   4   2  -7  112.08    7.35 
  -4  -2   7  105.11    7.84 
   3   2  -7   53.04    3.63 
  -3  -2   7   54.55    3.94 
   2   2  -7   64.62    4.25 
  -2  -2   7   59.79    4.48 
  -2  -2   7   65.82    4.61 
  -1  -2   7   60.75    4.71 
  -1  -2   7   69.84    4.62 
   0  -2   7  117.18    8.22 
   0  -2   7  113.27    8.09 
  -1   2  -7  115.62    8.24 
   1  -2   7  109.21    8.14 
   1  -2   7  121.90    7.77 
  -2   2  -7   19.44    1.56 
   2  -2   7   20.72    1.58 
   2  -2   7   22.08    1.46 
   3  -2   7    2.12    0.26 
   3  -2   7    2.75    0.35 
   4  -2   7    0.07    0.11 
   4  -2   7    0.07    0.12 
   5  -2   7    5.20    0.55 
   5  -2   7    5.46    0.51 
   6  -2   7    1.51    0.29 
   7   1  -7    0.56    0.23 
  -7  -1   7    0.34    0.24 
   6   1  -7    4.84    0.47 
  -6  -1   7    4.94    0.60 
   5   1  -7    0.61    0.17 
  -5  -1   7    0.34    0.18 
   4   1  -7  152.65   10.35 
  -4  -1   7  155.00   11.00 
   3   1  -7    5.52    0.42 
  -3  -1   7    4.89    0.51 
   2   1  -7    2.78    0.22 
  -2  -1   7    2.78    0.34 
  -2  -1   7    3.07    0.32 
  -1  -1   7  298.42   22.45 
  -1  -1   7  348.05   22.87 
   0  -1   7  226.12   15.76 
   1  -1   7   22.44    1.63 
   1  -1   7   21.56    1.49 
  -2   1  -7   11.22    0.90 
   2  -1   7    9.56    0.88 
   2  -1   7   12.19    0.81 
  -3   1  -7    5.41    0.50 
   3  -1   7    4.95    0.49 
   4  -1   7   10.12    0.79 
   5  -1   7    0.87    0.24 
   6  -1   7    0.15    0.17 
   7   0  -7   -0.08    0.13 
  -7   0   7    0.35    0.20 
   6   0  -7    9.71    0.83 
  -6   0   7   11.00    0.93 
   5   0  -7    4.48    0.43 
  -5   0   7    4.89    0.51 
   4   0  -7    1.71    0.23 
  -4   0   7    1.73    0.30 
   3   0  -7    6.79    0.52 
  -3   0   7    6.56    0.61 
  -2   0   7    3.23    0.36 
  -1   0   7  161.54   11.54 
  -1   0   7  168.15   11.73 
   0   0  -7   55.29    3.87 
   0   0   7   51.47    3.81 
  -1   0  -7   11.30    0.85 
   1   0   7    9.68    0.84 
  -2   0  -7    2.04    0.26 
   2   0   7    1.82    0.20 
   2   0   7    1.31    0.24 
  -3   0  -7    3.02    0.37 
   3   0   7    3.11    0.29 
   3   0   7    2.40    0.34 
  -4   0  -7    2.42    0.38 
   4   0   7    3.64    0.35 
   4   0   7    2.74    0.38 
   5   0   7    1.89    0.31 
   7  -1  -7    3.51    0.45 
  -7   1   7    3.25    0.47 
   6  -1  -7    9.69    0.82 
  -6   1   7   10.27    0.90 
   5  -1  -7    1.29    0.24 
  -5   1   7    1.28    0.27 
   4  -1  -7    7.31    0.60 
  -4   1   7    7.53    0.68 
  -3   1   7    0.34    0.15 
  -2   1   7   22.27    1.70 
   1  -1  -7    9.98    0.82 
   0   1   7   45.66    3.30 
  -1  -1  -7    4.40    0.40 
   1   1   7    3.58    0.40 
  -2  -1  -7   25.75    1.80 
  -2  -1  -7   25.71    1.80 
   2   1   7   24.43    1.78 
   2   1   7   19.88    1.62 
  -3  -1  -7   -0.05    0.11 
   3   1   7    0.09    0.09 
   3   1   7    0.10    0.10 
  -4  -1  -7    0.18    0.15 
   4   1   7    0.06    0.14 
   4   1   7    0.12    0.17 
   5   1   7    5.34    0.50 
   7  -2  -7    5.39    0.56 
   6  -2  -7    5.07    0.51 
  -6   2   7    5.41    0.56 
   5  -2  -7   23.58    1.73 
  -5   2   7   23.91    1.85 
  -4   2   7   23.13    1.79 
  -3   2   7    2.05    0.30 
   2  -2  -7    0.17    0.10 
   1  -2  -7    6.86    0.59 
   0  -2  -7    6.31    0.56 
  -1  -2  -7   15.07    1.23 
   1   2   7   16.26    1.24 
  -2  -2  -7    0.63    0.21 
   2   2   7    0.41    0.16 
  -3  -2  -7    0.25    0.15 
   3   2   7    0.06    0.12 
   3   2   7    0.06    0.11 
   3   2   7    0.06    0.11 
  -4  -2  -7    1.65    0.36 
   4   2   7    2.17    0.27 
   5   2   7    0.23    0.15 
   7  -3  -7   11.47    0.98 
   6  -3  -7    0.84    0.21 
  -6   3   7    0.78    0.23 
  -5   3   7    1.77    0.31 
  -4   3   7    3.73    0.43 
   2  -3  -7    2.31    0.29 
   1  -3  -7   51.83    3.75 
   1  -3  -7   51.38    3.75 
   0  -3  -7    4.20    0.42 
  -1  -3  -7   15.17    1.21 
  -2  -3  -7   29.12    2.23 
  -4  -3  -7    4.42    0.59 
  -5  -3  -7    3.30    0.54 
   7  -4  -7    0.15    0.18 
   6  -4  -7    1.14    0.25 
   6  -4  -7    0.87    0.24 
  -6   4   7    0.85    0.23 
   4  -4  -7    1.50    0.26 
   3  -4  -7    0.13    0.11 
   1  -4  -7    2.08    0.29 
   0  -4  -7   22.64    1.74 
  -1  -4  -7    7.21    0.67 
  -3  -4  -7    6.01    0.65 
  -4  -4  -7    1.05    0.31 
   7  -5  -7    1.38    0.33 
   6  -5  -7    1.36    0.30 
   5  -5  -7    8.18    0.73 
   4  -5  -7    8.06    0.71 
   3  -5  -7    0.52    0.15 
   2  -5  -7    3.25    0.36 
   1  -5  -7    0.22    0.14 
   0  -5  -7    0.76    0.18 
  -1  -5  -7    1.98    0.33 
  -3  -5  -7   11.28    1.05 
  -4  -5  -7    0.60    0.29 
   7  -6  -7    1.24    0.33 
   6  -6  -7    3.31    0.49 
   5  -6  -7    6.00    0.57 
   4  -6  -7   12.82    1.05 
   3  -6  -7    2.40    0.33 
   2  -6  -7   11.79    0.98 
   1  -6  -7    2.77    0.37 
   0  -6  -7    8.36    0.76 
  -1  -6  -7   25.20    1.99 
  -2  -6  -7    2.65    0.45 
  -3  -6  -7    4.88    0.66 
   6  -7  -7    0.12    0.19 
   5  -7  -7    5.00    0.63 
   4  -7  -7    0.11    0.14 
   3  -7  -7    5.11    0.51 
   2  -7  -7   -0.11    0.08 
   1  -7  -7   14.96    1.24 
   0  -7  -7    0.74    0.24 
  -2  -7  -7    3.94    0.58 
  -3  -7  -7    5.09    0.71 
   6  -8  -7    0.16    0.23 
   5  -8  -7    6.02    0.74 
   4  -8  -7    0.66    0.23 
   3  -8  -7    3.26    0.42 
   2  -8  -7    1.85    0.32 
   1  -8  -7    0.11    0.17 
   0  -8  -7    8.69    0.84 
  -1  -8  -7    3.22    0.52 
  -2  -8  -7    3.76    0.59 
   6  -9  -7    5.04    0.72 
   5  -9  -7    1.43    0.38 
   4  -9  -7   -0.01    0.18 
   3  -9  -7    0.37    0.23 
   2  -9  -7    0.14    0.16 
   1  -9  -7    0.09    0.16 
   0  -9  -7    2.15    0.41 
  -1  -9  -7    3.81    0.59 
   5 -10  -7    1.08    0.36 
   4 -10  -7    1.19    0.35 
   3 -10  -7    2.71    0.43 
   2 -10  -7    6.61    0.70 
   1 -10  -7    0.00    0.24 
   0 -10  -7    1.30    0.38 
   3 -11  -7    2.40    0.48 
   3 -11  -7    1.97    0.41 
   2 -11  -7    0.27    0.26 
   1 -14   8    0.01    0.18 
   2 -14   8    0.92    0.31 
  -2 -13   8    5.17    0.66 
  -1 -13   8   12.30    1.12 
   0 -13   8    4.32    0.58 
   1 -13   8    4.04    0.57 
   2 -13   8    0.06    0.20 
   3 -13   8    0.32    0.24 
  -3 -12   8    4.06    0.60 
  -2 -12   8   21.16    1.74 
  -1 -12   8   16.19    1.36 
   0 -12   8   12.92    1.12 
   1 -12   8    2.95    0.46 
   2 -12   8   -0.04    0.16 
   3 -12   8    0.20    0.21 
   4 -12   8    0.64    0.29 
  -4 -11   8    3.93    0.60 
  -3 -11   8   16.96    1.46 
  -2 -11   8   27.66    2.18 
  -1 -11   8   28.57    2.10 
  -1 -11   8   26.13    2.13 
   0 -11   8    5.73    0.62 
   0 -11   8    6.48    0.63 
   1 -11   8   10.81    0.98 
   2 -11   8    5.51    0.62 
   3 -11   8    0.51    0.25 
   4 -11   8    3.05    0.52 
   5 -11   8    0.72    0.29 
  -4 -10   8    3.24    0.53 
  -3 -10   8   20.91    1.72 
  -2 -10   8    4.53    0.51 
  -1 -10   8    8.08    0.74 
  -1 -10   8    7.47    0.71 
   0 -10   8   49.28    3.54 
   0 -10   8   46.95    3.55 
   1 -10   8    1.87    0.36 
   2 -10   8    2.14    0.39 
   3 -10   8    1.36    0.34 
   4 -10   8    0.81    0.29 
   5 -10   8    3.73    0.59 
  -5  -9   8    0.13    0.22 
  -3  -9   8    0.20    0.15 
  -2  -9   8    7.36    0.72 
  -1  -9   8    6.78    0.63 
  -1  -9   8    7.04    0.67 
   0  -9   8    7.01    0.65 
   0  -9   8    6.87    0.66 
   1  -9   8    0.48    0.18 
   2  -9   8    1.32    0.30 
   3  -9   8    1.32    0.32 
   4  -9   8   -0.02    0.18 
   5  -9   8    0.08    0.22 
  -5  -8   8    2.12    0.43 
  -4  -8   8    0.09    0.14 
  -3  -8   8    1.96    0.35 
  -2  -8   8    0.20    0.13 
  -2  -8   8    0.20    0.13 
  -1  -8   8   24.35    1.91 
  -1  -8   8   25.03    1.86 
   0  -8   8    2.06    0.30 
   0  -8   8    2.26    0.34 
   1  -8   8    1.65    0.31 
   1  -8   8    1.42    0.24 
   2  -8   8    8.25    0.78 
   3  -8   8   15.75    1.32 
   4  -8   8   -0.06    0.16 
   5  -8   8    3.04    0.51 
  -6  -7   8    5.85    0.78 
  -5  -7   8    6.25    0.71 
  -4  -7   8    0.04    0.14 
  -3  -7   8    4.44    0.51 
  -2  -7   8    1.88    0.28 
  -2  -7   8    3.53    0.42 
  -1  -7   8    1.15    0.23 
  -1  -7   8    1.45    0.26 
   0  -7   8   29.65    2.27 
   0  -7   8   31.20    2.28 
   1  -7   8    0.04    0.13 
   1  -7   8   -0.08    0.09 
   2  -7   8   21.24    1.67 
   3  -7   8    3.05    0.44 
   4  -7   8    0.09    0.18 
   5  -7   8    0.95    0.29 
   6  -7   8    0.26    0.25 
  -6  -6   8    5.01    0.69 
  -5  -6   8    2.15    0.42 
  -4  -6   8    0.18    0.16 
  -3  -6   8    6.74    0.68 
  -2  -6   8    0.08    0.11 
  -2  -6   8    0.09    0.07 
  -1  -6   8    1.49    0.24 
  -1  -6   8    1.29    0.25 
   0  -6   8   30.23    2.26 
   0  -6   8   30.55    2.25 
   1  -6   8   13.49    1.11 
   1  -6   8   13.81    1.07 
   2  -6   8   28.74    2.18 
   3  -6   8    5.28    0.56 
   4  -6   8    1.67    0.35 
   5  -6   8    1.69    0.35 
   6  -6   8    0.54    0.28 
  -6  -5   8    7.08    0.78 
  -5  -5   8   21.99    1.82 
  -4  -5   8   36.97    2.84 
  -3  -5   8    1.49    0.31 
  -3  -5   8    1.67    0.22 
  -2  -5   8   53.45    3.85 
  -2  -5   8   54.58    3.97 
  -1  -5   8    4.29    0.44 
  -1  -5   8    4.46    0.44 
   0  -5   8   26.73    2.04 
   0  -5   8   27.98    2.04 
   1  -5   8   14.53    1.17 
   1  -5   8   14.72    1.13 
  -2   5  -8    6.16    0.52 
   2  -5   8    5.63    0.57 
   3  -5   8   38.87    2.84 
   3  -5   8   37.45    2.65 
   4  -5   8    1.46    0.31 
   4  -5   8    1.55    0.26 
   5  -5   8    0.38    0.20 
  -7  -4   8    1.64    0.42 
  -6  -4   8   11.52    1.10 
  -5  -4   8   53.74    4.04 
  -4  -4   8    1.40    0.32 
  -3  -4   8   19.54    1.46 
  -3  -4   8   16.89    1.34 
  -2  -4   8    0.60    0.15 
  -2  -4   8    0.82    0.19 
  -1  -4   8    7.87    0.61 
  -1  -4   8    5.72    0.59 
   0  -4   8    0.46    0.15 
   0  -4   8    0.59    0.15 
  -1   4  -8   41.60    3.10 
   1  -4   8   44.00    3.12 
  -2   4  -8   18.39    1.38 
   2  -4   8   17.99    1.43 
   3  -4   8   16.33    1.20 
   3  -4   8   16.47    1.32 
   4  -4   8    6.96    0.78 
   4  -4   8   10.77    0.76 
   5  -4   8   -0.03    0.16 
   5  -4   8   -0.15    0.19 
  -7  -3   8    4.18    0.63 
  -6  -3   8    7.22    0.78 
  -5  -3   8   13.09    1.16 
   4   3  -8    6.55    0.48 
  -4  -3   8    4.47    0.61 
  -3  -3   8   11.95    0.97 
  -3  -3   8   12.86    1.05 
  -2  -3   8    5.26    0.49 
  -2  -3   8    6.00    0.54 
  -1  -3   8    0.63    0.16 
  -1  -3   8    0.75    0.17 
   0  -3   8  109.78    7.70 
   0  -3   8  108.63    7.80 
  -1   3  -8   61.49    4.40 
   1  -3   8   60.52    4.38 
   2  -3   8   19.47    1.52 
   2  -3   8   19.73    1.38 
   3  -3   8    1.65    0.30 
   3  -3   8    1.78    0.24 
   4  -3   8    3.73    0.37 
   4  -3   8    3.05    0.45 
   5  -3   8    0.46    0.20 
   5  -3   8    0.60    0.23 
  -7  -2   8   -0.19    0.21 
  -6  -2   8   10.64    1.00 
   5   2  -8    0.99    0.19 
  -5  -2   8    1.05    0.27 
   4   2  -8    0.68    0.15 
  -4  -2   8    0.84    0.23 
  -3  -2   8   11.03    0.95 
  -2  -2   8    5.30    0.48 
  -2  -2   8    5.07    0.50 
  -1  -2   8   35.74    2.63 
  -1  -2   8   36.65    2.68 
   0   2  -8  141.85   11.86 
   0  -2   8  194.23   11.73 
  -1   2  -8    2.58    0.30 
   1  -2   8    2.21    0.31 
  -2   2  -8    3.00    0.33 
   2  -2   8    2.63    0.36 
   2  -2   8    3.04    0.27 
   3  -2   8    6.54    0.63 
   3  -2   8    6.88    0.55 
   4  -2   8    0.55    0.18 
   4  -2   8    0.84    0.18 
   5  -2   8    0.70    0.24 
   5  -2   8    1.14    0.24 
  -7  -1   8    2.24    0.41 
  -6  -1   8    5.32    0.59 
   5   1  -8    0.19    0.14 
  -5  -1   8    0.27    0.18 
   4   1  -8   20.72    1.43 
  -4  -1   8   19.32    1.60 
   3   1  -8    4.43    0.36 
  -3  -1   8    4.64    0.48 
  -2  -1   8    0.06    0.11 
  -2  -1   8   -0.08    0.07 
  -1  -1   8    1.33    0.23 
  -1  -1   8    0.99    0.21 
   0   1  -8    0.10    0.12 
   0  -1   8   -0.11    0.09 
  -1   1  -8   20.04    1.52 
   1  -1   8   20.00    1.52 
  -2   1  -8    0.01    0.12 
   2  -1   8    0.09    0.09 
   2  -1   8    0.03    0.13 
  -3   1  -8    1.30    0.24 
   3  -1   8    1.46    0.27 
   4  -1   8    8.30    0.82 
   4  -1   8   10.74    0.77 
   5  -1   8    0.12    0.16 
  -7   0   8    5.67    0.63 
   6   0  -8    0.17    0.13 
  -6   0   8   -0.01    0.15 
   5   0  -8   27.83    1.99 
  -5   0   8   28.23    2.17 
   4   0  -8    4.58    0.40 
  -4   0   8    4.25    0.48 
   3   0  -8   18.84    1.34 
  -3   0   8   19.34    1.51 
  -2   0   8    1.45    0.25 
   1   0  -8   12.22    0.99 
  -1   0   8   12.99    1.02 
   0   0  -8    0.61    0.15 
   0   0   8    0.20    0.12 
  -1   0  -8    2.02    0.27 
   1   0   8    1.82    0.28 
  -2   0  -8    4.54    0.45 
   2   0   8    4.57    0.46 
   2   0   8    4.60    0.37 
  -3   0  -8    5.82    0.62 
   3   0   8    7.67    0.56 
   3   0   8    6.69    0.63 
   4   0   8   17.89    1.29 
   4   0   8   14.38    1.15 
  -7   1   8    1.93    0.37 
   6  -1  -8    0.41    0.16 
  -6   1   8    0.46    0.21 
   5  -1  -8    1.69    0.25 
  -5   1   8    1.75    0.32 
   4  -1  -8   10.79    0.85 
  -4   1   8   11.53    0.97 
  -3   1   8    0.89    0.22 
   2  -1  -8   19.71    1.54 
  -2   1   8   20.48    1.56 
   1  -1  -8    6.00    0.55 
   0  -1  -8    0.05    0.08 
   0   1   8    0.06    0.11 
   1   1   8   30.29    2.26 
  -2  -1  -8    3.20    0.38 
   2   1   8    3.78    0.40 
  -3  -1  -8   15.01    1.31 
   3   1   8   17.02    1.16 
   3   1   8   15.82    1.30 
  -4  -1  -8   24.56    1.95 
   4   1   8   24.63    1.74 
   4   1   8   24.41    1.91 
   5   1   8    3.34    0.38 
   7  -2  -8    1.81    0.34 
   6  -2  -8    0.60    0.19 
  -6   2   8    0.46    0.20 
   5  -2  -8    0.75    0.18 
  -5   2   8    0.75    0.23 
  -4   2   8   68.11    4.97 
  -3   2   8    1.22    0.26 
   2  -2  -8    6.54    0.59 
   1  -2  -8   40.03    2.95 
   0  -2  -8    0.79    0.19 
  -1  -2  -8    2.77    0.37 
   1   2   8    3.58    0.43 
  -2  -2  -8    1.66    0.29 
   2   2   8    1.54    0.28 
  -3  -2  -8    7.25    0.62 
   3   2   8    4.36    0.56 
   3   2   8    4.35    0.56 
  -4  -2  -8    7.08    0.74 
   5   2   8    1.39    0.27 
   5   2   8    1.40    0.27 
   7  -3  -8    0.55    0.23 
   6  -3  -8    0.76    0.21 
  -6   3   8    0.55    0.20 
  -5   3   8   45.19    3.37 
   3  -3  -8   30.17    2.27 
   2  -3  -8   27.97    2.11 
   1  -3  -8   36.69    2.72 
   0  -3  -8    0.31    0.13 
  -1  -3  -8    3.30    0.38 
  -2  -3  -8    0.54    0.19 
  -3  -3  -8    8.06    0.78 
  -4  -3  -8    3.69    0.55 
   7  -4  -8    4.63    0.57 
   6  -4  -8    0.68    0.24 
   6  -4  -8    0.50    0.20 
   6  -4  -8    0.55    0.20 
   5  -4  -8   29.08    2.21 
   4  -4  -8   36.69    2.74 
   3  -4  -8    7.84    0.70 
   2  -4  -8   28.96    2.18 
   1  -4  -8    0.82    0.20 
   0  -4  -8    3.81    0.42 
  -1  -4  -8    4.83    0.52 
  -2  -4  -8    0.79    0.23 
  -3  -4  -8   11.91    1.10 
  -4  -4  -8    9.33    0.95 
   7  -5  -8    0.79    0.28 
   6  -5  -8    2.79    0.44 
   5  -5  -8    5.13    0.53 
   4  -5  -8    2.68    0.37 
   3  -5  -8   14.19    1.15 
   2  -5  -8    8.82    0.77 
   1  -5  -8    0.92    0.22 
   1  -5  -8    0.91    0.22 
  -1  -5  -8    0.41    0.18 
  -2  -5  -8   15.40    1.33 
  -3  -5  -8    3.97    0.58 
   7  -6  -8    0.92    0.30 
   6  -6  -8    0.29    0.19 
   5  -6  -8    0.61    0.21 
   4  -6  -8    3.92    0.45 
   2  -6  -8    0.34    0.16 
   1  -6  -8   23.17    1.81 
   0  -6  -8    7.93    0.75 
  -1  -6  -8    1.16    0.30 
  -3  -6  -8    1.65    0.40 
   6  -7  -8    0.48    0.24 
   5  -7  -8    0.88    0.25 
   4  -7  -8    0.28    0.17 
   3  -7  -8    1.39    0.26 
   2  -7  -8    3.82    0.47 
   1  -7  -8   14.29    1.20 
   1  -7  -8   14.27    1.20 
   0  -7  -8    4.48    0.57 
  -1  -7  -8    5.00    0.63 
  -2  -7  -8    3.44    0.56 
   6  -8  -8    0.11    0.21 
   5  -8  -8    0.41    0.25 
   4  -8  -8    0.83    0.26 
   4  -8  -8    0.82    0.26 
   3  -8  -8    1.08    0.26 
   2  -8  -8    1.45    0.30 
   1  -8  -8    0.44    0.22 
   0  -8  -8   14.06    1.26 
  -1  -8  -8    0.46    0.31 
   5  -9  -8    0.15    0.22 
   4  -9  -8    0.06    0.24 
   3  -9  -8    0.08    0.17 
   2  -9  -8    0.54    0.27 
   1  -9  -8    4.77    0.63 
   0  -9  -8    1.26    0.38 
   4 -10  -8    0.19    0.26 
   3 -10  -8    0.61    0.25 
   2 -10  -8    0.37    0.23 
   1 -10  -8    9.81    0.99 
   1 -14   9    2.55    0.49 
  -2 -13   9    0.23    0.24 
   0 -13   9    4.19    0.58 
   1 -13   9    0.25    0.22 
   2 -13   9    0.96    0.32 
   3 -13   9    0.30    0.27 
  -3 -12   9    0.18    0.23 
  -2 -12   9    1.28    0.35 
  -1 -12   9    0.48    0.24 
   0 -12   9    0.60    0.24 
   1 -12   9    0.67    0.26 
   2 -12   9    0.95    0.29 
   3 -12   9   -0.02    0.21 
  -4 -11   9    2.58    0.50 
  -3 -11   9    6.07    0.75 
  -2 -11   9    3.32    0.52 
  -1 -11   9    2.44    0.43 
  -1 -11   9    1.61    0.33 
   0 -11   9    1.36    0.31 
   1 -11   9    0.27    0.19 
   2 -11   9    0.34    0.21 
   3 -11   9    8.12    0.85 
   4 -11   9    3.85    0.60 
  -4 -10   9    2.06    0.44 
  -3 -10   9    6.12    0.74 
  -2 -10   9    5.97    0.64 
  -1 -10   9   -0.07    0.13 
  -1 -10   9   -0.02    0.14 
   0 -10   9    1.09    0.25 
   0 -10   9    1.33    0.29 
   1 -10   9    7.32    0.73 
   2 -10   9    6.26    0.68 
   3 -10   9   19.52    1.63 
   4 -10   9    2.96    0.53 
  -5  -9   9    0.53    0.28 
  -4  -9   9   19.33    1.66 
  -3  -9   9    0.10    0.17 
  -2  -9   9   14.63    1.27 
  -1  -9   9    6.03    0.60 
  -1  -9   9    5.56    0.57 
   0  -9   9    7.06    0.67 
   0  -9   9    6.94    0.68 
   1  -9   9    0.17    0.15 
   2  -9   9    9.71    0.91 
   3  -9   9    4.21    0.58 
   4  -9   9    3.04    0.52 
   5  -9   9    1.93    0.44 
  -5  -8   9    8.95    0.94 
  -4  -8   9    2.23    0.44 
  -3  -8   9   38.31    2.95 
  -2  -8   9    2.46    0.39 
  -1  -8   9    1.57    0.29 
  -1  -8   9    1.73    0.29 
   0  -8   9    1.77    0.30 
   0  -8   9    1.51    0.27 
   1  -8   9    0.98    0.24 
   2  -8   9   12.63    1.10 
   3  -8   9    0.90    0.27 
   4  -8   9    2.46    0.46 
   5  -8   9    4.59    0.66 
  -6  -7   9    1.10    0.43 
  -5  -7   9   15.90    1.45 
  -4  -7   9   21.87    1.81 
  -3  -7   9    6.07    0.64 
  -2  -7   9    0.53    0.17 
  -2  -7   9    0.68    0.20 
  -1  -7   9    5.19    0.50 
  -1  -7   9    4.92    0.52 
   0  -7   9   14.90    1.18 
   0  -7   9   14.54    1.19 
   1  -7   9   36.92    2.69 
   1  -7   9   35.76    2.72 
   2  -7   9    9.99    0.90 
   3  -7   9   18.68    1.53 
   4  -7   9    4.61    0.61 
   5  -7   9    0.42    0.27 
  -6  -6   9    5.31    0.74 
  -5  -6   9    6.82    0.76 
  -4  -6   9   11.84    1.08 
  -3  -6   9    0.37    0.17 
  -2  -6   9   -0.06    0.10 
  -2  -6   9    0.06    0.12 
  -1  -6   9   16.54    1.27 
  -1  -6   9   15.53    1.28 
   0  -6   9    0.03    0.09 
   0  -6   9    0.06    0.12 
   1  -6   9   60.14    4.43 
   1  -6   9   62.65    4.44 
   2  -6   9   13.91    1.17 
   3  -6   9    1.33    0.30 
   4  -6   9    7.68    0.77 
   5  -6   9    4.91    0.66 
  -6  -5   9    0.27    0.23 
  -5  -5   9   -0.02    0.18 
  -4  -5   9    2.97    0.47 
  -3  -5   9   10.98    0.93 
  -3  -5   9    9.65    0.81 
  -2  -5   9    0.60    0.16 
  -2  -5   9    0.63    0.18 
  -1  -5   9   55.45    3.99 
  -1  -5   9   55.56    4.06 
   0  -5   9    0.59    0.15 
   0  -5   9    0.35    0.16 
   1  -5   9    0.27    0.16 
   1  -5   9    0.24    0.15 
  -2   5  -9    0.12    0.12 
   2  -5   9    0.27    0.17 
   3  -5   9    5.73    0.60 
   4  -5   9    3.99    0.55 
   5  -5   9    6.16    0.69 
  -7  -4   9    1.29    0.39 
  -6  -4   9    5.83    0.74 
  -5  -4   9    0.24    0.21 
  -4  -4   9   13.00    1.15 
  -3  -4   9   -0.05    0.09 
  -3  -4   9   -0.01    0.09 
  -2  -4   9   26.98    2.12 
  -2  -4   9   31.36    2.22 
  -1  -4   9   55.05    4.09 
  -1  -4   9   59.36    4.18 
   0  -4   9    3.94    0.44 
   0  -4   9    4.07    0.41 
  -1   4  -9   33.92    2.67 
   1  -4   9   39.73    2.72 
   2  -4   9   33.45    2.51 
   3  -4   9    0.36    0.18 
   4  -4   9    0.02    0.14 
   5  -4   9    0.07    0.21 
  -7  -3   9    3.70    0.59 
  -6  -3   9    2.83    0.50 
  -5  -3   9    0.93    0.28 
  -4  -3   9    6.81    0.69 
  -3  -3   9    0.52    0.17 
  -3  -3   9    0.51    0.17 
  -2  -3   9   20.85    1.47 
  -2  -3   9   17.50    1.50 
  -1  -3   9   45.71    3.79 
  -1  -3   9   58.33    3.74 
   0  -3   9  129.07    8.61 
   0  -3   9  111.43    8.46 
  -1   3  -9    0.30    0.14 
   1  -3   9    0.38    0.16 
  -2   3  -9   19.75    1.51 
   2  -3   9   19.64    1.55 
   3  -3   9    5.57    0.57 
   4  -3   9    0.08    0.15 
   5  -3   9   -0.09    0.14 
  -7  -2   9    0.01    0.20 
  -6  -2   9    0.28    0.20 
  -5  -2   9    3.52    0.50 
  -4  -2   9    0.97    0.25 
  -3  -2   9   15.76    1.29 
  -2  -2   9  102.69    7.34 
  -2  -2   9  105.08    7.48 
  -1  -2   9   61.59    4.73 
  -1  -2   9   71.56    4.83 
   0   2  -9    4.59    0.47 
   0  -2   9    5.14    0.49 
  -1   2  -9   19.06    1.30 
   1  -2   9   14.00    1.26 
  -2   2  -9   10.35    0.95 
   2  -2   9   12.81    0.99 
   2  -2   9   12.92    0.99 
  -3   2  -9    2.86    0.35 
   4  -2   9    1.64    0.31 
  -7  -1   9    0.56    0.26 
  -6  -1   9    1.10    0.29 
  -5  -1   9    0.35    0.17 
  -4  -1   9    5.53    0.58 
  -3  -1   9  107.13    7.72 
  -2  -1   9   33.48    2.52 
  -2  -1   9   33.62    2.48 
  -1  -1   9   29.89    2.23 
   0   1  -9   24.93    1.88 
  -2   1  -9   10.47    0.85 
   2  -1   9    9.21    0.83 
  -3   1  -9   -0.13    0.12 
   3  -1   9    0.17    0.12 
   4  -1   9    0.04    0.15 
  -7   0   9    3.53    0.51 
  -6   0   9    0.18    0.17 
  -5   0   9   14.99    1.26 
  -4   0   9   48.61    3.62 
  -3   0   9   20.48    1.62 
   1   0  -9   17.07    1.30 
  -1   0   9   15.67    1.30 
   0   0  -9   76.93    5.51 
   0   0   9   75.68    5.46 
  -1   0  -9   15.08    1.16 
   1   0   9   13.60    1.15 
  -2   0  -9    3.96    0.43 
  -2   0  -9    3.96    0.43 
  -3   0  -9    0.18    0.14 
   3   0   9   -0.01    0.12 
   4   0   9    0.35    0.19 
  -7   1   9    2.33    0.42 
  -6   1   9    3.34    0.48 
  -5   1   9    2.18    0.38 
  -4   1   9    0.05    0.16 
  -3   1   9    0.23    0.17 
   2  -1  -9    0.69    0.18 
   1  -1  -9   18.42    1.44 
   0   1   9   16.71    1.34 
  -1  -1  -9   14.72    1.18 
   1   1   9   14.49    1.20 
  -2  -1  -9    1.15    0.24 
   2   1   9    1.19    0.25 
  -3  -1  -9    2.17    0.37 
   3   1   9    1.97    0.35 
  -6   2   9    2.39    0.39 
  -5   2   9    0.85    0.26 
  -4   2   9    4.70    0.52 
   3  -2  -9    2.03    0.31 
   2  -2  -9    0.07    0.10 
   1  -2  -9    2.13    0.31 
   0  -2  -9   11.88    0.99 
  -1  -2  -9    1.95    0.31 
  -2  -2  -9    4.08    0.46 
  -3  -2  -9    4.36    0.55 
  -4  -2  -9    0.12    0.19 
  -6   3   9    1.03    0.27 
  -5   3   9   12.05    1.05 
   3  -3  -9    6.35    0.61 
   2  -3  -9   12.58    1.04 
   1  -3  -9    5.35    0.52 
   0  -3  -9    0.08    0.11 
  -1  -3  -9    1.62    0.29 
  -2  -3  -9    0.08    0.12 
  -3  -3  -9    0.44    0.19 
  -4  -3  -9    1.33    0.37 
   6  -4  -9    2.35    0.39 
   6  -4  -9    2.35    0.39 
   5  -4  -9    9.31    0.84 
   4  -4  -9   14.39    1.19 
   3  -4  -9    2.79    0.38 
   2  -4  -9   56.83    4.16 
   1  -4  -9    0.54    0.19 
   0  -4  -9    0.50    0.17 
  -1  -4  -9    5.53    0.59 
  -2  -4  -9    0.32    0.17 
  -3  -4  -9    0.59    0.28 
   5  -5  -9    8.92    0.82 
   4  -5  -9    4.37    0.48 
   3  -5  -9   19.32    1.53 
   2  -5  -9    4.04    0.45 
   1  -5  -9   10.35    0.92 
   0  -5  -9    7.37    0.70 
  -1  -5  -9    0.28    0.18 
  -2  -5  -9    1.80    0.37 
  -3  -5  -9   12.85    1.21 
   6  -6  -9    2.17    0.43 
   4  -6  -9    4.26    0.51 
   3  -6  -9    0.77    0.22 
   2  -6  -9    2.99    0.42 
   1  -6  -9    0.01    0.14 
   1  -6  -9    0.02    0.14 
   0  -6  -9    8.45    0.81 
  -1  -6  -9    2.75    0.45 
  -2  -6  -9    6.86    0.76 
   6  -7  -9    2.99    0.54 
   5  -7  -9    0.93    0.28 
   4  -7  -9    0.38    0.22 
   3  -7  -9    2.56    0.40 
   2  -7  -9    0.75    0.24 
   1  -7  -9    0.99    0.27 
   1  -7  -9    1.00    0.27 
   0  -7  -9    0.19    0.22 
  -1  -7  -9    0.62    0.26 
   3  -8  -9    0.30    0.20 
   2  -8  -9    1.24    0.29 
   1  -8  -9    1.25    0.35 
   0  -8  -9   -0.01    0.22 
   4  -9  -9    0.71    0.34 
   3  -9  -9    0.13    0.20 
   2  -9  -9    2.71    0.50 
   1  -9  -9    0.15    0.23 
   0 -13  10    3.49    0.53 
   1 -13  10    1.30    0.34 
   2 -13  10    0.55    0.29 
  -2 -12  10    0.50    0.32 
  -1 -12  10    7.74    0.82 
   0 -12  10    8.53    0.84 
   1 -12  10    6.19    0.69 
   2 -12  10    0.45    0.25 
   3 -12  10    0.02    0.23 
  -3 -11  10   -0.43    0.27 
  -2 -11  10    8.24    0.85 
  -1 -11  10   15.01    1.26 
  -1 -11  10   15.24    1.31 
   0 -11  10    8.53    0.82 
   1 -11  10    0.20    0.18 
   2 -11  10    0.73    0.27 
   3 -11  10    0.38    0.25 
  -4 -10  10   -0.27    0.33 
  -3 -10  10    3.89    0.59 
  -2 -10  10    3.13    0.50 
  -1 -10  10    7.24    0.73 
  -1 -10  10    7.69    0.72 
   0 -10  10    7.46    0.74 
   1 -10  10    9.55    0.90 
   2 -10  10    2.24    0.42 
   3 -10  10    5.46    0.71 
   4 -10  10    0.23    0.26 
  -5  -9  10    0.12    0.26 
  -4  -9  10    0.05    0.22 
  -3  -9  10    5.24    0.68 
  -2  -9  10    0.01    0.13 
  -1  -9  10    4.48    0.53 
  -1  -9  10    3.89    0.49 
   0  -9  10   38.42    2.80 
   0  -9  10   36.28    2.79 
   1  -9  10    3.93    0.53 
   2  -9  10   15.94    1.36 
   3  -9  10    3.58    0.55 
   4  -9  10    0.37    0.25 
  -5  -8  10    1.53    0.42 
  -4  -8  10    3.33    0.55 
  -3  -8  10   12.01    1.10 
  -2  -8  10    0.10    0.12 
  -2  -8  10   -0.09    0.11 
  -1  -8  10   10.63    0.90 
  -1  -8  10    9.97    0.91 
   0  -8  10    7.73    0.72 
   0  -8  10    8.50    0.76 
   1  -8  10    1.79    0.34 
   2  -8  10    2.81    0.46 
   3  -8  10    1.09    0.31 
   4  -8  10    1.43    0.39 
  -5  -7  10    9.16    0.97 
  -4  -7  10   19.28    1.64 
  -3  -7  10    0.16    0.15 
  -2  -7  10    4.53    0.51 
  -2  -7  10    4.05    0.44 
  -1  -7  10    4.41    0.47 
  -1  -7  10    4.25    0.47 
   0  -7  10    0.36    0.18 
   0  -7  10    0.41    0.15 
   1  -7  10    2.86    0.33 
   1  -7  10    2.18    0.38 
   2  -7  10    0.44    0.22 
   3  -7  10    3.18    0.50 
   4  -7  10    0.77    0.31 
   5  -7  10    1.95    0.45 
  -6  -6  10   22.64    1.96 
  -5  -6  10   13.81    1.29 
  -4  -6  10    2.11    0.40 
  -3  -6  10    8.74    0.85 
  -2  -6  10    0.28    0.12 
  -2  -6  10    0.13    0.12 
  -1  -6  10    7.27    0.67 
  -1  -6  10    7.03    0.66 
   0  -6  10    4.46    0.46 
   0  -6  10    4.42    0.49 
   1  -6  10    3.00    0.34 
   1  -6  10    3.36    0.46 
   2  -6  10   11.55    1.02 
   3  -6  10    3.36    0.50 
   4  -6  10    0.43    0.25 
   5  -6  10    0.81    0.34 
  -6  -5  10    6.55    0.82 
  -5  -5  10    3.93    0.59 
  -4  -5  10    5.27    0.66 
  -3  -5  10    3.07    0.44 
  -2  -5  10   16.84    1.23 
  -2  -5  10   14.34    1.28 
  -1  -5  10    0.22    0.14 
  -1  -5  10    0.02    0.11 
   0  -5  10   29.36    2.20 
   0  -5  10   28.97    2.19 
  -1   5 -10   17.36    1.16 
   1  -5  10   11.03    1.15 
   2  -5  10   19.82    1.59 
   3  -5  10    7.00    0.71 
   4  -5  10    1.58    0.37 
   5  -5  10    0.09    0.26 
  -6  -4  10    0.54    0.30 
  -5  -4  10    6.10    0.73 
  -4  -4  10   13.36    1.18 
  -3  -4  10    0.02    0.10 
  -3  -4  10    0.13    0.13 
  -2  -4  10    0.30    0.14 
  -2  -4  10    0.63    0.19 
  -1  -4  10    0.23    0.15 
  -1  -4  10    0.21    0.14 
   0  -4  10    5.32    0.52 
   0  -4  10    4.28    0.46 
  -1   4 -10    7.06    0.61 
   1  -4  10    6.31    0.65 
   2  -4  10    0.91    0.25 
   3  -4  10    4.54    0.57 
   4  -4  10    1.32    0.32 
   5  -4  10    0.21    0.22 
  -6  -3  10    0.35    0.24 
  -5  -3  10   10.52    0.99 
  -4  -3  10   18.90    1.56 
  -3  -3  10    0.01    0.11 
  -3  -3  10    0.17    0.12 
  -2  -3  10   11.03    0.94 
  -2  -3  10   10.52    0.89 
  -1  -3  10    0.63    0.19 
  -1  -3  10    1.27    0.24 
   0   3 -10   24.43    1.62 
   0  -3  10   19.00    1.58 
   0  -3  10   19.01    1.58 
  -1   3 -10   13.85    1.02 
   1  -3  10   11.11    1.02 
  -2   3 -10   -0.07    0.09 
   2  -3  10   -0.13    0.09 
   3  -3  10   -0.02    0.11 
   4  -3  10    7.17    0.72 
   5  -3  10    0.19    0.29 
  -7  -2  10    0.09    0.23 
  -6  -2  10   -0.15    0.15 
  -5  -2  10   14.89    1.30 
  -4  -2  10    0.94    0.26 
  -3  -2  10    0.94    0.23 
  -2  -2  10    3.40    0.42 
  -2  -2  10    2.67    0.39 
  -1  -2  10   25.10    2.20 
  -1  -2  10   34.40    2.22 
   0   2 -10   16.64    1.31 
  -1   2 -10   -0.06    0.09 
   1  -2  10    0.04    0.11 
  -2   2 -10    1.68    0.28 
   2  -2  10    2.31    0.35 
   3  -2  10    5.76    0.60 
   4  -2  10    5.25    0.58 
  -7  -1  10    0.57    0.28 
  -6  -1  10    0.32    0.19 
  -5  -1  10    5.54    0.61 
  -4  -1  10    0.20    0.16 
  -3  -1  10    0.13    0.15 
  -2  -1  10   -0.15    0.09 
  -2  -1  10   -0.01    0.12 
   1   1 -10   13.73    1.01 
  -1  -1  10   10.19    0.99 
   0   1 -10   16.76    1.25 
   0  -1  10   14.42    1.24 
  -1   1 -10   18.26    1.49 
   1  -1  10   20.19    1.51 
  -2   1 -10    0.73    0.21 
   2  -1  10    0.50    0.17 
  -3   1 -10    9.81    0.98 
   3  -1  10   12.41    1.01 
   3  -1  10   12.37    1.01 
   4  -1  10    2.14    0.39 
  -7   0  10    2.66    0.46 
  -6   0  10    2.93    0.47 
  -5   0  10    0.61    0.23 
  -4   0  10    8.10    0.78 
  -3   0  10    0.08    0.15 
   2   0 -10   40.35    3.00 
   1   0 -10   -0.19    0.09 
  -1   0  10   -0.02    0.15 
   0   0 -10    1.96    0.31 
   0   0  10    2.56    0.38 
  -1   0 -10    0.05    0.13 
   1   0  10    0.32    0.16 
  -2   0 -10    2.82    0.38 
   2   0  10    1.85    0.34 
  -3   0 -10    4.80    0.53 
   3   0  10    4.74    0.59 
   4   0  10    0.85    0.28 
  -7   1  10    0.31    0.24 
  -6   1  10    1.29    0.32 
  -5   1  10   18.81    1.55 
  -4   1  10    1.12    0.28 
  -3   1  10   39.66    2.99 
   2  -1 -10   38.13    2.85 
   1  -1 -10    8.16    0.73 
   0  -1 -10    1.22    0.25 
   0   1  10    1.50    0.31 
  -1  -1 -10    0.17    0.13 
   1   1  10    0.26    0.15 
  -2  -1 -10    1.71    0.32 
   2   1  10    2.29    0.39 
  -3  -1 -10    0.14    0.19 
   3   1  10    0.41    0.20 
  -7   2  10    7.60    0.80 
  -6   2  10    0.55    0.24 
  -5   2  10    0.55    0.23 
   4  -2 -10   10.77    0.95 
   3  -2 -10   36.91    2.78 
   2  -2 -10    7.58    0.70 
   1  -2 -10    1.72    0.29 
   0  -2 -10    6.79    0.64 
  -1  -2 -10    0.91    0.22 
  -2  -2 -10   -0.08    0.13 
  -2  -2 -10   -0.07    0.13 
  -3  -2 -10    0.28    0.18 
  -6   3  10    2.81    0.47 
   5  -3 -10   -0.07    0.14 
   4  -3 -10    8.39    0.78 
   3  -3 -10    5.31    0.56 
   2  -3 -10    1.00    0.24 
   1  -3 -10    2.75    0.38 
   0  -3 -10    0.25    0.15 
  -1  -3 -10    0.30    0.15 
  -2  -3 -10    0.51    0.19 
   6  -4 -10    0.16    0.22 
   5  -4 -10    0.09    0.18 
   4  -4 -10    4.09    0.51 
   3  -4 -10    5.90    0.59 
   2  -4 -10    1.30    0.27 
   1  -4 -10    9.19    0.83 
   0  -4 -10    3.54    0.47 
  -1  -4 -10    0.38    0.20 
  -2  -4 -10    0.56    0.23 
   6  -5 -10    1.04    0.32 
   5  -5 -10    0.09    0.18 
   4  -5 -10    3.49    0.47 
   3  -5 -10    0.24    0.15 
   2  -5 -10    6.74    0.67 
   2  -5 -10    6.73    0.67 
   1  -5 -10    4.60    0.56 
   0  -5 -10    0.82    0.24 
  -1  -5 -10    1.48    0.34 
  -2  -5 -10    1.47    0.37 
   5  -6 -10    0.13    0.20 
   4  -6 -10    3.06    0.45 
   3  -6 -10    2.21    0.38 
   2  -6 -10    3.33    0.47 
   2  -6 -10    3.33    0.47 
   1  -6 -10    0.38    0.25 
   0  -6 -10    9.25    0.88 
  -1  -6 -10    3.80    0.58 
   5  -7 -10    0.20    0.22 
   3  -7 -10   -0.03    0.17 
   3  -7 -10   -0.03    0.17 
   2  -7 -10   -0.13    0.17 
   1  -7 -10   15.98    1.39 
   0  -7 -10    4.32    0.62 
   3  -8 -10    0.17    0.21 
   2  -8 -10    0.22    0.19 
   1  -8 -10    3.93    0.58 
  -2 -12  11    0.42    0.27 
   0 -12  11    1.54    0.37 
   1 -12  11    1.30    0.37 
   2 -12  11    3.56    0.59 
  -3 -11  11    0.82    0.33 
  -2 -11  11    2.69    0.51 
  -1 -11  11    0.45    0.24 
  -1 -11  11    0.43    0.27 
   0 -11  11    1.04    0.31 
   1 -11  11    5.54    0.69 
   2 -11  11    0.13    0.23 
   3 -11  11    0.02    0.25 
  -3 -10  11    6.72    0.77 
  -2 -10  11    0.40    0.22 
  -1 -10  11   -0.07    0.16 
  -1 -10  11    0.26    0.20 
   0 -10  11    0.07    0.16 
   1 -10  11    0.22    0.20 
   2 -10  11    2.18    0.44 
   3 -10  11    0.05    0.23 
  -4  -9  11    4.03    0.64 
  -3  -9  11    1.54    0.36 
  -2  -9  11    1.12    0.34 
  -1  -9  11    4.74    0.53 
  -1  -9  11    5.00    0.55 
   0  -9  11    2.89    0.40 
   0  -9  11    2.90    0.46 
   1  -9  11    3.12    0.50 
   2  -9  11    0.16    0.23 
   3  -9  11    1.81    0.43 
   4  -9  11    2.91    0.54 
  -5  -8  11    0.05    0.32 
  -4  -8  11    7.26    0.81 
  -3  -8  11    0.05    0.19 
  -2  -8  11    5.11    0.57 
  -2  -8  11    5.09    0.53 
  -1  -8  11   15.02    1.28 
  -1  -8  11   15.91    1.28 
   0  -8  11   -0.02    0.13 
   0  -8  11   -0.10    0.14 
   1  -8  11    0.04    0.17 
   2  -8  11    0.47    0.24 
   3  -8  11    0.80    0.30 
   4  -8  11    0.27    0.26 
  -5  -7  11    0.33    0.29 
  -4  -7  11    1.41    0.36 
  -3  -7  11    7.53    0.78 
  -2  -7  11    2.30    0.35 
  -2  -7  11    2.64    0.41 
  -1  -7  11    6.76    0.66 
  -1  -7  11    6.99    0.67 
   0  -7  11    0.41    0.19 
   0  -7  11    0.37    0.16 
   1  -7  11    3.70    0.52 
   2  -7  11    1.73    0.37 
   3  -7  11    0.97    0.32 
   4  -7  11    2.60    0.51 
  -5  -6  11    5.28    0.74 
  -4  -6  11    6.83    0.75 
  -3  -6  11   -0.03    0.14 
  -2  -6  11    5.93    0.63 
  -2  -6  11    6.56    0.59 
  -1  -6  11    2.76    0.40 
  -1  -6  11    2.93    0.40 
   0  -6  11    4.79    0.51 
   0  -6  11    4.12    0.45 
  -1   6 -11    3.39    0.38 
   1  -6  11    2.91    0.46 
   2  -6  11   -0.02    0.15 
   3  -6  11    2.58    0.47 
   4  -6  11    4.17    0.62 
  -6  -5  11    0.73    0.34 
  -5  -5  11    1.83    0.42 
  -4  -5  11    1.72    0.37 
  -3  -5  11    4.89    0.50 
  -3  -5  11    4.95    0.56 
  -2  -5  11   11.36    0.98 
  -2  -5  11   12.44    1.04 
  -1  -5  11    4.71    0.58 
  -1  -5  11    7.12    0.61 
  -1  -5  11    7.11    0.61 
   0  -5  11   45.50    3.33 
   0  -5  11   44.49    3.31 
  -1   5 -11    0.58    0.18 
   1  -5  11    0.27    0.19 
   2  -5  11    3.65    0.52 
   3  -5  11    0.84    0.29 
   4  -5  11   -0.04    0.22 
  -6  -4  11   -0.21    0.19 
  -5  -4  11    0.01    0.19 
  -4  -4  11    4.28    0.59 
  -3  -4  11    7.76    0.75 
  -3  -4  11    7.58    0.70 
  -2  -4  11   18.08    1.41 
  -2  -4  11   16.32    1.34 
  -1  -4  11   67.95    4.72 
  -1  -4  11   61.07    4.62 
   0   4 -11    2.36    0.34 
   0  -4  11    3.64    0.43 
  -1   4 -11    0.96    0.22 
   1  -4  11    0.77    0.23 
   2  -4  11    0.60    0.21 
   3  -4  11   -0.19    0.14 
   4  -4  11    0.42    0.23 
  -6  -3  11    1.49    0.39 
  -5  -3  11    0.18    0.20 
  -4  -3  11    0.93    0.27 
  -3  -3  11   23.26    1.83 
  -3  -3  11   22.46    1.76 
  -2  -3  11    1.29    0.27 
  -2  -3  11    1.18    0.27 
  -1  -3  11   18.09    1.33 
  -1  -3  11   14.56    1.28 
   0   3 -11    3.50    0.39 
   0  -3  11    2.95    0.42 
  -1   3 -11   12.73    1.14 
   1  -3  11   16.42    1.19 
  -2   3 -11    1.94    0.33 
   2  -3  11    2.79    0.39 
   2  -3  11    2.80    0.39 
   3  -3  11    0.35    0.23 
   4  -3  11   -0.01    0.25 
  -6  -2  11    0.91    0.30 
  -5  -2  11    0.80    0.27 
  -4  -2  11    3.11    0.48 
  -3  -2  11    2.49    0.41 
  -2  -2  11    1.14    0.27 
  -2  -2  11    1.06    0.25 
   1   2 -11    0.39    0.18 
  -1  -2  11    0.21    0.17 
   0   2 -11   44.32    3.64 
   0  -2  11   56.03    3.65 
  -1   2 -11   -0.12    0.13 
   1  -2  11    0.03    0.12 
  -2   2 -11    1.42    0.26 
   2  -2  11    0.99    0.25 
   4  -2  11    0.51    0.23 
  -6  -1  11    0.19    0.20 
  -5  -1  11   -0.01    0.17 
  -4  -1  11    0.04    0.16 
  -3  -1  11    2.85    0.43 
  -2  -1  11   13.38    1.18 
  -2  -1  11   15.35    1.21 
   1   1 -11   16.99    1.39 
  -1  -1  11   17.92    1.43 
   0   1 -11    3.41    0.42 
   0  -1  11    3.28    0.47 
  -1   1 -11    3.97    0.42 
   1  -1  11    3.14    0.46 
  -2   1 -11    1.80    0.30 
   3  -1  11   10.23    0.95 
   4  -1  11    1.01    0.31 
  -6   0  11    0.08    0.19 
  -5   0  11    1.01    0.29 
  -4   0  11    4.46    0.56 
  -3   0  11   33.12    2.55 
   2   0 -11    2.74    0.40 
   1   0 -11   10.91    1.04 
  -1   0  11   15.68    1.15 
   0   0 -11    5.01    0.50 
   0   0  11    4.38    0.57 
  -1   0 -11    4.62    0.49 
   1   0  11    4.41    0.57 
  -2   0 -11   13.09    1.10 
   2   0  11   12.05    1.11 
  -3   0 -11    6.67    0.70 
   3   0  11    6.62    0.72 
  -6   1  11    2.53    0.45 
  -5   1  11   12.77    1.14 
  -4   1  11    2.64    0.43 
   3  -1 -11    1.10    0.26 
   2  -1 -11    0.89    0.23 
   1  -1 -11    0.17    0.14 
   0  -1 -11    8.94    0.80 
   1   1  11   10.38    0.95 
   1   1  11   10.42    0.95 
  -2  -1 -11    6.98    0.68 
   2   1  11    5.80    0.67 
  -3  -1 -11    0.37    0.21 
   3   1  11   -0.08    0.18 
   3   1  11   -0.08    0.18 
  -6   2  11    2.03    0.40 
  -5   2  11   12.83    1.16 
   4  -2 -11    4.17    0.53 
   3  -2 -11    8.66    0.80 
   2  -2 -11    4.12    0.47 
   1  -2 -11    0.96    0.26 
   0  -2 -11    5.46    0.58 
  -1  -2 -11    1.78    0.33 
  -2  -2 -11    1.81    0.37 
  -3  -2 -11    3.22    0.52 
   6  -3 -11    9.70    0.91 
   5  -3 -11    6.51    0.68 
   4  -3 -11    2.83    0.44 
   3  -3 -11    4.61    0.51 
   2  -3 -11    0.33    0.17 
   1  -3 -11    0.43    0.19 
   0  -3 -11    1.86    0.36 
  -1  -3 -11    0.76    0.23 
  -2  -3 -11    2.09    0.40 
   6  -4 -11    2.98    0.49 
   5  -4 -11    0.62    0.27 
   4  -4 -11    1.82    0.35 
   3  -4 -11    0.07    0.15 
   2  -4 -11    0.00    0.15 
   1  -4 -11    0.46    0.20 
   0  -4 -11    0.05    0.15 
  -1  -4 -11    2.62    0.44 
  -2  -4 -11    1.71    0.40 
   5  -5 -11    0.61    0.28 
   4  -5 -11    0.14    0.19 
   3  -5 -11    0.73    0.26 
   2  -5 -11    6.52    0.67 
   1  -5 -11    0.36    0.22 
   0  -5 -11    0.18    0.17 
  -1  -5 -11    0.14    0.20 
   5  -6 -11    0.80    0.34 
   4  -6 -11    6.89    0.73 
   3  -6 -11    2.87    0.48 
   2  -6 -11    0.57    0.32 
   1  -6 -11    0.60    0.29 
   0  -6 -11    0.19    0.21 
   3  -7 -11    0.65    0.35 
   2  -7 -11   -0.04    0.23 
   2  -7 -11   -0.04    0.23 
   1  -7 -11    1.12    0.38 
   0 -12  12    1.11    0.34 
  -2 -11  12    0.02    0.23 
  -1 -11  12   10.35    0.98 
   0 -11  12    8.49    0.86 
   1 -11  12   11.07    1.06 
   2 -11  12    5.44    0.75 
  -3 -10  12    0.17    0.28 
  -2 -10  12    3.79    0.57 
  -1 -10  12   13.89    1.24 
  -1 -10  12   14.76    1.24 
   0 -10  12   10.55    0.99 
   1 -10  12    5.17    0.68 
   2 -10  12    4.30    0.63 
  -4  -9  12    1.16    0.39 
  -3  -9  12   -0.04    0.19 
  -2  -9  12    5.88    0.66 
  -1  -9  12    1.91    0.37 
  -1  -9  12    1.95    0.37 
   0  -9  12    5.36    0.66 
   1  -9  12    9.04    0.90 
   2  -9  12    1.25    0.35 
   3  -9  12    1.40    0.39 
  -4  -8  12    0.70    0.31 
  -3  -8  12    0.49    0.25 
  -2  -8  12    0.01    0.14 
  -2  -8  12    0.12    0.16 
  -1  -8  12   -0.03    0.15 
  -1  -8  12    0.07    0.14 
   0  -8  12   10.77    0.96 
   0  -8  12   11.55    1.02 
   1  -8  12    7.02    0.75 
   2  -8  12    1.96    0.43 
   3  -8  12    2.60    0.50 
  -5  -7  12    0.00    0.22 
  -4  -7  12    0.29    0.25 
  -3  -7  12    0.13    0.19 
  -2  -7  12    0.10    0.13 
  -2  -7  12    0.18    0.16 
  -2  -7  12    0.09    0.13 
  -1  -7  12    0.52    0.20 
  -1  -7  12    0.30    0.17 
   0  -7  12    5.77    0.61 
   0  -7  12    5.34    0.56 
   1  -7  12    1.63    0.36 
   2  -7  12   -0.21    0.18 
   3  -7  12    0.08    0.24 
  -5  -6  12    4.62    0.69 
  -4  -6  12    2.99    0.51 
  -3  -6  12   -0.04    0.18 
  -2  -6  12    5.48    0.59 
  -2  -6  12    5.50    0.55 
  -1  -6  12    1.22    0.27 
  -1  -6  12    1.21    0.27 
  -1  -6  12    1.20    0.28 
   0  -6  12    0.07    0.12 
   0  -6  12    0.24    0.18 
   1  -6  12    0.81    0.26 
   2  -6  12    0.46    0.25 
   3  -6  12   -0.16    0.18 
  -5  -5  12    9.00    0.94 
  -4  -5  12    5.27    0.68 
  -3  -5  12    3.96    0.54 
  -3  -5  12    3.76    0.47 
  -2  -5  12   17.96    1.42 
  -2  -5  12   15.94    1.34 
  -1  -5  12    1.44    0.31 
  -1  -5  12    1.49    0.29 
   0   5 -12    0.92    0.24 
   0  -5  12    1.40    0.29 
   0  -5  12    1.43    0.29 
  -1   5 -12    0.25    0.14 
   1  -5  12    0.02    0.14 
   2  -5  12    1.20    0.32 
   3  -5  12    1.95    0.39 
  -6  -4  12    3.75    0.63 
  -5  -4  12    8.79    0.92 
  -4  -4  12    6.20    0.69 
  -3  -4  12   13.35    1.17 
  -3  -4  12   13.08    1.12 
  -2  -4  12    8.84    0.82 
  -2  -4  12    8.49    0.78 
  -1  -4  12    3.34    0.45 
  -1  -4  12    3.89    0.47 
   0   4 -12    7.70    0.69 
   0  -4  12    6.58    0.69 
  -1   4 -12    0.41    0.17 
   1  -4  12    0.33    0.18 
   2  -4  12    0.90    0.25 
   3  -4  12   10.66    0.98 
  -6  -3  12    1.67    0.42 
  -5  -3  12    7.43    0.81 
  -4  -3  12    5.28    0.67 
  -3  -3  12   28.19    2.61 
  -3  -3  12   40.90    2.62 
  -2  -3  12    0.33    0.17 
  -2  -3  12    0.25    0.18 
   1   3 -12    0.21    0.17 
  -1  -3  12   -0.02    0.18 
   0   3 -12    0.65    0.21 
   0  -3  12    0.46    0.19 
  -1   3 -12    0.39    0.15 
   1  -3  12    0.50    0.19 
   2  -3  12   12.74    1.11 
   3  -3  12    6.58    0.71 
  -6  -2  12    0.84    0.31 
  -5  -2  12    1.46    0.37 
  -4  -2  12   17.51    1.50 
  -3  -2  12   -0.11    0.14 
  -2  -2  12   14.51    1.26 
  -2  -2  12   15.48    1.27 
   1   2 -12    0.05    0.14 
  -1  -2  12    0.07    0.17 
   0   2 -12    2.57    0.36 
   0  -2  12    1.83    0.35 
  -1   2 -12    2.30    0.35 
   1  -2  12    2.12    0.36 
  -2   2 -12    3.97    0.51 
   2  -2  12    4.20    0.56 
   3  -2  12    0.99    0.32 
  -6  -1  12    0.16    0.24 
  -5  -1  12    1.62    0.38 
  -4  -1  12    2.98    0.48 
  -3  -1  12    2.33    0.40 
   2   1 -12    0.07    0.13 
   1   1 -12    1.44    0.29 
  -1  -1  12    1.24    0.32 
   0   1 -12    0.23    0.16 
   0  -1  12    0.13    0.16 
  -1   1 -12    0.57    0.21 
   1  -1  12    0.66    0.24 
  -2   1 -12    2.18    0.36 
   2  -1  12    2.11    0.42 
   3  -1  12    0.06    0.20 
  -6   0  12    0.23    0.24 
  -5   0  12    1.50    0.35 
  -4   0  12    0.33    0.22 
   2   0 -12    9.02    0.83 
   1   0 -12    3.17    0.43 
   0   0 -12    0.21    0.16 
   0   0  12    0.17    0.17 
  -1   0 -12    4.56    0.52 
   1   0  12    5.25    0.65 
  -2   0 -12    0.09    0.15 
   2   0  12   -0.02    0.21 
   3   0  12    0.75    0.32 
  -6   1  12   -0.17    0.18 
  -5   1  12    1.71    0.38 
   4  -1 -12    5.64    0.61 
   3  -1 -12    6.30    0.65 
   2  -1 -12    0.90    0.24 
   0  -1 -12    0.12    0.14 
  -1  -1 -12    0.98    0.26 
  -2  -1 -12   -0.13    0.19 
   6  -2 -12    0.02    0.26 
   5  -2 -12    0.47    0.25 
   4  -2 -12   -0.14    0.17 
   3  -2 -12    0.01    0.18 
   2  -2 -12    7.65    0.74 
   1  -2 -12    5.10    0.55 
   0  -2 -12    1.09    0.27 
  -1  -2 -12    0.00    0.18 
  -2  -2 -12    0.32    0.28 
   5  -3 -12    0.14    0.22 
   4  -3 -12    0.14    0.20 
   3  -3 -12    0.90    0.27 
   2  -3 -12   11.07    1.01 
   1  -3 -12    6.83    0.70 
   0  -3 -12    1.52    0.34 
  -1  -3 -12    4.91    0.61 
   5  -4 -12    0.18    0.23 
   4  -4 -12    0.15    0.20 
   3  -4 -12    8.19    0.81 
   3  -4 -12    8.21    0.81 
   2  -4 -12    2.43    0.42 
   1  -4 -12    4.77    0.59 
   0  -4 -12    9.24    0.90 
   4  -5 -12    1.49    0.40 
   3  -5 -12    0.69    0.26 
   2  -5 -12    1.21    0.31 
   0  -5 -12    2.88    0.48 
   3  -6 -12    0.80    0.29 
   2  -6 -12    2.69    0.47 
   0 -11  13    0.41    0.28 
  -2 -10  13    9.04    0.92 
  -1 -10  13    0.71    0.31 
   0 -10  13    0.11    0.24 
   1 -10  13   -0.02    0.23 
  -3  -9  13    4.99    0.69 
  -2  -9  13    6.01    0.73 
  -1  -9  13    0.04    0.20 
  -1  -9  13   -0.03    0.18 
   0  -9  13    1.00    0.32 
   1  -9  13    1.76    0.42 
   2  -9  13   -0.11    0.22 
  -4  -8  13    2.36    0.49 
  -3  -8  13    1.19    0.35 
  -2  -8  13    2.15    0.36 
  -2  -8  13    1.37    0.34 
  -1  -8  13    6.29    0.66 
  -1  -8  13    6.20    0.66 
   0  -8  13    5.14    0.65 
   1  -8  13    1.35    0.36 
   2  -8  13    0.06    0.24 
  -4  -7  13    0.43    0.28 
  -3  -7  13    6.34    0.72 
  -2  -7  13    7.62    0.74 
  -2  -7  13    8.27    0.81 
  -1  -7  13    9.06    0.97 
  -1  -7  13   12.39    1.00 
  -1  -7  13   12.32    1.00 
   0  -7  13    5.82    0.64 
   1  -7  13    0.78    0.29 
   2  -7  13    0.72    0.30 
  -4  -6  13    8.16    0.88 
  -3  -6  13    9.97    0.97 
  -2  -6  13    4.31    0.57 
  -2  -6  13    4.30    0.52 
  -1  -6  13   10.66    0.87 
  -1  -6  13    7.93    0.83 
   0   6 -13    2.81    0.41 
   0  -6  13    3.14    0.46 
   0  -6  13    3.11    0.47 
   1  -6  13   -0.13    0.15 
   2  -6  13    2.12    0.42 
  -5  -5  13    0.88    0.34 
  -4  -5  13    6.66    0.76 
  -3  -5  13    3.83    0.51 
  -3  -5  13    3.67    0.55 
  -2  -5  13    0.64    0.26 
  -2  -5  13    0.53    0.22 
  -1  -5  13    0.27    0.17 
  -1  -5  13    0.29    0.18 
   0   5 -13   -0.06    0.15 
   0  -5  13   -0.10    0.20 
   1  -5  13    3.02    0.46 
   3  -5  13    0.28    0.21 
  -5  -4  13    0.32    0.27 
  -4  -4  13    1.18    0.34 
  -3  -4  13    0.11    0.21 
  -3  -4  13    0.17    0.18 
  -2  -4  13    0.08    0.15 
  -2  -4  13   -0.10    0.14 
  -1  -4  13    0.18    0.18 
   0   4 -13    9.69    0.82 
   0  -4  13    7.82    0.82 
  -1   4 -13    0.11    0.14 
   1  -4  13    0.12    0.17 
   2  -4  13    0.64    0.26 
  -5  -3  13    2.55    0.49 
  -4  -3  13    0.10    0.24 
  -3  -3  13    0.06    0.17 
  -2  -3  13    0.25    0.17 
  -2  -3  13    0.50    0.22 
   1   3 -13   10.77    0.95 
  -1  -3  13   10.25    0.96 
   0   3 -13    5.88    0.62 
   0  -3  13    6.82    0.69 
  -1   3 -13    0.43    0.22 
   1  -3  13    0.34    0.23 
   2  -3  13    2.54    0.44 
  -5  -2  13    0.48    0.29 
  -4  -2  13    1.82    0.40 
  -3  -2  13    4.79    0.61 
   2   2 -13    1.69    0.33 
  -2  -2  13    1.30    0.32 
   1   2 -13    8.78    0.81 
  -1  -2  13    8.44    0.85 
   0   2 -13    5.72    0.59 
   0  -2  13    5.78    0.65 
   1  -2  13    4.03    0.57 
   2  -2  13    5.48    0.69 
  -5  -1  13    2.70    0.49 
  -4  -1  13    0.22    0.22 
   3   1 -13    8.79    0.85 
  -3  -1  13    8.62    0.87 
   2   1 -13    0.21    0.16 
   1   1 -13    0.57    0.21 
  -1  -1  13    0.59    0.27 
   0   1 -13    3.46    0.46 
   0  -1  13    3.44    0.55 
  -1   1 -13    4.31    0.54 
   1  -1  13    4.49    0.63 
  -2   1 -13    3.50    0.49 
   2  -1  13    2.34    0.49 
  -5   0  13    2.15    0.45 
   3   0 -13   12.16    1.08 
   2   0 -13    0.33    0.19 
   1   0 -13    2.43    0.39 
   0   0 -13    4.33    0.53 
  -1   0 -13    1.12    0.28 
  -1   0 -13    1.13    0.28 
   1   0  13    1.27    0.36 
  -2   0 -13    0.56    0.23 
   2   0  13    0.68    0.28 
   5  -1 -13    0.84    0.30 
   4  -1 -13    6.98    0.73 
   3  -1 -13    0.86    0.29 
   2  -1 -13    2.98    0.45 
   0  -1 -13    1.79    0.37 
  -1  -1 -13    1.96    0.37 
   5  -2 -13    0.03    0.20 
   4  -2 -13    1.52    0.35 
   3  -2 -13    2.35    0.43 
   2  -2 -13    2.11    0.39 
   1  -2 -13    0.23    0.18 
   0  -2 -13    0.44    0.22 
  -1  -2 -13    3.71    0.53 
   4  -3 -13    0.25    0.23 
   3  -3 -13    0.19    0.21 
   2  -3 -13    1.16    0.31 
   1  -3 -13    2.28    0.40 
   3  -4 -13    2.68    0.45 
   2  -4 -13    0.75    0.29 
   2  -4 -13    0.77    0.29 
   1  -4 -13    2.17    0.47 
  -2  -9  14   -0.01    0.22 
  -1  -9  14    3.00    0.49 
  -1  -9  14    2.34    0.43 
   0  -9  14    3.18    0.52 
  -3  -8  14    0.30    0.26 
  -2  -8  14    0.28    0.23 
  -2  -8  14    0.15    0.20 
  -1  -8  14   -0.12    0.16 
  -1  -8  14   -0.01    0.19 
   0  -8  14    1.10    0.32 
   1  -8  14    0.01    0.21 
  -3  -7  14    5.09    0.69 
  -2  -7  14    1.52    0.33 
  -2  -7  14    2.11    0.42 
  -1  -7  14    0.23    0.20 
  -1  -7  14    0.42    0.28 
   0  -7  14    0.05    0.24 
   1  -7  14    1.13    0.34 
  -4  -6  14    7.10    0.81 
  -3  -6  14    2.41    0.47 
  -2  -6  14    7.58    0.73 
  -2  -6  14    6.36    0.73 
  -1  -6  14    1.52    0.34 
  -1  -6  14    1.70    0.35 
   0   6 -14    0.10    0.18 
   0  -6  14    0.05    0.26 
   1  -6  14    0.23    0.18 
   1  -6  14    0.24    0.18 
  -4  -5  14    3.11    0.54 
  -3  -5  14    7.15    0.75 
  -3  -5  14    7.92    0.82 
  -2  -5  14    3.40    0.50 
  -2  -5  14    2.80    0.47 
  -1  -5  14    1.60    0.37 
   0   5 -14    0.16    0.16 
   0  -5  14    0.16    0.18 
   1  -5  14    0.64    0.25 
  -4  -4  14    7.05    0.81 
  -3  -4  14    1.03    0.33 
  -3  -4  14    1.57    0.36 
  -2  -4  14    3.59    0.54 
   1   4 -14    4.57    0.54 
  -1  -4  14    3.23    0.53 
   0   4 -14    0.11    0.14 
   0  -4  14    0.25    0.22 
   1  -4  14    2.71    0.46 
  -4  -3  14    4.01    0.61 
  -3  -3  14    3.50    0.54 
   2   3 -14    2.39    0.39 
  -2  -3  14    2.55    0.45 
   1   3 -14    0.75    0.24 
  -1  -3  14    0.35    0.24 
   0   3 -14    0.34    0.18 
   0  -3  14    0.83    0.28 
  -1   3 -14    0.30    0.18 
   1  -3  14    0.36    0.23 
  -4  -2  14    1.05    0.33 
  -3  -2  14    9.01    0.92 
   2   2 -14    0.04    0.15 
   1   2 -14    1.24    0.29 
  -1  -2  14    1.44    0.36 
   0   2 -14    0.11    0.15 
   0  -2  14    0.04    0.19 
  -1   2 -14    0.35    0.22 
  -1   2 -14    0.35    0.22 
   1  -2  14    0.37    0.25 
  -4  -1  14    4.74    0.66 
  -4  -1  14    4.70    0.66 
   3   1 -14    1.71    0.40 
   2   1 -14    3.01    0.46 
   1   1 -14    2.64    0.42 
   0   1 -14    0.22    0.17 
   0  -1  14    0.40    0.27 
  -1   1 -14    0.17    0.19 
   1  -1  14    0.40    0.27 
   4   0 -14    0.39    0.31 
   3   0 -14    0.07    0.19 
   2   0 -14    1.47    0.33 
   1   0 -14    0.09    0.15 
   0   0 -14    0.43    0.21 
   4  -1 -14    0.08    0.24 
   3  -1 -14    0.90    0.30 
   2  -1 -14    0.28    0.20 
   1  -1 -14    0.18    0.20 
   0  -1 -14    0.75    0.25 
   3  -2 -14    0.85    0.31 
   2  -2 -14    0.10    0.26 
   1  -2 -14    4.19    0.58 
  -1  -7  15    0.74    0.28 
  -2  -6  15   -0.01    0.20 
  -2  -6  15    0.20    0.21 
   1   6 -15    2.64    0.43 
  -1  -6  15    3.51    0.53 
   0  -6  15    1.69    0.38 
  -3  -5  15    0.10    0.23 
  -2  -5  15    2.11    0.42 
  -2  -5  15    2.51    0.46 
   1   5 -15    1.70    0.39 
  -1  -5  15    1.39    0.36 
   0   5 -15    1.36    0.31 
   0  -5  15    1.29    0.40 
  -3  -4  15    1.21    0.35 
   2   4 -15    0.30    0.22 
  -2  -4  15    0.33    0.25 
   1   4 -15    1.47    0.34 
  -1  -4  15    1.15    0.35 
   0   4 -15    0.26    0.20 
   0  -4  15    0.30    0.27 
  -3  -3  15    0.96    0.36 
   2   3 -15    0.04    0.18 
  -2  -3  15    0.22    0.27 
   1   3 -15    0.75    0.27 
  -1  -3  15    1.34    0.39 
   0   3 -15    0.32    0.22 
   0  -3  15    0.89    0.32 
   3   2 -15   -0.01    0.21 
   3   2 -15    0.01    0.21 
   2   2 -15    0.58    0.26 
   1   2 -15    0.23    0.19 
  -1  -2  15    0.25    0.27 
   2   1 -15    0.21    0.21 
   0   0   0    0.00    0.00 
;
_shelx_hkl_checksum              88057
loop_
_space_group_symop_operation_xyz
'x, y, z'
'-x, -y, -z'
loop_
_atom_site_label
_atom_site_type_symbol
_atom_site_fract_x
_atom_site_fract_y
_atom_site_fract_z
_atom_site_U_iso_or_equiv
_atom_site_adp_type
_atom_site_occupancy
_atom_site_site_symmetry_order
_atom_site_calc_flag
_atom_site_refinement_flags_posn
_atom_site_refinement_flags_adp
S1 S 1.05750(9) 0.47066(5) 0.72153(5) 0.0452(3) Uani 1 1 d . .
N1 N 0.9254(3) 0.38942(17) 0.58047(16) 0.0427(5) Uani 1 1 d . .
O1 O 0.4787(2) 0.18017(15) 0.48756(15) 0.0497(4) Uani 1 1 d . .
O2 O 1.2901(3) 0.47123(19) 0.73317(17) 0.0635(5) Uani 1 1 d . .
O3 O 0.9890(3) 0.58671(15) 0.74464(16) 0.0609(5) Uani 1 1 d . .
C1 C 0.6900(4) 0.3972(2) 0.5320(2) 0.0471(5) Uani 1 1 d . .
H1A H 0.6882 0.4658 0.4956 0.056 Uiso 1 1 calc R U
H1B H 0.6107 0.4096 0.5971 0.056 Uiso 1 1 calc R U
C2 C 0.9593(4) 0.2619(2) 0.5278(2) 0.0472(5) Uani 1 1 d . .
H2A H 0.9318 0.2088 0.5801 0.057 Uiso 1 1 calc R U
H2B H 1.1112 0.2664 0.5168 0.057 Uiso 1 1 calc R U
C3 C 0.7840(3) 0.2129(2) 0.40384(19) 0.0410(5) Uani 1 1 d . .
H3 H 0.8396 0.2401 0.3387 0.049 Uiso 1 1 calc R U
C4 C 0.5868(3) 0.2721(2) 0.43633(19) 0.0417(5) Uani 1 1 d . .
C5 C 0.4114(4) 0.2501(2) 0.3180(2) 0.0553(6) Uani 1 1 d . .
H5 H 0.3771 0.3099 0.2795 0.066 Uiso 1 1 calc R U
C6 C 0.3168(4) 0.1282(3) 0.2808(3) 0.0634(7) Uani 1 1 d . .
H6 H 0.2033 0.0838 0.2094 0.076 Uiso 1 1 calc R U
C7 C 0.4299(4) 0.0746(2) 0.3775(2) 0.0536(6) Uani 1 1 d . .
H7 H 0.3426 -0.0052 0.3812 0.064 Uiso 1 1 calc R U
C8 C 0.6670(4) 0.0744(2) 0.3616(2) 0.0472(5) Uani 1 1 d . .
C9 C 0.7478(5) -0.0251(3) 0.3270(3) 0.0698(8) Uani 1 1 d . .
H9A H 0.8994 -0.0151 0.3263 0.084 Uiso 1 1 calc R U
H9B H 0.6534 -0.1057 0.3031 0.084 Uiso 1 1 calc R U
C10 C 0.9603(4) 0.3870(2) 0.81780(19) 0.0435(5) Uani 1 1 d . .
C11 C 1.0632(5) 0.2942(2) 0.8433(2) 0.0562(6) Uani 1 1 d . .
H11 H 1.1877 0.2794 0.8134 0.067 Uiso 1 1 calc R U
C12 C 0.9798(6) 0.2237(3) 0.9134(3) 0.0732(8) Uani 1 1 d . .
H12 H 1.0498 0.1616 0.9307 0.088 Uiso 1 1 calc R U
C13 C 0.7962(6) 0.2432(3) 0.9581(2) 0.0742(9) Uani 1 1 d . .
C14 C 0.6980(5) 0.3379(3) 0.9337(2) 0.0732(9) Uani 1 1 d . .
H14 H 0.5754 0.3534 0.9652 0.088 Uiso 1 1 calc R U
C15 C 0.7770(4) 0.4104(3) 0.8634(2) 0.0559(6) Uani 1 1 d . .
H15 H 0.7084 0.4734 0.8473 0.067 Uiso 1 1 calc R U
C16 C 0.7054(9) 0.1633(4) 1.0336(3) 0.1261(18) Uani 1 1 d . .
H16A H 0.6343 0.0790 0.9807 0.189 Uiso 1 1 calc R U
H16B H 0.5966 0.1994 1.0703 0.189 Uiso 1 1 calc R U
H16C H 0.8277 0.1611 1.0976 0.189 Uiso 1 1 calc R U
loop_
_atom_site_aniso_label
_atom_site_aniso_U_11
_atom_site_aniso_U_22
_atom_site_aniso_U_33
_atom_site_aniso_U_23
_atom_site_aniso_U_13
_atom_site_aniso_U_12
S1 0.0453(4) 0.0388(4) 0.0486(4) 0.0143(3) 0.0111(3) 0.0017(2)
N1 0.0421(9) 0.0431(10) 0.0445(10) 0.0141(8) 0.0135(8) 0.0096(8)
O1 0.0456(8) 0.0539(10) 0.0602(10) 0.0254(8) 0.0269(7) 0.0116(7)
O2 0.0408(9) 0.0725(12) 0.0706(12) 0.0231(10) 0.0123(8) -0.0033(8)
O3 0.0825(13) 0.0375(9) 0.0596(10) 0.0136(8) 0.0150(9) 0.0108(8)
C1 0.0488(12) 0.0458(12) 0.0499(12) 0.0145(10) 0.0140(9) 0.0177(10)
C2 0.0405(11) 0.0474(13) 0.0547(13) 0.0124(10) 0.0146(9) 0.0142(9)
C3 0.0400(10) 0.0423(11) 0.0438(11) 0.0134(9) 0.0188(9) 0.0079(9)
C4 0.0411(11) 0.0438(11) 0.0474(11) 0.0204(9) 0.0164(9) 0.0125(9)
C5 0.0517(13) 0.0588(15) 0.0561(13) 0.0199(12) 0.0075(10) 0.0175(11)
C6 0.0464(13) 0.0663(17) 0.0664(16) 0.0132(13) 0.0038(11) 0.0073(12)
C7 0.0459(12) 0.0463(13) 0.0685(15) 0.0190(11) 0.0198(11) 0.0025(10)
C8 0.0465(12) 0.0453(12) 0.0489(12) 0.0135(10) 0.0151(9) 0.0067(10)
C9 0.0648(16) 0.0465(14) 0.096(2) 0.0106(14) 0.0299(15) 0.0134(12)
C10 0.0414(11) 0.0448(12) 0.0394(10) 0.0119(9) 0.0071(8) 0.0027(9)
C11 0.0662(15) 0.0480(13) 0.0545(14) 0.0176(11) 0.0126(11) 0.0135(11)
C12 0.104(2) 0.0496(15) 0.0603(16) 0.0230(13) 0.0121(16) 0.0054(15)
C13 0.098(2) 0.0584(17) 0.0437(13) 0.0124(12) 0.0084(14) -0.0246(16)
C14 0.0599(15) 0.093(2) 0.0493(14) 0.0095(14) 0.0188(12) -0.0141(15)
C15 0.0480(12) 0.0668(16) 0.0486(13) 0.0122(12) 0.0118(10) 0.0107(11)
C16 0.185(4) 0.094(3) 0.067(2) 0.0244(19) 0.034(2) -0.052(3)
loop_
_atom_type_symbol
_atom_type_description
_atom_type_scat_dispersion_real
_atom_type_scat_dispersion_imag
_atom_type_scat_source
C C 0.0033 0.0016 'International Tables Vol C Tables 4.2.6.8 and 6.1.1.4'
H H 0.0000 0.0000 'International Tables Vol C Tables 4.2.6.8 and 6.1.1.4'
N N 0.0061 0.0033 'International Tables Vol C Tables 4.2.6.8 and 6.1.1.4'
O O 0.0106 0.0060 'International Tables Vol C Tables 4.2.6.8 and 6.1.1.4'
S S 0.1246 0.1234 'International Tables Vol C Tables 4.2.6.8 and 6.1.1.4'
loop_
_geom_angle_atom_site_label_1
_geom_angle_atom_site_label_2
_geom_angle_atom_site_label_3
_geom_angle
O2 S1 O3 120.05(12)
O2 S1 N1 106.66(10)
O3 S1 N1 106.36(10)
O2 S1 C10 107.51(11)
O3 S1 C10 108.54(11)
N1 S1 C10 107.06(10)
C2 N1 C1 111.67(16)
C2 N1 S1 119.77(15)
C1 N1 S1 118.77(14)
C7 O1 C4 95.49(15)
N1 C1 C4 103.35(16)
N1 C1 H1A 111.1
C4 C1 H1A 111.1
N1 C1 H1B 111.1
C4 C1 H1B 111.1
H1A C1 H1B 109.1
N1 C2 C3 102.72(17)
N1 C2 H2A 111.2
C3 C2 H2A 111.2
N1 C2 H2B 111.2
C3 C2 H2B 111.2
H2A C2 H2B 109.1
C8 C3 C2 116.72(19)
C8 C3 C4 100.29(16)
C2 C3 C4 101.48(16)
C8 C3 H3 112.4
C2 C3 H3 112.4
C4 C3 H3 112.4
O1 C4 C1 111.79(18)
O1 C4 C5 101.29(17)
C1 C4 C5 125.00(19)
O1 C4 C3 100.13(15)
C1 C4 C3 107.41(16)
C5 C4 C3 108.43(17)
C6 C5 C4 105.3(2)
C6 C5 H5 127.4
C4 C5 H5 127.4
C5 C6 C7 106.3(2)
C5 C6 H6 126.9
C7 C6 H6 126.9
O1 C7 C6 101.0(2)
O1 C7 C8 100.50(17)
C6 C7 C8 106.8(2)
O1 C7 H7 115.5
C6 C7 H7 115.5
C8 C7 H7 115.5
C9 C8 C3 129.9(2)
C9 C8 C7 126.6(2)
C3 C8 C7 103.29(18)
C8 C9 H9A 120.0
C8 C9 H9B 120.0
H9A C9 H9B 120.0
C11 C10 C15 120.5(2)
C11 C10 S1 119.28(17)
C15 C10 S1 120.18(19)
C12 C11 C10 119.5(3)
C12 C11 H11 120.3
C10 C11 H11 120.3
C13 C12 C11 121.5(3)
C13 C12 H12 119.3
C11 C12 H12 119.3
C12 C13 C14 118.3(3)
C12 C13 C16 120.6(4)
C14 C13 C16 121.1(4)
C13 C14 C15 121.8(3)
C13 C14 H14 119.1
C15 C14 H14 119.1
C10 C15 C14 118.5(3)
C10 C15 H15 120.8
C14 C15 H15 120.8
C13 C16 H16A 109.5
C13 C16 H16B 109.5
H16A C16 H16B 109.5
C13 C16 H16C 109.5
H16A C16 H16C 109.5
H16B C16 H16C 109.5
loop_
_geom_bond_atom_site_label_1
_geom_bond_atom_site_label_2
_geom_bond_distance
S1 O2 1.4229(18)
S1 O3 1.4238(18)
S1 N1 1.6173(19)
S1 C10 1.756(2)
N1 C2 1.481(3)
N1 C1 1.486(3)
O1 C7 1.439(3)
O1 C4 1.447(2)
C1 C4 1.493(3)
C1 H1A 0.9700
C1 H1B 0.9700
C2 C3 1.521(3)
C2 H2A 0.9700
C2 H2B 0.9700
C3 C8 1.508(3)
C3 C4 1.557(3)
C3 H3 0.9800
C4 C5 1.505(3)
C5 C6 1.316(4)
C5 H5 0.9300
C6 C7 1.514(4)
C6 H6 0.9300
C7 C8 1.520(3)
C7 H7 0.9800
C8 C9 1.311(3)
C9 H9A 0.9300
C9 H9B 0.9300
C10 C11 1.382(3)
C10 C15 1.383(3)
C11 C12 1.378(4)
C11 H11 0.9300
C12 C13 1.370(5)
C12 H12 0.9300
C13 C14 1.382(5)
C13 C16 1.516(4)
C14 C15 1.385(4)
C14 H14 0.9300
C15 H15 0.9300
C16 H16A 0.9600
C16 H16B 0.9600
C16 H16C 0.9600
loop_
_geom_torsion_atom_site_label_1
_geom_torsion_atom_site_label_2
_geom_torsion_atom_site_label_3
_geom_torsion_atom_site_label_4
_geom_torsion
O2 S1 N1 C2 51.20(18)
O3 S1 N1 C2 -179.55(15)
C10 S1 N1 C2 -63.66(17)
O2 S1 N1 C1 -165.72(15)
O3 S1 N1 C1 -36.48(18)
C10 S1 N1 C1 79.42(17)
C2 N1 C1 C4 -5.9(2)
S1 N1 C1 C4 -151.77(15)
C1 N1 C2 C3 26.9(2)
S1 N1 C2 C3 172.40(13)
N1 C2 C3 C8 -142.99(18)
N1 C2 C3 C4 -35.15(19)
C7 O1 C4 C1 -173.13(17)
C7 O1 C4 C5 51.66(19)
C7 O1 C4 C3 -59.63(18)
N1 C1 C4 O1 91.50(18)
N1 C1 C4 C5 -146.0(2)
N1 C1 C4 C3 -17.4(2)
C8 C3 C4 O1 36.81(19)
C2 C3 C4 O1 -83.40(19)
C8 C3 C4 C1 153.63(18)
C2 C3 C4 C1 33.4(2)
C8 C3 C4 C5 -68.8(2)
C2 C3 C4 C5 170.99(19)
O1 C4 C5 C6 -33.9(2)
C1 C4 C5 C6 -160.9(2)
C3 C4 C5 C6 70.9(2)
C4 C5 C6 C7 1.3(3)
C4 O1 C7 C6 -50.47(19)
C4 O1 C7 C8 59.12(18)
C5 C6 C7 O1 31.9(3)
C5 C6 C7 C8 -72.7(3)
C2 C3 C8 C9 -68.1(3)
C4 C3 C8 C9 -176.6(3)
C2 C3 C8 C7 107.7(2)
C4 C3 C8 C7 -0.8(2)
O1 C7 C8 C9 140.3(3)
C6 C7 C8 C9 -114.7(3)
O1 C7 C8 C3 -35.6(2)
C6 C7 C8 C3 69.3(2)
O2 S1 C10 C11 -27.7(2)
O3 S1 C10 C11 -158.96(19)
N1 S1 C10 C11 86.6(2)
O2 S1 C10 C15 154.88(19)
O3 S1 C10 C15 23.6(2)
N1 S1 C10 C15 -90.84(19)
C15 C10 C11 C12 0.9(4)
S1 C10 C11 C12 -176.6(2)
C10 C11 C12 C13 0.3(4)
C11 C12 C13 C14 -1.4(4)
C11 C12 C13 C16 179.2(3)
C12 C13 C14 C15 1.5(4)
C16 C13 C14 C15 -179.1(2)
C11 C10 C15 C14 -0.8(3)
S1 C10 C15 C14 176.66(18)
C13 C14 C15 C10 -0.5(4)
