#------------------------------------------------------------------------------
#$Date: 2019-11-23 21:34:59 +0200 (Sat, 23 Nov 2019) $
#$Revision: 235123 $
#$URL: file:///home/coder/svn-repositories/cod/cif/1/55/35/1553548.cif $
#------------------------------------------------------------------------------
#
# This file is available in the Crystallography Open Database (COD),
# http://www.crystallography.net/
#
# All data on this site have been placed in the public domain by the
# contributors.
#
data_1553548
loop_
_publ_author_name
'Wilbuer, J.'
'Grenz, D. C.'
'Schnakenburg, G.'
'Esser, B.'
_publ_section_title
;
 Donor- and acceptor-functionalized dibenzo[a,e]pentalenes: modulation of
 the electronic band gap
;
_journal_issue                   5
_journal_name_full               'Organic Chemistry Frontiers'
_journal_page_first              658
_journal_paper_doi               10.1039/C6QO00487C
_journal_volume                  4
_journal_year                    2017
_chemical_formula_moiety         'C20 H16 Br2'
_chemical_formula_sum            'C20 H16 Br2'
_chemical_formula_weight         416.15
_space_group_crystal_system      monoclinic
_space_group_IT_number           14
_space_group_name_Hall           '-P 2ybc'
_space_group_name_H-M_alt        'P 1 21/c 1'
_atom_sites_solution_hydrogens   geom
_atom_sites_solution_primary     direct
_audit_creation_date             2014-09-04
_audit_creation_method
;
Olex2 1.2
(compiled 2014.07.22 svn.r2960 for OlexSys, GUI svn.r4862)
;
_audit_update_record
;
2016-07-26 deposited with the CCDC.
2016-09-27 downloaded from the CCDC.
;
_cell_angle_alpha                90
_cell_angle_beta                 111.660(10)
_cell_angle_gamma                90
_cell_formula_units_Z            2
_cell_length_a                   6.6723(15)
_cell_length_b                   8.653(2)
_cell_length_c                   15.099(3)
_cell_measurement_reflns_used    7496
_cell_measurement_temperature    123
_cell_measurement_theta_max      30.92
_cell_measurement_theta_min      2.77
_cell_volume                     810.2(3)
_computing_cell_refinement       'SAINT v8.34A (Bruker, 2013)'
_computing_data_reduction        'SAINT v8.34A (Bruker, 2013)'
_computing_molecular_graphics    'Olex2 (Dolomanov et al., 2009)'
_computing_publication_material  'Olex2 (Dolomanov et al., 2009)'
_computing_structure_refinement  'ShelXL (Sheldrick, 2008)'
_computing_structure_solution    'ShelXS (Sheldrick, 2008)'
_diffrn_ambient_temperature      123.15
_diffrn_detector_area_resol_mean 8
_diffrn_measured_fraction_theta_full 0.999
_diffrn_measured_fraction_theta_max 1.000
_diffrn_measurement_device_type  'Bruker X8-KappaApexII'
_diffrn_measurement_method       'fine slicing \w and \f scans'
_diffrn_radiation_monochromator  graphite
_diffrn_radiation_type           MoK\a
_diffrn_radiation_wavelength     0.71073
_diffrn_reflns_av_R_equivalents  0.0682
_diffrn_reflns_av_unetI/netI     0.0400
_diffrn_reflns_Laue_measured_fraction_full 0.999
_diffrn_reflns_Laue_measured_fraction_max 1.000
_diffrn_reflns_limit_h_max       8
_diffrn_reflns_limit_h_min       -8
_diffrn_reflns_limit_k_max       11
_diffrn_reflns_limit_k_min       -11
_diffrn_reflns_limit_l_max       19
_diffrn_reflns_limit_l_min       -19
_diffrn_reflns_number            14546
_diffrn_reflns_point_group_measured_fraction_full 0.999
_diffrn_reflns_point_group_measured_fraction_max 1.000
_diffrn_reflns_theta_full        25.242
_diffrn_reflns_theta_max         27.998
_diffrn_reflns_theta_min         2.766
_diffrn_source                   'sealed tube'
_diffrn_standards_number         0
_exptl_absorpt_coefficient_mu    4.996
_exptl_absorpt_correction_T_max  0.7462
_exptl_absorpt_correction_T_min  0.3613
_exptl_absorpt_correction_type   empirical
_exptl_absorpt_process_details
;
SADABS-2012/1 (Bruker,2012) was used for absorption correction.
wR2(int) was 0.1301 before and 0.0836 after correction.
The Ratio of minimum to maximum transmission is 0.4842.
The \l/2 correction factor is 0.0015.
;
_exptl_crystal_colour            'clear red'
_exptl_crystal_colour_lustre     clear
_exptl_crystal_colour_primary    red
_exptl_crystal_density_diffrn    1.706
_exptl_crystal_description       block
_exptl_crystal_F_000             412
_exptl_crystal_size_max          0.28
_exptl_crystal_size_mid          0.24
_exptl_crystal_size_min          0.12
_refine_diff_density_max         1.163
_refine_diff_density_min         -2.027
_refine_diff_density_rms         0.198
_refine_ls_extinction_method     none
_refine_ls_goodness_of_fit_ref   1.076
_refine_ls_hydrogen_treatment    constr
_refine_ls_matrix_type           full
_refine_ls_number_parameters     101
_refine_ls_number_reflns         1952
_refine_ls_number_restraints     0
_refine_ls_restrained_S_all      1.076
_refine_ls_R_factor_all          0.0845
_refine_ls_R_factor_gt           0.0628
_refine_ls_shift/su_max          0.000
_refine_ls_shift/su_mean         0.000
_refine_ls_structure_factor_coef Fsqd
_refine_ls_weighting_details
;
 w=1/[\s^2^(Fo^2^)+(0.1066P)^2^+2.4968P]
 where P=(Fo^2^+2Fc^2^)/3
;
_refine_ls_weighting_scheme      calc
_refine_ls_wR_factor_gt          0.1605
_refine_ls_wR_factor_ref         0.1831
_reflns_Friedel_coverage         0.000
_reflns_number_gt                1484
_reflns_number_total             1952
_reflns_threshold_expression     'I > 2\s(I)'
_cod_data_source_file            c6qo00487c2.cif
_cod_data_source_block           3666f
_cod_database_code               1553548
_shelxl_version_number           2013-2
_shelx_space_group_comment
;
The symmetry employed for this shelxl refinement is uniquely defined
by the following loop, which should always be used as a source of
symmetry information in preference to the above space-group names.
They are only intended as comments.
;
_shelx_estimated_absorpt_t_max   0.585
_shelx_estimated_absorpt_t_min   0.335
_olex2_refinement_description
;
1. Fixed Uiso
 At 1.2 times of:
  All C(H) groups, All C(H,H) groups
 At 1.5 times of:
  All C(H,H,H) groups
2.a Secondary CH2 refined with riding coordinates:
 C9(H9A,H9B)
2.b Aromatic/amide H refined with riding coordinates:
 C2(H2), C3(H3), C6(H6)
2.c Idealised Me refined as rotating group:
 C10(H10A,H10B,H10C)
;
_shelx_res_file
;
TITL 3666f P 1 21/n 1 R = New: P21/c
CELL 0.71073 6.6723 8.653 15.099 90 111.66 90
ZERR 2 0.0015 0.002 0.003 0 0.01 0
LATT 1
SYMM -X,0.5+Y,0.5-Z

SFAC C H Br
UNIT 40 32 4

L.S. 5
PLAN  -20
SIZE 0.28 0.24 0.12
TEMP -150
BOND $H
CONF
fmap 2
acta
MORE -1
OMIT -2 56
REM <HKL>W:/3666/work/HLsg/3666F.hkl</HKL>

WGHT    0.106600    2.496800
FVAR       0.20576
BR    3    0.042115   -0.905941   -0.212555    11.00000    0.04323    0.04247 =
         0.03301    0.00271    0.02773    0.00482
C1    1    0.207223   -0.900706   -0.293112    11.00000    0.02799    0.03723 =
         0.02366    0.00579    0.01782    0.00561
C2    1    0.344027   -0.777262   -0.285489    11.00000    0.03104    0.03047 =
         0.02092   -0.00280    0.01347    0.00352
AFIX  43
H2    2    0.354589   -0.696004   -0.241680    11.00000   -1.20000
AFIX   0
C3    1    0.467235   -0.773629   -0.343425    11.00000    0.02673    0.03067 =
         0.02239    0.00069    0.01268    0.00077
AFIX  43
H3    2    0.563222   -0.690398   -0.339146    11.00000   -1.20000
AFIX   0
C4    1    0.446105   -0.893871   -0.407007    11.00000    0.02658    0.02798 =
         0.01760    0.00095    0.01291    0.00037
C5    1    0.299548   -1.017099   -0.414376    11.00000    0.02586    0.02510 =
         0.02114    0.00306    0.01131   -0.00124
C6    1    0.176984   -1.022461   -0.357939    11.00000    0.02819    0.03056 =
         0.02324    0.00581    0.01589    0.00440
AFIX  43
H6    2    0.078037   -1.103947   -0.362830    11.00000   -1.20000
AFIX   0
C7    1    0.545527   -0.926744   -0.477310    11.00000    0.02703    0.02715 =
         0.02456    0.00167    0.01754   -0.00006
C8    1    0.693986   -0.871508   -0.511392    11.00000    0.02543    0.02874 =
         0.02491    0.00261    0.01413    0.00073
C9    1    0.822042   -0.724552   -0.486819    11.00000    0.02814    0.02761 =
         0.02322   -0.00210    0.01116   -0.00379
AFIX  23
H9A   2    0.967134   -0.743182   -0.488336    11.00000   -1.20000
H9B   2    0.840327   -0.693136   -0.421239    11.00000   -1.20000
AFIX   0
C10   1    0.713346   -0.593920   -0.555494    11.00000    0.03112    0.02460 =
         0.02665    0.00337    0.01160   -0.00553
AFIX 137
H10A  2    0.797898   -0.498949   -0.535028    11.00000   -1.50000
H10B  2    0.567780   -0.577395   -0.555808    11.00000   -1.50000
H10C  2    0.704480   -0.621435   -0.619795    11.00000   -1.50000
AFIX   0
HKLF 4 1 1 0 0 0 -1 0 -1 0 -1

REM  3666f P 1 21/n 1 R = New: P21/c
REM R1 =  0.0628 for    1484 Fo > 4sig(Fo)  and  0.0845 for all    1952 data
REM    101 parameters refined using      0 restraints

END

WGHT      0.1067      2.4966

REM Highest difference peak  1.163,  deepest hole -2.027,  1-sigma level  0.198
Q1    1   0.1749 -0.8959 -0.1794  11.00000  0.05    1.16
Q2    1  -0.0921 -0.8997 -0.2428  11.00000  0.05    1.08
Q3    1  -0.1189 -0.9073 -0.3640  11.00000  0.05    1.03
Q4    1  -0.0346 -0.7742 -0.2867  11.00000  0.05    0.83
Q5    1  -0.0943 -0.9632 -0.2839  11.00000  0.05    0.82
Q6    1   0.1856 -0.9564 -0.1426  11.00000  0.05    0.70
Q7    1  -0.0583 -1.0212 -0.2227  11.00000  0.05    0.70
Q8    1   0.5000 -1.0000 -0.5000  10.50000  0.05    0.59
Q9    1  -0.2839 -0.9115 -0.2730  11.00000  0.05    0.58
Q10   1  -0.0642 -1.0871 -0.2791  11.00000  0.05    0.50
Q11   1   0.4011 -0.7627 -0.5292  11.00000  0.05    0.48
Q12   1   0.5963 -0.7623 -0.3043  11.00000  0.05    0.48
Q13   1   0.3327 -0.9465 -0.1014  11.00000  0.05    0.48
Q14   1  -0.0458 -0.7895 -0.2235  11.00000  0.05    0.48
Q15   1   0.3191 -0.9917 -0.1508  11.00000  0.05    0.47
Q16   1  -0.2057 -1.0046 -0.3183  11.00000  0.05    0.46
Q17   1   0.8283 -0.4253 -0.4837  11.00000  0.05    0.46
Q18   1   0.2391 -1.0723 -0.1240  11.00000  0.05    0.45
Q19   1   0.3278 -1.0334 -0.2837  11.00000  0.05    0.44
Q20   1   0.4669 -0.5838 -0.6572  11.00000  0.05    0.44
;
_shelx_res_checksum              47548
_shelx_hkl_file
;
   1   0   0   -0.45    0.17
   1   0   0   -0.75    0.20
  -1   0   0   -0.71    0.29
  -1   0   0   -0.51    0.21
  -1   0   0   -0.67    0.11
  -1   0   0   -0.63    0.14
   1   0   0    0.18    0.38
   1   0   0   -0.54    0.30
  -2   0   0  729.14   47.06
  -2   0   0  791.10   47.26
   2   0   0  735.30   47.25
  -2   0   0  851.00   53.49
   2   0   0  790.87   53.08
   2   0   0  934.65   53.50
   2   0   0  723.48   47.06
  -3   0   0    1.74    1.07
   3   0   0    1.35    1.19
   3   0   0    0.17    1.06
  -3   0   0   -0.27    0.80
  -3   0   0   -0.64    0.86
  -3   0   0    0.87    0.53
  -3   0   0    0.22    0.54
  -4   0   0  416.16   27.05
  -4   0   0  433.07   26.90
  -4   0   0  457.81   27.85
  -4   0   0  497.49   30.64
  -4   0   0  460.16   31.11
  -4   0   0  485.95   30.52
  -4   0   0  421.46   27.82
  -5   0   0   -1.03    0.98
  -5   0   0    0.85    1.30
  -5   0   0   -0.98    0.86
  -5   0   0    1.93    1.27
  -5   0   0    0.62    0.68
  -5   0   0    1.98    1.52
  -6   0   0   47.15    3.55
  -6   0   0   49.09    4.22
  -6   0   0   53.34    4.31
  -7   0   0    0.84    1.17
  -7   0   0    3.13    1.95
  -7   0   0    2.69    1.60
  -8   0   0   35.67    3.98
  -8   0   0   37.36    3.01
  -8   0   0   38.67    3.85
  -9   0   0    2.72    0.80
   0  -1   0   -0.04    0.10
   0  -1   0   -0.07    0.08
   0   1   0   -0.11    0.03
   0   1   0   -0.05    0.06
   0   1   0   -0.04    0.10
   1  -1   0    5.20    0.89
  -1  -1   0    5.77    0.63
  -1  -1   0    5.82    0.66
  -1  -1   0    6.36    0.62
   1  -1   0    6.68    0.66
   1  -1   0    7.41    0.51
  -1  -1   0    5.88    0.58
  -1   1   0    6.55    0.64
   1   1   0    6.21    0.62
   1   1   0    7.41    0.64
   1   1   0    6.57    0.62
  -1   1   0    7.04    0.49
   1   1   0    6.13    0.66
  -2  -1   0   11.49    1.22
   2  -1   0   11.88    1.67
  -2  -1   0   13.78    0.89
  -2  -1   0   11.80    1.12
  -2  -1   0   11.76    0.98
   2  -1   0   12.78    0.96
  -2  -1   0   14.58    1.21
  -2  -1   0   10.59    1.03
   2  -1   0   13.02    1.27
   2   1   0   10.59    1.07
  -2   1   0    9.39    1.26
  -2   1   0   12.95    0.92
  -2   1   0   12.82    1.19
   2   1   0   13.66    1.22
  -2   1   0   10.97    1.60
   2   1   0   11.12    1.15
   3  -1   0   13.07    2.15
  -3  -1   0   17.37    1.53
  -3  -1   0   13.30    1.27
  -3  -1   0   14.60    1.65
  -3  -1   0   12.49    1.26
  -3  -1   0   15.23    1.08
  -3  -1   0   15.09    1.84
   3   1   0   13.17    1.67
  -3   1   0   14.88    1.11
  -3   1   0   11.36    1.52
  -3   1   0   13.40    2.01
  -3   1   0   13.21    1.29
  -3   1   0   17.55    1.62
   4  -1   0   19.97    2.91
  -4  -1   0   22.34    2.49
  -4  -1   0   26.09    1.57
  -4  -1   0   21.44    2.32
  -4  -1   0   21.30    1.75
  -4  -1   0   23.12    1.82
  -4   1   0   22.41    2.26
  -4   1   0   24.97    1.57
   4   1   0   18.51    1.90
  -4   1   0   21.14    1.75
   4   1   0   19.78    2.26
  -4   1   0   21.74    2.10
  -4   1   0   24.62    2.64
  -5  -1   0   -0.28    0.90
  -5  -1   0    1.35    1.50
   5  -1   0    1.53    1.90
  -5  -1   0    1.02    1.02
  -5  -1   0    1.46    0.75
  -5  -1   0    0.25    1.27
  -5  -1   0    1.74    0.52
   5   1   0    0.40    1.13
  -5   1   0    1.62    0.51
  -5   1   0   -0.41    1.07
   5   1   0    1.86    1.67
  -5   1   0    1.07    1.42
  -5   1   0    0.27    0.70
  -5   1   0    0.02    0.90
  -5   1   0    1.54    1.16
  -6  -1   0    4.62    1.64
  -6  -1   0    6.98    1.21
  -6  -1   0    4.81    1.92
  -6   1   0    5.67    1.19
  -7  -1   0    0.00    1.16
  -7  -1   0    1.19    2.01
  -7  -1   0    1.56    1.70
  -7   1   0    1.64    1.18
  -7   1   0    0.84    1.52
  -7   1   0    0.60    1.90
  -8  -1   0   -1.05    1.97
  -8  -1   0   -0.14    1.70
  -8   1   0    1.05    1.94
  -8   1   0    1.41    1.19
   0  -2   0   99.77    7.62
   0  -2   0  115.90    7.25
   0  -2   0   96.52    7.51
   0   2   0  117.65    7.25
   0   2   0   95.63    6.50
   0   2   0   99.15    7.50
   0   2   0  111.82    7.63
   1  -2   0  271.72   18.36
  -1  -2   0  284.04   18.36
  -1  -2   0  247.75   18.97
   1  -2   0  273.30   19.33
   1   2   0  267.98   18.10
   1   2   0  256.98   18.97
  -1   2   0  291.31   19.33
  -1   2   0  242.34   18.97
  -1   2   0  278.28   18.36
  -2  -2   0    5.13    1.00
   2  -2   0    5.84    1.17
  -2  -2   0    5.79    0.98
  -2  -2   0    7.30    1.01
   2  -2   0    6.75    1.01
   2   2   0    6.12    1.01
   2   2   0    6.20    1.00
  -2   2   0    7.78    0.98
   2   2   0    6.38    0.94
   2   2   0    5.66    0.95
  -2   2   0    4.17    0.66
  -3  -2   0  261.41   14.60
   3  -2   0  265.97   16.90
  -3  -2   0  237.83   14.71
  -3  -2   0  236.13   15.14
  -3  -2   0  227.97   17.40
  -3  -2   0  266.79   16.63
  -3   2   0  261.18   14.61
   3   2   0  247.21   17.43
  -3   2   0  226.55   16.66
   3   2   0  238.32   15.11
   3   2   0  240.63   16.65
   3   2   0  228.37   14.71
  -3   2   0  251.17   16.87
  -4  -2   0  110.19    6.24
  -4  -2   0  103.61    7.31
  -4  -2   0  105.95    6.70
  -4  -2   0  115.34    7.19
   4  -2   0   90.05    7.48
  -4  -2   0  102.04    6.37
  -4   2   0  104.57    6.24
  -4   2   0  110.40    7.44
  -4   2   0   93.15    7.23
   4   2   0   96.63    6.42
   4   2   0   90.51    7.26
  -4   2   0  108.66    7.32
  -4   2   0  111.31    6.37
   5  -2   0  144.95   11.78
  -5  -2   0  179.66    9.99
  -5  -2   0  177.94   10.61
  -5  -2   0  176.18   11.45
  -5  -2   0  177.67   11.57
  -5  -2   0  168.96   10.13
   5   2   0  156.29   11.57
  -5   2   0  160.63    9.99
  -5   2   0  155.49   10.10
  -5   2   0  176.80   11.65
  -5   2   0  158.20   11.48
   5   2   0  150.39   10.17
  -5   2   0  181.73   11.66
  -6  -2   0   19.75    2.91
   6  -2   0   20.15    3.55
   6   2   0   15.40    2.76
  -6   2   0   18.72    2.06
   6   2   0   14.62    2.36
  -7  -2   0   33.75    3.79
  -7   2   0   34.27    3.42
  -7   2   0   34.10    2.91
  -8  -2   0    8.11    2.08
  -8  -2   0    8.28    1.96
  -8   2   0    7.35    1.69
  -8   2   0   11.78    2.05
  -8   2   0    8.54    1.88
  -9   2   0   16.40    1.72
   0  -3   0   -0.59    0.60
   0  -3   0   -0.62    0.44
   0   3   0    0.68    0.54
   0   3   0   -0.11    0.43
   0   3   0    0.65    0.44
   0   3   0   -0.91    0.49
  -1  -3   0    5.79    1.12
   1  -3   0    6.32    1.29
  -1  -3   0    5.43    0.96
   1  -3   0    9.02    0.97
  -1  -3   0    7.50    1.03
   1  -3   0    7.36    0.99
  -1   3   0    8.54    0.92
   1   3   0    7.00    0.97
   1   3   0    6.84    1.08
  -1   3   0    6.82    1.08
  -2  -3   0    1.57    0.75
   2  -3   0    2.61    0.64
   2  -3   0    1.80    0.59
  -2  -3   0    1.26    0.51
  -2   3   0    1.43    0.65
  -2   3   0    2.72    0.43
  -2   3   0    3.67    0.76
  -2   3   0    3.16    0.70
   2   3   0    3.11    0.76
   2   3   0    1.89    0.62
   2   3   0    1.31    0.54
   2   3   0    2.95    0.75
   2   3   0    2.96    0.77
  -3  -3   0    7.18    1.37
   3  -3   0    5.71    1.66
   3  -3   0    8.99    1.32
  -3  -3   0    7.81    1.24
   3   3   0    9.06    1.33
  -3   3   0    8.69    0.86
  -3   3   0   10.70    1.39
   3   3   0    7.28    1.38
   3   3   0    8.99    1.42
   3   3   0    7.91    1.28
  -4  -3   0    0.47    0.86
  -4  -3   0   -0.26    0.97
   4  -3   0    0.05    1.80
  -4  -3   0   -0.32    0.70
  -4  -3   0    0.54    1.21
   4  -3   0    0.15    0.84
   4   3   0    0.23    1.31
   4   3   0    0.17    1.03
   4   3   0    0.57    0.82
  -4   3   0    0.69    0.49
  -4   3   0    1.44    0.93
  -4   3   0    0.02    1.05
   4   3   0    0.60    0.67
   5  -3   0    5.16    2.28
  -5  -3   0    6.13    1.21
  -5  -3   0    7.65    1.63
  -5  -3   0    5.53    0.95
  -5  -3   0    6.38    0.84
  -5  -3   0    3.89    0.87
  -5  -3   0    4.19    1.32
   5   3   0    5.54    1.70
   5   3   0    4.81    1.36
  -5   3   0    5.92    0.87
  -5   3   0    5.98    1.23
  -5   3   0    4.23    1.23
  -5   3   0    4.07    0.78
   6  -3   0    2.97    2.55
  -6  -3   0    1.60    1.86
  -6  -3   0    0.85    0.81
   6   3   0    1.37    1.35
  -6   3   0    2.00    1.29
   6   3   0    1.27    1.77
  -7  -3   0    1.68    2.06
   7  -3   0    1.09    2.59
  -7   3   0    0.33    1.24
   7   3   0    1.30    1.56
  -7   3   0    0.21    1.41
  -8  -3   0    1.10    2.09
  -8  -3   0    1.69    1.79
  -8   3   0    0.87    1.23
  -8   3   0   -1.35    1.34
   0  -4   0  112.76    8.86
   0  -4   0  132.39    8.44
   0   4   0  115.61    8.85
   0   4   0  114.38    7.54
   0   4   0  132.24    8.44
   0   4   0  121.67    8.74
   1  -4   0  212.26   14.35
  -1  -4   0  191.64   14.34
  -1  -4   0  210.37   13.64
   1  -4   0  202.10   13.63
  -1  -4   0  189.37   14.12
   1  -4   0  184.34   14.15
  -1   4   0  204.62   14.34
  -1   4   0  186.49   14.09
   1   4   0  194.25   14.34
   1   4   0  203.09   14.12
  -1   4   0  199.37   13.64
   2  -4   0  112.34    7.53
  -2  -4   0  104.36    7.18
  -2  -4   0   91.86    7.46
   2  -4   0  108.48    7.18
   2   4   0  104.10    6.49
   2   4   0   89.64    7.05
   2   4   0   87.62    7.52
  -2   4   0  116.24    7.50
   2   4   0  103.17    7.45
  -2   4   0  109.88    7.20
   2   4   0  104.46    6.34
  -2   4   0   98.61    7.41
   3  -4   0   86.34    5.78
  -3  -4   0   76.24    5.99
   3   4   0   80.52    5.12
   3   4   0   70.42    5.69
   3   4   0   83.32    5.98
  -3   4   0   91.69    5.96
  -3   4   0   82.94    4.91
   3   4   0   83.66    5.26
   3   4   0   67.11    5.97
  -3   4   0   86.24    5.78
   4  -4   0   95.27    6.05
   4  -4   0   68.02    6.50
  -4  -4   0   80.02    6.20
   4   4   0   74.99    5.96
   4   4   0   82.83    6.19
  -4   4   0   87.47    6.00
  -4   4   0   89.63    5.08
   4   4   0   84.72    5.35
   4   4   0   89.67    5.46
  -4   4   0   83.89    5.98
  -4   4   0   74.78    5.82
  -5  -4   0   53.41    3.41
   5  -4   0   50.30    5.16
  -5  -4   0   55.36    4.10
  -5  -4   0   50.77    4.05
   5  -4   0   63.60    4.31
  -5   4   0   57.25    4.22
  -5   4   0   54.00    3.42
   5   4   0   52.24    4.22
  -5   4   0   57.35    4.24
  -5   4   0   51.94    3.53
   5   4   0   56.91    3.95
   5   4   0   51.62    4.33
  -6  -4   0   24.87    1.73
  -6  -4   0   32.76    3.23
   6  -4   0   26.94    4.33
  -6  -4   0   21.72    2.37
   6   4   0   27.67    2.83
   6   4   0   27.29    3.05
  -6   4   0   28.01    2.77
  -7  -4   0    7.86    2.13
  -7  -4   0    4.93    1.02
   7  -4   0    6.76    2.79
   7   4   0    7.75    2.01
  -7   4   0    5.31    1.48
   7   4   0    5.45    1.61
  -8  -4   0   22.77    3.14
   8  -4   0   20.09    4.03
  -8   4   0   20.38    2.23
  -8   4   0   13.65    2.39
   0  -5   0   -0.60    1.00
   0  -5   0   -0.84    0.66
   0  -5   0    0.13    0.64
   0   5   0   -0.89    0.73
   0   5   0   -0.02    0.56
   0   5   0    0.57    0.71
   0   5   0    1.51    0.59
   1  -5   0    2.97    1.15
   1  -5   0    2.68    0.83
  -1  -5   0    1.46    0.99
  -1  -5   0    4.14    0.82
   1  -5   0    4.00    0.78
   1   5   0    3.13    0.68
  -1   5   0    4.20    0.88
  -1   5   0    4.03    0.77
  -1   5   0    5.85    1.05
   1   5   0    3.23    0.82
   2  -5   0    1.20    0.71
   2  -5   0    0.09    0.78
  -2  -5   0   -0.80    0.80
  -2  -5   0   -1.27    0.76
  -2  -5   0    0.10    0.95
  -2   5   0    1.69    0.71
  -2   5   0    1.26    0.56
  -2   5   0    1.26    0.88
   2   5   0    0.06    0.85
   2   5   0   -0.07    0.65
  -3  -5   0   -0.28    0.74
  -3  -5   0    0.31    0.75
  -3  -5   0    0.09    1.02
   3  -5   0   -0.23    0.76
   3  -5   0   -0.32    0.84
  -3   5   0    1.50    0.55
   3   5   0    0.60    0.74
   3   5   0    1.20    1.15
  -3   5   0    0.28    0.68
  -3   5   0    0.41    0.44
   3   5   0   -0.79    0.93
   3   5   0    0.67    0.61
  -3   5   0    1.34    0.99
  -4  -5   0    2.30    1.13
  -4  -5   0    1.67    0.99
  -4  -5   0    2.88    0.84
   4  -5   0    3.21    0.94
   4  -5   0    2.97    2.39
  -4   5   0    3.38    0.83
  -4   5   0    3.89    1.13
   4   5   0    3.20    1.01
   4   5   0    2.69    0.87
   4   5   0    3.21    1.31
   4   5   0    4.11    1.43
  -4   5   0    3.31    1.14
  -4   5   0    2.98    0.56
   5  -5   0    2.96    2.53
  -5  -5   0    0.72    0.99
  -5  -5   0    1.56    1.15
   5  -5   0    1.02    0.86
   5   5   0    2.33    1.42
  -5   5   0    1.64    1.19
   5   5   0    1.98    0.68
  -5   5   0    1.14    0.49
  -5   5   0    1.82    1.21
   5   5   0    2.61    1.61
   6  -5   0    4.44    2.83
  -6  -5   0    1.76    1.03
   6   5   0    4.17    1.82
  -6   5   0    2.98    1.31
   6   5   0    4.52    1.62
  -7  -5   0    1.29    0.88
   7  -5   0   -0.89    2.82
   7   5   0    1.06    1.79
  -7   5   0   -1.26    1.29
   7   5   0    3.36    1.51
   8   5   0    1.56    1.43
   0  -6   0  234.91   17.71
   0  -6   0  257.34   17.51
   0  -6   0  244.84   16.84
   0   6   0  222.28   15.06
   0   6   0  273.08   17.72
   0   6   0  232.13   16.81
   1  -6   0   40.92    3.64
  -1  -6   0   39.02    3.42
   1  -6   0   38.19    2.90
  -1  -6   0   32.47    3.18
   1  -6   0   37.07    3.04
   1  -6   0   35.52    3.21
  -1  -6   0   38.21    3.11
  -1   6   0   38.73    2.69
   1   6   0   38.34    3.11
  -1   6   0   34.32    3.07
  -1   6   0   41.04    3.10
  -1   6   0   44.36    3.19
  -2  -6   0   99.11    7.71
   2  -6   0  114.21    7.73
   2  -6   0  106.08    7.34
  -2  -6   0   97.36    7.70
  -2  -6   0   98.28    7.35
   2   6   0  108.41    7.69
   2   6   0  111.87    7.65
  -2   6   0   91.94    7.38
  -2   6   0   97.41    7.64
  -2   6   0  110.94    7.58
  -3  -6   0   26.13    2.56
  -3  -6   0   27.25    2.85
  -3  -6   0   23.00    2.48
   3  -6   0   26.76    2.47
  -3   6   0   24.97    2.31
   3   6   0   30.60    2.60
   3   6   0   28.25    2.46
  -3   6   0   27.71    2.44
   3   6   0   27.14    2.31
   3   6   0   27.66    2.45
   3   6   0   31.23    2.57
  -3   6   0   27.45    2.67
   4  -6   0   57.57    6.16
  -4  -6   0   69.62    5.37
   4   6   0   72.52    4.67
  -4   6   0   68.94    4.23
  -4   6   0   72.77    5.08
  -4   6   0   63.92    5.16
  -4   6   0   62.51    5.10
   4   6   0   76.34    5.26
  -5  -6   0    1.68    1.18
   5  -6   0    5.63    2.78
  -5   6   0   -1.52    1.36
   5   6   0    4.79    1.47
  -5   6   0    2.03    1.31
   6  -6   0   14.81    3.26
  -6  -6   0   16.52    2.40
   6   6   0   17.64    2.55
   6   6   0   15.18    2.61
   7  -6   0    0.69    2.58
  -7  -6   0    0.90    0.91
   7   6   0    2.64    1.29
   7   6   0    2.97    1.69
  -7   6   0   -1.19    1.30
  -8  -6   0   14.80    1.42
   0  -7   0   -0.05    0.92
   0  -7   0   -1.33    0.93
   0  -7   0   -0.96    0.84
   0  -7   0   -0.99    1.46
   0   7   0    0.92    0.64
   0   7   0    0.91    0.65
   0   7   0    0.22    1.05
   0   7   0    0.34    0.80
   1  -7   0    1.20    0.85
   1  -7   0    0.51    0.96
  -1  -7   0    0.71    0.87
   1  -7   0    1.00    1.48
  -1  -7   0    0.88    1.37
  -1   7   0    2.53    0.88
   1   7   0    1.32    0.74
   1   7   0    2.86    0.87
  -1   7   0    2.23    1.13
  -1   7   0    1.85    0.77
   2  -7   0    0.20    1.03
  -2  -7   0    0.22    1.25
  -2  -7   0   -1.55    0.96
  -2  -7   0   -0.46    0.84
   2  -7   0   -0.36    0.88
   2   7   0    0.88    0.69
   2   7   0    1.55    0.76
  -2   7   0    1.38    0.61
  -2   7   0    1.46    1.13
  -3  -7   0   -0.73    1.09
  -3  -7   0   -0.96    0.93
   3  -7   0   -0.62    1.01
  -3  -7   0   -1.02    1.26
  -3   7   0    0.42    1.20
  -3   7   0    0.55    0.47
   3   7   0    0.21    0.61
   3   7   0    0.13    1.37
  -3   7   0   -1.05    1.17
  -3   7   0    1.20    0.68
   4  -7   0    2.09    2.86
  -4  -7   0    1.29    1.36
  -4  -7   0    1.20    1.20
  -4  -7   0    1.34    0.88
   4  -7   0    4.19    1.08
  -4   7   0    1.46    1.22
  -4   7   0    5.16    1.06
   4   7   0    2.82    0.58
   4   7   0    5.71    1.51
  -4   7   0    2.49    1.42
  -4   7   0    3.68    0.65
   5  -7   0    5.34    3.05
  -5  -7   0    2.36    1.29
  -5  -7   0    2.81    1.42
   5   7   0    3.79    1.55
  -5   7   0    2.66    1.24
  -5   7   0    6.00    1.49
   5   7   0    5.00    1.64
   6  -7   0   -4.04    2.56
  -6  -7   0   -0.45    1.24
  -6   7   0   -2.32    1.26
   6   7   0   -0.39    1.54
   6   7   0    1.16    1.56
  -6   7   0    2.13    1.31
  -7  -7   0    0.38    0.79
  -7  -7   0    1.48    0.91
   7   7   0    0.37    1.34
   7   7   0    1.24    1.32
   0  -8   0    6.63    1.82
   0  -8   0    5.71    1.30
   0   8   0    7.55    1.29
   1  -8   0    7.15    1.27
  -1  -8   0    4.29    1.26
   1  -8   0    7.05    1.84
  -1  -8   0    6.77    1.25
  -1  -8   0    7.52    1.73
   1  -8   0    8.21    1.31
  -1   8   0    9.44    1.94
  -1   8   0    5.55    0.86
  -2  -8   0    3.69    1.15
  -2  -8   0    2.94    1.58
   2  -8   0    3.89    1.20
  -2  -8   0    3.48    1.22
   2   8   0    3.87    0.93
  -2   8   0    5.15    1.29
  -2   8   0    2.84    1.25
  -3  -8   0   26.23    3.00
   3  -8   0   37.58    3.18
  -3  -8   0   33.98    3.39
  -3   8   0   26.98    3.05
   3   8   0   35.31    3.04
  -3   8   0   34.34    3.05
   4  -8   0    0.11    1.12
  -4  -8   0   -1.38    1.30
  -4  -8   0   -0.27    0.91
  -4  -8   0    1.22    1.41
   4  -8   0    1.01    2.86
   4   8   0    3.06    1.51
  -4   8   0   -0.13    1.27
   5  -8   0   23.00    4.76
  -5  -8   0   27.37    2.90
  -5  -8   0   19.02    2.59
  -5   8   0   20.22    2.65
   6  -8   0   -0.95    2.76
  -6  -8   0    1.02    1.16
   6   8   0    0.84    1.11
   0  -9   0    0.00    1.04
   0  -9   0    0.40    1.20
   0  -9   0   -1.74    1.73
   0   9   0    0.59    1.09
   0   9   0    0.38    1.03
  -1  -9   0    0.31    1.72
   1  -9   0   -0.69    1.11
   1  -9   0   -0.97    1.13
  -1  -9   0   -0.41    1.24
   1  -9   0   -0.35    1.81
  -1   9   0   -1.01    1.16
   1   9   0    0.27    0.98
  -1   9   0    0.55    1.14
  -2  -9   0   -0.45    1.29
  -2  -9   0   -1.24    1.08
  -2  -9   0   -0.02    1.57
   2  -9   0   -1.05    1.15
  -2   9   0    0.91    1.20
  -2   9   0   -0.74    1.23
   2   9   0   -0.51    0.88
  -3  -9   0    2.27    1.59
  -3  -9   0    1.89    1.39
   3  -9   0    4.22    1.24
  -3   9   0    4.20    1.45
   3   9   0    4.87    1.62
  -3   9   0    3.35    1.28
   4  -9   0    0.96    1.14
  -4  -9   0   -0.06    1.47
  -4  -9   0    0.91    1.35
   4  -9   0   -1.46    2.88
  -4  -9   0    1.07    1.01
   4   9   0    1.30    1.50
  -4   9   0    2.52    1.48
  -4   9   0    0.59    1.25
   5  -9   0    1.98    2.91
   5   9   0   -0.82    1.37
  -5   9   0    3.47    1.11
  -6  -9   0    2.29    0.96
   6   9   0    0.23    1.04
   0 -10   0   44.31    3.94
   0 -10   0   56.28    4.91
   0 -10   0   45.91    4.15
   0  10   0   48.14    3.82
  -1 -10   0    0.69    1.14
   1 -10   0    0.65    1.20
  -1 -10   0    1.85    1.85
   1 -10   0    2.84    1.20
  -1 -10   0    1.06    1.35
  -1  10   0    3.67    1.22
  -1  10   0    2.21    1.29
   1  10   0    3.14    1.12
  -2 -10   0   20.20    3.38
  -2 -10   0   16.99    2.63
  -2 -10   0   16.27    2.50
   2 -10   0   24.52    2.66
   2  10   0   18.15    1.87
  -2  10   0   24.21    2.58
  -2  10   0   18.79    2.48
   3 -10   0   -0.39    1.14
  -3 -10   0   -0.21    0.98
   3  10   0   -0.11    0.56
   3  10   0    1.16    1.48
  -3  10   0   -0.06    1.04
  -4 -10   0   10.63    2.04
   4 -10   0   13.04    3.19
  -4 -10   0   12.38    2.31
  -4 -10   0   16.51    2.77
  -4  10   0    9.69    1.52
   5  10   0    2.55    1.02
   0 -11   0   -1.30    1.82
   0 -11   0   -1.58    1.14
   0 -11   0   -0.27    1.04
   0  11   0   -0.55    0.85
   1 -11   0    1.33    1.15
  -1 -11   0    0.31    1.70
  -1 -11   0    0.71    1.15
  -1 -11   0   -0.48    1.23
  -1  11   0    2.18    1.06
   1  11   0    0.51    0.64
  -1  11   0    0.00    1.07
   2 -11   0    0.90    1.09
  -2 -11   0   -1.43    1.21
  -2 -11   0   -0.70    1.11
  -2 -11   0    1.68    1.66
   2  11   0    1.72    0.58
  -2  11   0    2.42    1.21
  -2  11   0    2.94    1.15
  -3 -11   0    0.64    0.97
   3 -11   0    1.06    1.06
   3  11   0    0.69    0.89
  -4 -11   0    0.80    0.68
   4  11   0    0.25    0.85
   0 -12   0    1.24    0.98
  -9   0   1   13.32    1.46
  -8   0   1    1.65    1.21
  -8   0   1    1.44    2.04
  -7   0   1   79.84    6.05
  -7   0   1   85.81    6.36
  -7   0   1   83.45    5.56
  -6   0   1    0.95    1.74
  -6   0   1   -0.91    1.05
  -6   0   1    0.77    1.33
  -5   0   1  168.07   10.29
  -5   0   1  184.05   11.93
  -5   0   1  163.30   11.79
  -5   0   1  176.12   10.72
  -5   0   1  181.27   10.91
  -5   0   1  158.84   10.41
  -4   0   1    0.85    0.94
  -4   0   1    0.04    1.18
  -4   0   1    0.57    1.21
   4   0  -1   -0.52    1.38
  -4   0   1   -0.79    0.64
  -4   0   1   -0.48    0.85
   3   0  -1  346.95   24.22
  -3   0   1  364.77   24.21
  -3   0   1  384.62   21.36
  -3   0   1  328.43   21.47
   3   0  -1  357.04   24.32
  -3   0   1  378.19   24.30
  -3   0   1  357.08   22.08
   2   0  -1    0.08    0.85
  -2   0   1    0.01    0.57
  -2   0   1   -0.18    0.43
   2   0  -1   -0.09    0.67
  -2   0   1    0.68    0.75
  -2   0   1   -0.86    0.40
   1   0  -1   87.79    6.07
   1   0  -1  109.91    6.67
  -1   0   1   89.17    6.68
  -1   0   1  107.61    6.08
   0   0   1   -0.28    0.02
   0   0  -1   -0.25    0.02
   0   0  -1   -0.23    0.01
   0   0   1   -0.23    0.02
   0   0  -1   -0.26    0.02
   0   0   1   -0.26    0.03
   0   0   1   -0.24    0.01
   1   0   1  214.67   12.98
   1   0   1  226.09   14.66
   1   0   1  228.51   13.04
  -1   0  -1  205.13   13.03
   2   0   1    1.72    0.83
  -2   0  -1    1.47    0.41
   2   0   1    0.38    0.49
   2   0   1   -0.25    0.41
  -2   0  -1   -0.06    0.61
  -2   0  -1    2.15    0.82
  -2   0  -1    0.75    0.32
   3   0   1  459.30   27.57
  -3   0  -1  501.09   31.86
  -3   0  -1  404.27   27.68
  -3   0  -1  464.72   27.55
   3   0   1  467.16   31.17
  -3   0  -1  488.73   31.18
  -4   0  -1   -1.39    0.89
  -4   0  -1    2.54    1.25
  -4   0  -1    0.20    0.59
  -4   0  -1    1.90    1.25
  -4   0  -1    2.84    1.14
   4   0   1   -0.32    0.74
  -4   0  -1    0.33    0.46
  -5   0  -1  157.68   10.64
  -5   0  -1  168.60   10.94
  -5   0  -1  190.04   12.43
  -5   0  -1  180.51   11.21
  -5   0  -1  181.59   12.09
  -5   0  -1  191.51   12.22
  -5   0  -1  163.15   10.53
  -6   0  -1    0.71    1.80
  -6   0  -1    1.82    1.52
  -6   0  -1   -1.87    1.00
  -7   0  -1   54.05    4.67
  -7   0  -1   58.53    4.85
  -7   0  -1   51.49    3.92
  -8   0  -1    0.80    1.15
  -8   0  -1    0.48    1.72
  -8   0  -1    2.75    2.01
  -9  -1   1   11.24    1.29
  -9   1   1    9.31    1.44
  -8  -1   1    1.73    2.01
  -8  -1   1    4.16    1.27
  -8   1   1    5.05    1.28
  -8   1   1    2.65    2.06
  -7  -1   1   -1.82    1.93
  -7  -1   1    1.65    1.21
  -7   1   1   -0.01    1.93
  -7   1   1    1.54    1.20
  -6  -1   1   12.36    1.85
  -6  -1   1   13.98    2.64
  -6  -1   1   15.43    2.76
  -6   1   1   13.54    1.87
   6   1  -1   13.30    2.26
   5  -1  -1    0.68    1.94
  -5  -1   1   -1.03    0.97
  -5  -1   1   -0.22    0.92
  -5  -1   1    0.53    0.51
  -5  -1   1   -1.62    1.50
  -5  -1   1    0.75    0.78
  -5  -1   1   -2.12    1.25
  -5   1   1    0.12    0.49
  -5   1   1    0.46    0.93
  -5   1   1    0.61    1.38
   5   1  -1   -1.18    1.58
  -5   1   1    0.62    0.73
  -5   1   1   -0.65    1.06
  -4  -1   1   14.24    1.54
  -4  -1   1   13.73    1.06
   4  -1  -1    8.77    1.86
  -4  -1   1   10.36    1.39
  -4  -1   1   12.68    1.36
  -4  -1   1   13.01    2.04
  -4  -1   1   12.67    1.91
  -4   1   1   11.85    1.35
  -4   1   1   11.79    1.60
   4   1  -1   10.65    1.54
  -4   1   1   13.48    1.08
  -4   1   1   11.12    2.18
   4   1  -1   10.56    1.92
  -3  -1   1    4.22    0.85
  -3  -1   1    3.39    0.65
   3  -1  -1    2.25    1.32
  -3  -1   1    2.87    0.91
  -3  -1   1    2.64    1.03
  -3  -1   1    3.44    0.66
  -3  -1   1    4.39    0.66
  -3  -1   1    2.87    0.70
   3   1  -1    2.45    0.70
  -3   1   1    3.80    0.88
   3   1  -1    4.21    1.06
  -3   1   1    3.73    1.13
  -3   1   1    3.28    0.72
  -2  -1   1   69.08    4.42
  -2  -1   1   66.30    5.07
  -2  -1   1   80.82    4.85
  -2  -1   1   70.97    4.28
  -2  -1   1   71.05    4.39
   2  -1  -1   63.20    4.97
  -2   1   1   64.68    4.86
   2   1  -1   75.68    4.88
  -2   1   1   66.73    4.97
   2   1  -1   79.44    4.39
   2   1  -1   65.41    4.41
   2   1  -1   68.21    4.28
  -1  -1   1    0.34    0.28
  -1  -1   1    0.27    0.28
  -1  -1   1    0.30    0.29
   1  -1  -1    0.56    0.52
  -1  -1   1    0.17    0.23
   1  -1  -1    0.04    0.25
   1  -1  -1    0.55    0.25
  -1  -1   1    0.45    0.27
   1  -1  -1   -0.03    0.21
  -1   1   1   -0.07    0.33
  -1   1   1    0.07    0.26
   1   1  -1    0.21    0.29
  -1   1   1    0.15    0.20
   1   1  -1    0.40    0.32
   1   1  -1    0.12    0.31
   1   1  -1   -0.01    0.41
   1   1  -1    0.17    0.25
   0  -1  -1   46.32    3.18
   0  -1   1   42.46    3.31
   0  -1  -1   47.09    3.37
   0  -1   1   47.69    3.38
   0   1   1   48.96    3.13
   1  -1   1   29.77    2.37
  -1  -1  -1   35.68    2.28
   1  -1   1   33.76    2.00
  -1  -1  -1   36.69    2.28
  -1  -1  -1   28.32    2.10
   1  -1   1   33.77    2.34
  -1  -1  -1   30.51    2.37
  -1  -1  -1   31.54    1.98
  -1   1  -1   32.38    1.99
   1   1   1   34.21    2.05
   1   1   1   34.20    1.99
   1   1   1   29.81    2.09
   2  -1   1   58.11    4.29
  -2  -1  -1   57.24    3.59
  -2  -1  -1   51.09    3.65
  -2  -1  -1   66.73    4.16
  -2  -1  -1   55.23    3.82
   2  -1   1   58.00    4.25
  -2  -1  -1   64.21    4.11
   2  -1   1   54.78    3.62
  -2   1  -1   67.83    3.66
  -2   1  -1   63.37    4.31
   2   1   1   60.69    3.61
  -2   1  -1   57.40    3.60
  -2   1  -1   59.93    4.25
   2   1   1   64.37    4.16
   2   1   1   51.71    3.78
  -3  -1  -1    0.10    0.52
   3  -1   1   -0.31    0.61
   3  -1   1    0.83    1.21
  -3  -1  -1   -0.36    0.80
  -3  -1  -1    0.24    1.02
  -3  -1  -1   -0.46    0.90
  -3  -1  -1    0.05    0.40
  -3   1  -1   -0.03    1.10
   3   1   1    0.16    0.60
  -3   1  -1    0.14    0.40
  -3   1  -1   -0.17    0.56
   3   1   1   -0.02    1.03
  -3   1  -1   -0.22    0.79
   3   1   1   -0.08    0.72
  -3   1  -1    1.21    0.80
  -4  -1  -1    2.88    0.74
   4  -1   1    2.38    1.54
  -4  -1  -1    3.36    1.25
  -4  -1  -1    2.35    0.64
  -4  -1  -1    2.01    1.21
  -4  -1  -1    2.97    0.50
   4  -1   1    3.56    0.81
  -4  -1  -1    2.93    0.94
  -4   1  -1    1.97    1.33
  -4   1  -1    1.71    1.01
  -4   1  -1    3.94    1.05
   4   1   1    1.60    1.31
  -4   1  -1    2.29    0.67
  -4   1  -1    3.08    0.50
   4   1   1    1.66    0.91
  -5  -1  -1   -1.50    1.03
  -5  -1  -1    0.67    0.65
  -5  -1  -1    0.44    0.48
   5  -1   1    0.80    1.82
  -5   1  -1   -0.17    0.67
  -5   1  -1   -1.05    1.25
  -5   1  -1   -1.52    1.02
  -5   1  -1   -0.06    1.39
  -5   1  -1    0.49    0.48
   5   1   1    0.79    1.13
  -6  -1  -1   10.02    1.37
  -6  -1  -1    8.86    1.91
  -6  -1  -1   11.51    2.08
  -6   1  -1   16.09    2.54
  -6   1  -1   11.70    1.70
  -7  -1  -1    1.33    2.04
  -7  -1  -1    2.94    1.84
  -7   1  -1    1.67    1.66
  -7   1  -1    1.40    1.93
  -7   1  -1    2.82    1.19
  -8  -1  -1   -2.94    1.74
  -8  -1  -1   -1.42    1.81
  -8   1  -1   -2.22    1.77
  -8   1  -1   -1.81    1.58
  -8   1  -1    1.76    1.17
  -9   1  -1    2.53    0.73
  -9   2   1    8.21    1.42
  -8  -2   1   19.78    3.30
  -8  -2   1   22.35    2.35
  -8   2   1   20.62    3.11
  -8   2   1   22.56    2.39
  -7  -2   1   15.22    3.12
  -7  -2   1   16.21    3.11
  -7   2   1   16.90    2.16
  -6  -2   1    9.80    1.07
  -6  -2   1   16.86    2.71
  -6  -2   1   13.56    1.85
   6  -2  -1   12.42    2.65
  -6   2   1   13.19    1.84
   6   2  -1   14.00    2.59
  -5  -2   1    7.53    1.60
   5  -2  -1    7.35    2.25
  -5  -2   1    6.46    1.39
  -5  -2   1    7.36    1.29
  -5  -2   1    6.05    0.71
  -5  -2   1    7.34    1.49
   5   2  -1    7.69    1.74
  -5   2   1    5.88    1.27
   5   2  -1    5.47    1.21
  -5   2   1    8.21    1.62
  -5   2   1    4.98    0.91
  -5   2   1    5.53    0.88
  -4  -2   1  156.14    8.26
  -4  -2   1  144.41    8.71
   4  -2  -1  119.95    9.72
  -4  -2   1  128.86    9.88
  -4  -2   1  147.45    9.57
  -4  -2   1  155.87    9.48
  -4  -2   1  137.69    8.38
   4   2  -1  127.47    9.55
  -4   2   1  132.70    8.38
  -4   2   1  129.13    9.49
   4   2  -1  128.66    8.40
  -4   2   1  143.32    8.26
  -4   2   1  135.95    9.64
  -3  -2   1   24.70    1.87
   3  -2  -1   25.93    2.17
  -3  -2   1   27.66    1.70
   3  -2  -1   24.58    2.81
  -3  -2   1   29.19    2.12
  -3  -2   1   26.15    2.10
  -3  -2   1   25.74    2.20
   3   2  -1   21.67    2.21
  -3   2   1   25.90    1.71
  -3   2   1   26.37    2.10
   3   2  -1   22.56    2.19
   3   2  -1   23.82    1.91
   3   2  -1   25.24    1.99
   3   2  -1   27.39    1.81
   2  -2  -1  206.68   16.33
  -2  -2   1  266.86   16.35
  -2  -2   1  231.67   14.86
  -2  -2   1  226.55   17.12
  -2  -2   1  242.89   14.84
  -2  -2   1  247.17   14.45
   2  -2  -1  254.96   16.57
   2   2  -1  227.30   14.83
   2   2  -1  274.34   14.86
   2   2  -1  246.83   14.45
  -2   2   1  235.58   16.17
   2   2  -1  219.78   16.35
   2   2  -1  256.66   17.14
  -2   2   1  261.04   16.56
  -2   2   1  226.02   16.35
   1  -2  -1   87.64    5.95
   1  -2  -1   91.13    5.66
  -1  -2   1   71.43    5.95
  -1  -2   1   76.00    5.07
  -1  -2   1   91.18    5.66
  -1   2   1   90.97    5.65
  -1   2   1   77.09    5.88
  -1   2   1   77.65    5.51
   1   2  -1   69.46    5.94
  -1   2   1   83.90    5.93
   1   2  -1   78.74    5.09
   1   2  -1   83.75    5.87
   0  -2  -1  796.72   49.72
   0  -2   1  751.99   51.36
   0  -2  -1  732.59   51.37
   0  -2  -1  624.90   49.29
   0  -2   1  736.53   52.37
   0  -2  -1  727.47   52.37
   0  -2   1  739.61   49.72
   0   2   1  697.80   49.72
   0   2  -1  787.66   51.36
   0   2   1  709.31   51.36
   0   2   1  771.55   52.37
   0   2  -1  707.45   49.72
   0   2  -1  683.50   44.58
   1  -2   1  118.65    7.45
  -1  -2  -1  128.39    8.53
   1  -2   1  132.53    9.06
   1  -2   1  124.59    8.61
   1   2   1  119.65    7.72
  -1   2  -1  129.87    7.46
  -1   2  -1  125.60    8.62
   1   2   1  113.92    9.05
   1   2   1  115.95    8.91
  -1   2  -1  141.66    9.06
  -2  -2  -1  397.01   25.99
   2  -2   1  403.58   26.38
   2  -2   1  378.45   22.87
   2  -2   1  403.29   25.88
  -2  -2  -1  366.11   27.21
  -2  -2  -1  421.05   26.13
  -2  -2  -1  366.10   23.59
  -2   2  -1  365.28   26.36
   2   2   1  377.91   23.00
   2   2   1  363.98   23.58
   2   2   1  396.11   25.99
  -2   2  -1  382.82   22.86
  -3  -2  -1   29.55    2.19
  -3  -2  -1   26.87    1.93
   3  -2   1   27.13    2.70
  -3  -2  -1   26.98    2.07
   3  -2   1   22.31    1.90
  -3  -2  -1   27.35    2.24
   3  -2   1   29.14    2.28
  -3  -2  -1   24.35    1.74
   3   2   1   25.67    2.05
   3   2   1   26.09    1.83
  -3   2  -1   30.64    2.32
   3   2   1   27.09    2.04
   3   2   1   25.57    2.26
  -3   2  -1   25.39    1.77
  -4  -2  -1  254.26   15.95
  -4  -2  -1  244.79   13.96
  -4  -2  -1  225.57   14.55
  -4  -2  -1  223.46   14.08
   4  -2   1  209.18   14.00
  -4  -2  -1  251.93   15.96
  -4  -2  -1  262.47   15.94
   4  -2   1  223.21   16.04
  -4   2  -1  244.86   16.20
  -4   2  -1  248.25   14.08
  -4   2  -1  234.88   13.97
  -4   2  -1  231.22   15.98
  -4   2  -1  242.41   15.99
   4   2   1  198.65   14.10
   4   2   1  218.28   15.96
  -5  -2  -1    4.79    1.62
  -5  -2  -1    2.68    1.10
  -5  -2  -1    2.38    0.54
  -5  -2  -1    3.81    1.35
   5  -2   1    6.55    2.13
  -5  -2  -1    3.29    0.76
  -5   2  -1    2.47    0.54
   5   2   1    1.64    1.25
  -5   2  -1    2.77    0.76
   5   2   1    1.97    1.62
  -5   2  -1    2.81    1.14
  -6  -2  -1  109.62    6.62
   6  -2   1   82.77    7.30
   6   2   1   89.17    6.11
  -7  -2  -1    4.78    2.15
  -7  -2  -1    4.40    1.96
  -7   2  -1    4.27    1.25
  -7   2  -1    5.57    1.67
  -8  -2  -1   61.82    5.21
  -8   2  -1   57.98    4.15
  -8   2  -1   51.88    4.89
  -9   2  -1    7.85    1.29
  -8  -3   1    0.00    1.58
  -8  -3   1    1.56    1.72
  -8   3   1    0.78    1.23
   7  -3  -1    6.88    2.81
  -7  -3   1    8.24    2.18
   7   3  -1    8.71    2.22
  -7   3   1    8.10    1.44
  -6  -3   1    6.96    0.80
   6  -3  -1    9.39    2.72
  -6  -3   1    6.84    1.04
  -6  -3   1   10.80    1.90
   6   3  -1   10.32    1.99
   6   3  -1    9.02    1.50
  -5  -3   1    7.07    1.01
  -5  -3   1    8.52    0.92
  -5  -3   1    6.16    1.19
   5  -3  -1    6.61    2.36
  -5  -3   1    6.46    1.37
  -5  -3   1    7.83    1.62
  -5  -3   1    7.71    1.67
   5   3  -1    8.79    1.76
  -5   3   1    6.89    1.33
   5   3  -1    8.29    1.39
  -5   3   1    8.38    0.94
  -5   3   1    4.96    0.93
  -4  -3   1   15.29    1.68
   4  -3  -1   15.91    1.77
   4  -3  -1   15.33    2.97
  -4  -3   1   13.66    1.94
  -4  -3   1   14.56    1.88
  -4  -3   1   14.41    1.54
   4   3  -1   13.16    1.72
  -4   3   1   11.12    1.55
  -4   3   1   16.26    1.18
   4   3  -1   13.78    1.65
   4   3  -1   12.31    1.98
  -4   3   1   12.36    1.86
   4   3  -1   12.60    1.65
  -4   3   1   16.00    1.74
   3  -3  -1    0.43    1.53
  -3  -3   1    1.22    0.78
   3  -3  -1    0.19    0.69
   3   3  -1    0.76    0.62
   3   3  -1    0.47    0.80
   3   3  -1    0.85    0.76
  -3   3   1    0.33    0.73
  -3   3   1    1.39    0.45
   3   3  -1    1.43    1.05
  -3   3   1    1.09    0.92
  -3   3   1    1.47    0.70
  -2  -3   1    4.37    0.69
  -2  -3   1    3.67    0.79
   2   3  -1    2.88    0.61
  -2   3   1    3.52    0.75
  -2   3   1    4.08    0.74
   2   3  -1    4.77    0.75
   2   3  -1    6.02    1.18
   2   3  -1    6.95    1.15
  -1  -3   1    1.16    0.46
  -1  -3   1    0.56    0.64
  -1  -3   1   -0.17    0.49
   1  -3  -1    0.39    0.48
  -1  -3   1    1.34    0.52
   1  -3  -1    1.24    0.52
  -1   3   1    0.57    0.42
   1   3  -1    0.10    0.48
  -1   3   1    0.54    0.59
   1   3  -1    0.04    0.54
   1   3  -1    0.38    0.43
  -1   3   1    0.88    0.55
   1   3  -1    0.68    0.53
   0  -3   1   11.74    1.11
   0  -3  -1    9.66    1.44
   0  -3  -1    9.21    1.08
   0  -3   1    7.88    1.24
   0   3  -1   11.14    1.20
   0   3   1   10.33    1.27
   0   3  -1    8.51    1.06
   0   3  -1   11.04    1.17
   0   3  -1   12.27    0.97
   0   3   1   10.75    1.09
   0   3   1   11.11    1.05
  -1  -3  -1    1.58    0.50
   1  -3   1    1.75    0.53
  -1  -3  -1    1.55    0.48
  -1  -3  -1    1.12    0.65
  -1  -3  -1    2.18    0.59
   1  -3   1    2.10    0.75
   1   3   1    1.87    0.61
   1   3   1    1.44    0.48
  -1   3  -1    2.24    0.55
   2  -3   1    1.51    0.53
  -2  -3  -1    2.00    0.60
  -2  -3  -1    1.60    0.71
   2  -3   1    2.66    0.65
   2   3   1    1.70    0.53
   2   3   1    2.96    0.76
   2   3   1    2.70    0.68
   2   3   1    3.35    0.77
  -2   3  -1    2.47    0.44
   2   3   1    4.25    0.84
  -2   3  -1    3.73    0.79
  -2   3  -1    3.75    0.74
  -3  -3  -1    8.73    1.32
   3  -3   1    8.83    1.09
   3  -3   1   10.33    1.38
   3  -3   1    7.79    1.66
  -3  -3  -1    8.99    1.19
  -3  -3  -1    9.25    1.42
  -3  -3  -1    9.98    1.54
   3   3   1    8.72    1.32
   3   3   1    8.17    1.42
  -3   3  -1   10.58    1.50
   3   3   1    8.53    1.45
   3   3   1    9.25    1.32
  -3   3  -1    9.03    0.88
   4  -3   1    1.82    0.89
  -4  -3  -1    1.43    0.87
   4  -3   1    2.51    1.82
  -4  -3  -1    1.47    0.99
  -4  -3  -1    1.07    0.82
  -4  -3  -1    1.35    1.30
   4  -3   1    0.77    0.78
  -4   3  -1    2.89    1.05
  -4   3  -1    1.46    0.72
  -4   3  -1    1.63    0.50
   4   3   1    2.46    1.32
   4   3   1    1.94    0.84
   4   3   1    2.62    1.10
   4   3   1    0.98    0.70
  -4   3  -1    0.70    1.06
  -5  -3  -1    9.80    1.69
  -5  -3  -1    9.20    1.79
  -5  -3  -1   11.26    0.99
  -5  -3  -1    9.32    1.29
  -5  -3  -1    7.29    1.52
   5  -3   1    8.87    2.38
  -5  -3  -1   11.18    1.48
  -5   3  -1    9.46    1.24
  -5   3  -1    9.05    1.51
  -5   3  -1   14.04    2.11
   5   3   1    9.95    1.54
   5   3   1   10.28    1.76
  -5   3  -1   11.22    1.01
  -6  -3  -1    2.98    0.86
  -6  -3  -1    1.53    0.39
  -6  -3  -1    2.10    1.87
   6  -3   1    3.03    2.51
   6   3   1    2.63    1.74
  -6   3  -1    2.07    1.41
   6   3   1    2.01    1.45
   7  -3   1    0.12    2.47
  -7  -3  -1    0.24    2.06
  -7   3  -1   -0.62    1.53
   7   3   1    0.22    1.51
  -8  -3  -1    0.99    1.84
  -8  -3  -1   -1.34    2.16
  -8   3  -1    0.47    1.16
   8  -4  -1   11.95    2.96
  -8   4   1   14.41    2.17
   7  -4  -1    8.16    2.84
  -7   4   1    5.16    1.34
  -7   4   1    6.77    1.44
   7   4  -1    6.43    1.63
   7   4  -1    7.66    2.05
  -6  -4   1   20.05    2.41
   6  -4  -1   17.44    3.21
   6   4  -1   20.18    2.91
   6   4  -1   18.37    2.43
  -5  -4   1   24.39    2.55
   5  -4  -1   23.25    2.41
   5  -4  -1   21.36    3.81
  -5   4   1   20.03    1.69
   5   4  -1   24.10    2.41
  -5   4   1   25.03    2.38
   5   4  -1   22.85    2.76
   5   4  -1   26.47    2.14
   4  -4  -1   78.31    7.19
   4  -4  -1  103.63    6.73
  -4  -4   1   93.79    6.97
  -4   4   1   96.60    6.69
  -4   4   1   97.61    6.68
   4   4  -1  100.06    6.97
   4   4  -1   98.52    6.10
   4   4  -1   86.45    6.70
  -4   4   1   86.37    6.56
  -4   4   1   97.83    5.71
  -4   4   1   92.15    6.90
   4   4  -1   93.34    5.94
  -3  -4   1   29.27    2.31
   3  -4  -1   31.35    2.35
  -3  -4   1   25.71    2.54
   3  -4  -1   22.84    3.32
   3   4  -1   31.65    2.45
  -3   4   1   31.19    2.44
  -3   4   1   25.31    1.85
   3   4  -1   24.71    2.33
  -3   4   1   23.80    2.33
   3   4  -1   30.28    2.22
   3   4  -1   30.86    2.28
   3   4  -1   23.76    2.40
  -2  -4   1  100.73    8.21
  -2  -4   1  113.66    7.82
   2  -4  -1  119.36    7.83
   2  -4  -1  121.89    8.23
  -2  -4   1  106.45    8.15
  -2   4   1  117.99    8.18
  -2   4   1  114.40    7.65
   2   4  -1  117.34    8.14
   2   4  -1  115.47    6.88
   2   4  -1  113.00    7.07
  -2   4   1  116.03    7.82
   2   4  -1  100.30    8.20
  -2   4   1  114.86    8.12
   2   4  -1  100.33    7.73
   1  -4  -1   92.45    6.63
   1  -4  -1   95.71    6.31
  -1  -4   1   86.90    6.61
  -1  -4   1   94.55    6.30
  -1  -4   1   87.01    6.57
  -1  -4   1   76.60    5.61
   1   4  -1   97.42    6.31
   1   4  -1   89.69    6.54
  -1   4   1   87.19    6.59
   1   4  -1   84.28    6.59
  -1   4   1   87.15    6.53
  -1   4   1   98.72    6.30
   0  -4   1  129.56    8.73
   0  -4  -1  119.69    9.11
   0  -4   1  118.29    9.07
   0  -4  -1  113.68    8.63
   0  -4   1  127.34    9.19
   0  -4  -1  124.45    9.19
   0  -4  -1  137.14    8.76
   0   4  -1  115.66    7.82
   0   4   1  130.36    8.72
   0   4  -1  132.57    9.18
   0   4  -1  136.41    8.74
   0   4   1  126.85    9.18
   0   4  -1  126.05    9.05
   0   4   1  121.29    7.82
   0   4   1  130.69    9.06
   1  -4   1  329.60   23.78
   1  -4   1  376.94   24.20
  -1  -4  -1  339.74   22.98
  -1  -4  -1  305.78   23.75
  -1  -4  -1  332.32   24.18
  -1  -4  -1  330.40   22.76
   1  -4   1  309.05   22.96
  -1   4  -1  327.01   22.97
   1   4   1  315.86   24.18
   1   4   1  334.46   23.76
  -1   4  -1  371.32   24.18
  -1   4  -1  349.11   23.74
  -2  -4  -1   58.10    5.14
  -2  -4  -1   62.64    5.13
   2  -4   1   68.55    4.92
  -2  -4  -1   71.81    4.95
  -2  -4  -1   71.08    4.85
   2  -4   1   71.26    5.15
   2   4   1   65.96    5.13
  -2   4  -1   73.48    5.08
  -2   4  -1   70.42    4.97
  -2   4  -1   73.17    5.10
   2   4   1   71.96    4.50
  -3  -4  -1  162.48   10.69
   3  -4   1  159.74   11.33
  -3  -4  -1  154.26   11.17
   3  -4   1  161.87   10.82
   3  -4   1  155.35    9.34
  -3   4  -1  149.26   10.82
   3   4   1  149.76   11.17
   3   4   1  154.51    9.72
  -3   4  -1  158.17    9.32
   3   4   1  150.49    9.51
   4  -4   1   76.88    5.17
   4  -4   1   70.66    5.79
  -4  -4  -1   68.74    5.29
  -4  -4  -1   69.73    5.03
  -4  -4  -1   68.16    5.05
   4   4   1   67.39    4.66
   4   4   1   75.14    4.69
  -4   4  -1   71.17    4.31
  -4   4  -1   71.53    5.19
   4   4   1   66.57    5.28
   4   4   1   63.76    5.12
  -5  -4  -1   90.03    6.36
  -5  -4  -1   83.77    6.38
  -5  -4  -1   98.08    6.70
   5  -4   1   84.38    7.14
   5  -4   1   98.46    6.57
  -5   4  -1   90.95    6.60
   5   4   1   86.06    5.87
  -5   4  -1   92.82    5.59
   5   4   1   83.14    6.54
  -5   4  -1   89.09    5.48
  -6  -4  -1   38.01    3.57
  -6  -4  -1   29.37    2.71
   6  -4   1   34.13    4.46
   6   4   1   33.40    3.05
   6   4   1   30.46    3.29
  -6   4  -1   33.38    3.26
   7  -4   1   16.00    3.17
  -7  -4  -1   23.60    3.28
   7   4   1   18.46    2.61
  -7   4  -1   17.06    2.80
   8  -4   1   10.24    2.70
  -8  -4  -1   16.15    2.96
  -8   4  -1   10.10    1.71
  -8   4  -1    9.67    1.55
   8   4   1   13.64    2.47
  -9   4  -1    1.70    0.80
  -8  -5   1    1.51    0.61
   8   5  -1    2.14    1.65
   8   5  -1    4.19    1.40
  -7  -5   1   -0.09    1.19
  -7  -5   1    1.02    0.83
   7  -5  -1   -1.53    2.83
   7   5  -1   -0.71    1.78
   7   5  -1    1.18    1.49
  -6  -5   1   10.48    1.84
   6  -5  -1   14.27    3.16
   6   5  -1   17.52    2.66
  -6   5   1   12.23    2.18
   6   5  -1   17.61    2.37
  -5  -5   1    3.55    0.74
   5  -5  -1    2.36    0.93
  -5  -5   1    3.67    1.26
   5  -5  -1    2.19    2.54
   5   5  -1    5.03    1.63
   5   5  -1    3.94    0.83
   5   5  -1    4.33    1.40
  -5   5   1    4.67    1.22
  -5   5   1    4.59    0.76
   4  -5  -1   15.27    2.85
  -4  -5   1   17.45    2.39
  -4  -5   1   16.34    1.91
   4  -5  -1   18.95    2.01
  -4   5   1   17.75    2.15
  -4   5   1   20.39    2.22
   4   5  -1   16.58    2.35
  -4   5   1   18.41    2.06
  -4   5   1   17.92    2.13
  -4   5   1   19.74    1.40
   4   5  -1   19.93    2.17
   4   5  -1   17.98    2.03
   4   5  -1   18.12    1.96
  -3  -5   1    0.94    1.06
   3  -5  -1    1.74    0.88
  -3  -5   1    0.77    0.78
  -3  -5   1    1.08    0.77
   3  -5  -1    2.01    0.81
  -3   5   1    1.17    1.02
  -3   5   1    2.18    0.82
   3   5  -1    2.90    1.11
  -3   5   1    2.30    0.93
   3   5  -1    2.02    0.78
  -3   5   1    2.22    0.49
   3   5  -1    1.55    1.02
  -3   5   1    2.57    0.60
   3   5  -1    2.91    1.11
  -2  -5   1   55.03    4.59
   2  -5  -1   63.17    4.54
  -2  -5   1   53.51    4.53
  -2  -5   1   56.95    4.33
   2  -5  -1   65.23    4.33
  -2   5   1   59.50    4.37
   2   5  -1   58.78    4.50
  -2   5   1   60.22    4.24
  -2   5   1   59.92    4.46
  -2   5   1   56.01    4.47
   2   5  -1   62.67    4.52
   1  -5  -1    0.49    0.70
   1  -5  -1    0.04    0.70
  -1  -5   1   -0.01    0.70
  -1  -5   1    0.24    0.98
   1  -5  -1    0.92    1.15
  -1   5   1    0.71    0.55
  -1   5   1    1.09    0.72
   1   5  -1   -0.57    0.78
   1   5  -1    0.58    0.56
   1   5  -1    0.98    0.71
  -1   5   1    0.35    0.77
   0  -5   1    5.91    1.17
   0  -5   1    3.00    0.79
   0  -5   1    2.55    1.00
   0  -5  -1    3.27    1.15
   0  -5  -1    4.04    0.82
   0  -5  -1    4.45    0.81
   0   5  -1    4.90    1.02
   0   5   1    5.29    1.07
   0   5  -1    4.66    0.83
   0   5   1    3.28    0.82
   0   5  -1    5.93    0.94
   0   5   1    6.29    1.35
   0   5  -1    3.61    0.87
   1  -5   1   -0.98    0.70
  -1  -5  -1   -0.12    0.95
  -1  -5  -1   -0.43    0.70
   1  -5   1   -0.29    1.09
  -1  -5  -1   -0.18    0.70
   1  -5   1    0.85    0.69
  -1  -5  -1    0.57    0.73
  -1   5  -1    0.54    0.69
   1   5   1    0.19    0.59
   1   5   1    0.68    0.75
  -1   5  -1    0.68    0.53
  -1   5  -1    0.58    0.87
  -1   5  -1    0.42    0.65
  -2  -5  -1    1.91    0.79
  -2  -5  -1    0.40    0.78
   2  -5   1    0.68    0.82
   2  -5   1    1.73    0.74
  -2  -5  -1    0.84    0.96
  -2  -5  -1    0.56    0.70
   2   5   1    0.79    0.84
   2   5   1    2.02    0.78
  -2   5  -1    2.01    0.55
  -2   5  -1    2.02    0.91
   2   5   1    1.31    0.67
   2   5   1    1.79    0.67
  -2   5  -1    2.24    0.70
   3  -5   1    0.28    0.78
   3  -5   1    0.08    0.86
  -3  -5  -1    1.05    0.73
  -3  -5  -1   -0.24    1.03
  -3  -5  -1    0.04    0.89
  -3  -5  -1    1.21    0.81
   3   5   1   -0.15    0.89
  -3   5  -1    1.32    0.68
   3   5   1    2.08    1.21
   3   5   1    1.63    0.74
  -3   5  -1    2.32    1.09
  -3   5  -1    1.01    0.48
  -3   5  -1    1.91    0.55
   3   5   1    1.37    0.65
   4  -5   1    4.18    0.97
   4  -5   1    6.60    2.41
  -4  -5  -1    3.38    1.10
  -4  -5  -1    3.26    1.09
   4   5   1    4.23    1.33
   4   5   1    4.01    0.91
  -4   5  -1    6.02    1.27
  -4   5  -1    4.53    0.63
   4   5   1    4.97    1.07
   4   5   1    5.57    1.39
   5  -5   1    1.45    2.47
  -5  -5  -1    0.83    1.07
  -5  -5  -1    1.08    0.98
   5   5   1    0.81    0.66
   5   5   1    0.99    1.51
   5   5   1    1.62    1.46
  -5   5  -1    1.87    1.23
  -6  -5  -1    2.41    1.03
   6  -5   1    4.39    2.77
   6   5   1    2.61    1.69
  -6   5  -1    3.00    1.40
   6   5   1    3.71    1.58
   7  -5   1    1.75    2.68
  -7  -5  -1    3.76    0.99
  -7   5  -1    0.27    1.41
   7   5   1    3.27    1.79
   7   5   1    5.16    1.64
  -8  -6   1    0.56    0.50
   8   6  -1    0.68    1.35
  -7  -6   1   14.98    2.26
   7  -6  -1   10.36    3.19
  -7  -6   1   10.93    1.71
   7   6  -1   13.25    2.56
   7   6  -1   15.20    2.20
   6  -6  -1    1.88    2.91
  -6  -6   1   -0.57    1.23
   6   6  -1    1.42    1.47
  -6   6   1   -0.76    1.22
   6   6  -1    1.39    1.75
  -6   6   1    1.07    1.29
   5  -6  -1   44.14    5.45
  -5  -6   1   51.11    4.16
   5   6  -1   53.35    3.66
  -5   6   1   42.82    3.89
   5   6  -1   44.21    3.97
  -5   6   1   49.77    3.93
  -4  -6   1   12.58    2.16
  -4  -6   1    9.48    1.48
   4  -6  -1   14.27    2.92
   4  -6  -1    8.65    1.67
  -4   6   1    8.81    1.59
   4   6  -1   10.85    1.40
  -4   6   1   10.32    1.97
  -4   6   1    8.14    1.23
  -3  -6   1   80.11    5.96
  -3  -6   1   70.53    5.64
  -3  -6   1   77.75    6.00
   3  -6  -1   81.44    5.68
  -3   6   1   69.72    5.83
   3   6  -1   80.14    5.91
  -3   6   1   80.34    5.63
   3   6  -1   76.92    5.18
  -3   6   1   83.75    5.86
  -3   6   1   69.60    5.72
   3   6  -1   88.71    5.95
   3   6  -1   81.42    5.14
   2  -6  -1    7.36    1.63
   2  -6  -1    8.62    1.50
  -2  -6   1    5.09    1.07
  -2  -6   1    4.81    1.33
   2   6  -1    6.98    1.29
   2   6  -1    9.02    1.40
  -2   6   1    8.84    1.57
  -2   6   1    9.16    1.75
  -2   6   1    7.01    1.28
   1  -6  -1   58.76    4.69
   1  -6  -1   57.65    4.35
  -1  -6   1   54.46    4.09
  -1  -6   1   52.76    4.44
   1  -6  -1   56.68    4.12
  -1  -6   1   48.55    4.33
  -1   6   1   58.95    4.27
   1   6  -1   51.50    4.14
   1   6  -1   57.87    4.23
  -1   6   1   55.50    4.16
  -1   6   1   51.90    4.22
   0  -6  -1   28.46    2.68
   0  -6  -1   28.29    2.49
   0  -6   1   26.33    2.65
   0  -6   1   28.91    3.00
   0  -6   1   27.93    2.52
   0  -6  -1   33.56    2.60
   0  -6  -1   33.76    3.13
   0   6   1   32.66    2.59
   0   6  -1   31.54    2.50
   0   6  -1   31.09    2.15
   0   6   1   30.68    2.12
   0   6  -1   25.14    2.57
   0   6   1   25.58    2.56
  -1  -6  -1  119.86    8.94
  -1  -6  -1  122.07    9.52
  -1  -6  -1  128.11    9.50
   1  -6   1  131.95    9.54
   1  -6   1  120.08    9.02
   1  -6   1  140.17    9.55
  -1  -6  -1  136.41    9.10
   1   6   1  132.51    9.51
  -1   6  -1  124.08    8.10
  -1   6  -1  119.18    9.08
  -1   6  -1  147.00    9.38
  -2  -6  -1    7.00    1.35
   2  -6   1    9.93    1.49
  -2  -6  -1    8.07    1.63
  -2  -6  -1    6.39    1.14
  -2  -6  -1    7.76    1.50
   2  -6   1   10.68    1.69
   2   6   1    8.72    1.23
  -2   6  -1    9.84    1.86
   2   6   1    7.14    1.49
   3  -6   1   69.04    4.84
  -3  -6  -1   65.08    5.04
   3  -6   1   75.46    5.11
  -3  -6  -1   62.50    5.14
  -3  -6  -1   61.03    4.82
  -3  -6  -1   59.74    4.83
  -3   6  -1   64.04    4.94
   3   6   1   69.86    5.05
   3   6   1   70.66    4.42
  -3   6  -1   65.80    4.93
   3   6   1   62.13    5.04
   3   6   1   65.49    4.51
  -3   6  -1   61.40    4.94
  -4  -6  -1   31.51    2.99
   4  -6   1   25.33    4.13
  -4  -6  -1   24.03    2.71
   4   6   1   30.54    2.71
   4   6   1   26.13    2.52
  -4   6  -1   30.02    2.90
   4   6   1   36.34    2.80
  -4   6  -1   28.70    2.00
   4   6   1   30.82    2.69
   5  -6   1   59.96    6.19
  -5  -6  -1   72.53    5.42
   5   6   1   73.36    4.82
  -5   6  -1   73.12    5.12
  -5   6  -1   62.03    5.26
   5   6   1   67.78    5.15
  -6  -6  -1    6.05    1.28
   6  -6   1   11.24    3.00
  -6   6  -1    8.30    1.56
  -7  -6  -1    8.48    1.63
   7  -6   1    9.03    2.97
  -7   6  -1    5.61    1.57
   7   6   1   10.27    1.62
   7   6   1   12.83    2.26
  -8  -6  -1    8.21    1.09
  -7  -7   1    1.95    0.97
  -7  -7   1    1.43    0.84
   7   7  -1    3.70    1.27
  -6  -7   1    4.30    1.34
   6  -7  -1    4.75    2.78
   6   7  -1    6.39    1.56
   6   7  -1    5.21    1.76
  -6   7   1    2.96    1.22
  -5  -7   1    2.13    1.33
  -5  -7   1    3.08    1.26
   5  -7  -1    1.94    3.05
   5   7  -1    5.93    1.67
  -5   7   1    2.75    1.24
   5   7  -1    6.29    1.51
   4  -7  -1    1.88    2.85
  -4  -7   1    1.48    1.26
  -4  -7   1    0.96    0.92
   4  -7  -1    3.52    1.10
  -4   7   1    1.57    0.43
  -4   7   1    3.04    1.39
   4   7  -1    2.50    0.48
   4   7  -1    2.62    1.38
   4   7  -1    3.43    1.49
  -4   7   1    1.49    1.22
  -3  -7   1    0.98    1.29
   3  -7  -1    0.13    1.03
  -3  -7   1   -1.68    0.97
  -3   7   1    1.00    0.71
   3   7  -1    0.17    0.61
   3   7  -1    1.31    1.19
  -3   7   1    0.33    0.52
   3   7  -1   -0.32    1.31
  -3   7   1    0.03    1.15
  -3   7   1   -1.15    1.26
  -2  -7   1   12.12    2.42
   2  -7  -1   12.07    1.76
  -2  -7   1   11.67    1.79
   2  -7  -1   13.67    2.03
  -2   7   1   12.63    2.03
  -2   7   1   13.29    1.53
   2   7  -1   15.30    1.71
  -2   7   1   13.53    1.90
   2   7  -1   16.82    1.69
  -2   7   1   14.78    1.76
  -1  -7   1    6.63    1.27
  -1  -7   1    7.91    1.53
   1  -7  -1    9.99    1.64
   1  -7  -1   10.02    1.82
   1  -7  -1    8.36    1.55
   1  -7  -1   10.28    1.83
  -1  -7   1    7.23    1.54
   1   7  -1   10.63    1.42
   1   7  -1    9.36    1.18
  -1   7   1   11.79    1.36
  -1   7   1    9.62    1.71
  -1   7   1    8.48    1.22
  -1   7   1    8.98    1.82
   0  -7  -1    5.64    1.18
   0  -7  -1    6.27    1.05
   0  -7   1    5.26    1.12
   0  -7  -1    5.14    1.59
   0  -7  -1    5.42    1.11
   0  -7   1    5.32    0.98
   0  -7   1    4.56    1.55
   0   7   1    6.81    1.06
   0   7  -1    5.01    1.14
   0   7   1    6.93    1.16
   0   7  -1    6.70    1.11
   0   7  -1    8.21    1.55
   0   7   1    8.26    1.44
   0   7   1    8.07    1.34
  -1  -7  -1   -0.68    1.03
   1  -7   1   -0.02    0.81
   1  -7   1    0.70    1.47
  -1  -7  -1   -1.46    1.37
  -1  -7  -1   -0.07    0.87
   1  -7   1   -1.58    1.00
   1   7   1    0.23    0.84
  -1   7  -1    0.01    0.71
  -1   7  -1   -0.80    1.07
  -1   7  -1    0.14    0.79
   1   7   1    0.45    0.86
  -1   7  -1    0.83    0.57
   1   7   1   -0.83    0.66
  -2  -7  -1   11.74    1.96
  -2  -7  -1   11.79    1.96
  -2  -7  -1   15.23    1.87
   2  -7   1   15.31    2.07
   2  -7   1   11.98    1.72
  -2  -7  -1   11.58    2.40
  -2   7  -1   16.91    1.56
   2   7   1   15.53    1.63
  -2   7  -1   13.99    2.25
  -2   7  -1   18.89    1.86
   2   7   1   15.29    1.77
  -2   7  -1   13.23    1.50
   2   7   1   17.74    1.87
  -3  -7  -1    0.31    1.23
  -3  -7  -1    0.40    1.15
   3  -7   1    0.36    1.03
  -3  -7  -1    1.06    0.91
   3   7   1    1.53    0.69
  -3   7  -1    1.80    0.70
  -3   7  -1    1.45    0.47
  -3   7  -1    0.66    1.19
   3   7   1   -0.29    1.45
   4  -7   1    1.11    1.03
  -4  -7  -1   -0.26    1.18
  -4  -7  -1    0.90    1.28
   4  -7   1   -1.95    2.78
  -4   7  -1    0.00    1.32
   4   7   1    0.85    0.49
  -4   7  -1   -0.67    1.22
   4   7   1    0.61    1.51
  -5  -7  -1    1.34    1.25
   5  -7   1   -2.07    2.84
  -5  -7  -1    0.48    1.19
  -5   7  -1    0.07    1.33
   5   7   1    2.86    1.64
  -5   7  -1    0.17    1.41
   6  -7   1   -1.58    2.48
  -6  -7  -1    0.36    1.20
   6   7   1   -1.58    1.62
  -6   7  -1    3.02    1.34
  -7  -7  -1    0.55    0.85
  -7  -7  -1    1.10    0.83
   7   7   1    0.89    1.39
   7   7   1    0.32    1.24
  -7  -8   1    2.32    0.76
   7   8  -1    0.77    0.97
  -6  -8   1    1.41    1.18
   6  -8  -1    0.72    2.88
  -6  -8   1    0.37    1.20
   6   8  -1    1.72    1.37
   6   8  -1    3.09    1.52
  -6   8   1   -0.07    1.09
   5  -8  -1    3.57    3.15
  -5  -8   1    1.18    1.41
   5  -8  -1    1.07    1.22
   5   8  -1    1.63    1.41
   5   8  -1    1.85    1.55
  -5   8   1   -0.51    1.21
  -5   8   1    0.21    1.42
   4  -8  -1   22.41    3.85
  -4  -8   1   30.29    3.24
  -4  -8   1   24.15    2.85
   4   8  -1   34.70    2.80
  -4   8   1   24.83    2.85
  -4   8   1   32.91    3.10
   4   8  -1   28.59    2.82
  -3  -8   1    0.71    1.08
  -3  -8   1    2.37    1.42
   3  -8  -1    0.49    1.14
   3   8  -1    3.71    1.43
  -3   8   1   -0.45    1.38
  -3   8   1    0.43    1.22
  -2  -8   1   33.85    3.45
  -2  -8   1   39.37    3.78
   2  -8  -1   43.72    3.55
  -2   8   1   42.69    3.36
  -2   8   1   35.94    3.42
   1  -8  -1   -1.61    1.04
  -1  -8   1   -0.42    1.52
  -1  -8   1   -1.68    1.02
  -1   8   1    0.04    1.06
  -1   8   1    0.38    1.10
   1   8  -1    0.99    0.56
  -1   8   1   -0.16    0.63
   0  -8  -1  125.75    9.02
   0  -8  -1  130.25    9.59
   0  -8   1  131.26    9.57
   0  -8  -1  146.32    9.71
   0   8   1  136.55    8.86
   0   8  -1  117.97    8.08
   0   8  -1  113.12    9.10
  -1  -8  -1    0.95    1.20
   1  -8   1    1.52    1.12
  -1  -8  -1    1.25    1.64
  -1  -8  -1   -0.30    1.05
   1  -8   1    2.27    1.67
   1  -8   1    2.88    1.04
  -1   8  -1    2.88    0.68
  -1   8  -1    1.57    1.21
   1   8   1    3.33    0.98
  -2  -8  -1   59.52    4.78
  -2  -8  -1   51.37    4.27
  -2  -8  -1   55.20    4.43
  -2   8  -1   46.33    4.37
   2   8   1   59.40    4.03
  -3  -8  -1    1.46    1.00
  -3  -8  -1    3.13    1.49
  -3  -8  -1    0.48    1.28
   3  -8   1    3.03    1.22
   3   8   1    4.75    1.61
  -3   8  -1    1.07    1.31
  -4  -8  -1   41.58    3.51
   4  -8   1   32.86    5.00
  -4  -8  -1   29.51    3.18
  -4  -8  -1   29.12    3.06
  -4   8  -1   34.88    3.31
   4   8   1   42.69    3.29
   5  -8   1    0.71    1.19
  -5  -8  -1    0.16    1.24
   5  -8   1    1.42    2.96
  -5   8  -1   -0.76    1.47
  -5   8  -1   -1.44    1.29
   5   8   1    2.03    1.64
   6  -8   1   14.61    3.43
  -6  -8  -1   22.58    2.53
   6   8   1   24.09    2.49
  -7   8  -1   11.89    1.31
   6   9  -1    2.60    1.05
   6   9  -1    1.71    0.99
  -6   9   1    1.63    0.87
  -5  -9   1    1.01    0.78
  -5  -9   1    0.78    1.37
   5  -9  -1   -0.27    2.93
  -5   9   1    1.60    1.11
   5   9  -1    0.81    1.36
  -4  -9   1    4.40    1.56
  -4  -9   1    2.71    1.05
  -4  -9   1    4.82    1.48
   4  -9  -1    2.61    3.02
   4  -9  -1    5.35    1.37
  -4   9   1    8.46    1.63
   4   9  -1    6.33    1.53
  -4   9   1    4.28    1.32
  -3  -9   1    1.48    1.48
  -3  -9   1    0.23    1.28
   3  -9  -1   -0.20    1.19
  -3  -9   1   -0.53    1.11
  -3   9   1    1.23    1.34
  -3   9   1    0.68    1.20
   3   9  -1    1.06    1.42
   2  -9  -1   -0.34    1.15
  -2  -9   1   -0.44    1.17
  -2  -9   1    1.33    1.24
  -2  -9   1   -0.17    1.57
  -2   9   1    0.67    1.27
  -2   9   1    0.88    1.15
  -1  -9   1    5.00    1.87
   1  -9  -1    6.60    1.32
  -1  -9   1    9.50    1.90
  -1   9   1    6.23    1.28
  -1   9   1    6.59    1.44
   0  -9  -1   -1.18    1.05
   0  -9   1   -0.43    1.75
   0  -9  -1   -0.38    1.14
   0  -9  -1   -1.16    1.71
   0  -9   1   -1.05    1.08
   0  -9   1    0.58    1.12
   0   9   1    0.42    1.12
   0   9  -1    1.17    1.16
  -1  -9  -1   -0.64    1.23
   1  -9   1    0.37    1.16
   1  -9   1    0.94    1.13
   1  -9   1    0.28    1.77
  -1  -9  -1    1.79    1.68
  -1   9  -1    1.39    1.16
  -2  -9  -1   -1.14    1.00
  -2  -9  -1    0.04    1.65
   2  -9   1   -0.92    1.19
  -2  -9  -1   -0.72    1.27
   2   9   1    0.23    0.61
  -2   9  -1   -0.65    1.23
   3  -9   1    2.49    1.21
  -3  -9  -1    0.97    1.34
  -3  -9  -1    1.59    1.61
  -3  -9  -1    0.67    1.03
   3   9   1    2.96    1.63
  -3   9  -1    2.91    1.29
  -3   9  -1    1.77    1.41
   4  -9   1   -0.10    1.10
   4  -9   1   -1.61    2.78
  -4  -9  -1   -1.22    1.27
  -4  -9  -1   -0.12    0.94
  -4  -9  -1   -0.21    1.48
  -4   9  -1   -0.23    1.29
   4   9   1    0.10    1.57
  -4   9  -1   -0.48    1.44
   5  -9   1    1.36    1.16
   5  -9   1   -2.50    2.94
   5   9   1   -0.52    1.18
  -5   9  -1    1.73    1.06
  -6  -9  -1    3.77    0.97
  -5 -10   1    7.56    1.34
  -5  10   1    9.41    1.66
  -4 -10   1    9.45    1.94
  -4 -10   1   12.75    2.60
   4 -10  -1    7.80    1.50
  -4 -10   1    8.18    1.67
   4 -10  -1    9.33    3.05
   3 -10  -1   12.15    2.23
  -3  10   1    7.71    1.43
   3  10  -1    9.12    1.53
  -3  10   1    9.83    2.06
   3  10  -1   14.36    2.16
  -2 -10   1    0.82    1.68
  -2 -10   1   -0.78    1.35
   2 -10  -1   -0.15    1.20
  -2 -10   1    0.16    1.18
  -2  10   1    0.70    1.22
  -2  10   1    1.42    1.31
   2  10  -1   -0.34    0.91
  -1 -10   1   13.08    2.29
   1 -10  -1    9.47    2.06
  -1 -10   1   10.86    2.44
  -1 -10   1   12.59    2.20
   1 -10  -1   12.05    2.22
   1  10  -1   12.52    1.88
  -1  10   1   14.94    2.22
  -1  10   1   13.67    2.07
   0 -10   1    2.01    1.15
   0 -10   1    0.71    1.31
   0 -10  -1    0.22    1.09
   0 -10  -1   -0.23    1.93
   0 -10   1    0.65    1.85
   0  10   1    0.33    0.98
   0  10  -1    2.57    1.10
  -1 -10  -1    9.41    2.01
   1 -10   1   11.49    2.22
  -1 -10  -1    6.25    1.40
   1 -10   1   13.15    2.22
  -1 -10  -1    7.16    1.52
  -1  10  -1    9.97    1.58
   1  10   1   10.01    1.59
  -2 -10  -1   -0.50    1.73
   2 -10   1    1.15    1.22
  -2 -10  -1   -1.53    1.31
  -2 -10  -1   -1.05    1.13
  -2  10  -1   -1.06    1.29
   2  10   1    0.88    0.85
  -2  10  -1    1.85    1.19
  -3 -10  -1    5.59    1.29
  -3 -10  -1    6.54    1.28
  -3  10  -1    8.90    1.42
  -4 -10  -1    4.12    1.51
  -4 -10  -1   -1.00    1.33
   4 -10   1    1.98    1.10
   4 -10   1    5.92    2.96
  -4  10  -1    1.20    1.24
   4  10   1    0.60    1.12
  -4  10  -1    3.11    1.38
   5 -10   1    0.92    0.88
  -4 -11   1    1.62    0.71
   4  11  -1    1.43    0.75
   3 -11  -1    0.19    1.05
  -3 -11   1    1.17    0.99
   3  11  -1    1.04    0.38
   3  11  -1    1.23    0.96
   2 -11  -1    3.35    1.24
  -2 -11   1    1.87    1.20
  -2 -11   1    1.87    1.31
  -2 -11   1    3.75    1.76
  -2  11   1    6.67    1.43
   2  11  -1    3.91    0.94
  -1 -11   1    0.21    1.14
  -1 -11   1    0.27    1.10
  -1 -11   1    1.41    1.72
   1 -11  -1    0.41    1.05
  -1  11   1    1.41    1.16
   0 -11   1   -0.70    1.18
   0 -11   1    0.64    1.18
   0 -11   1    0.39    1.81
   0 -11  -1   -0.59    1.10
   0  11   1    2.65    1.02
   0  11  -1   -0.99    1.07
  -1 -11  -1    0.25    1.75
  -1 -11  -1   -0.98    1.04
  -1 -11  -1   -0.14    1.14
   1 -11   1    0.73    1.11
  -1  11  -1   -1.79    1.12
   1  11   1    1.56    0.76
  -1  11  -1    2.83    1.13
  -2 -11  -1    1.24    1.61
  -2 -11  -1    0.13    1.13
   2 -11   1    1.96    1.20
   2  11   1    2.17    0.75
  -2  11  -1    3.53    1.15
  -2  11  -1   -0.32    1.30
   3 -11   1    0.17    1.01
  -3 -11  -1   -0.25    0.91
   3  11   1    2.38    1.17
   2  12  -1    7.06    1.20
   0 -12   1    0.07    0.88
  -9   0   2    2.24    0.82
  -8   0   2   28.88    2.59
  -8   0   2   25.76    3.47
  -7   0   2   -0.71    1.79
  -7   0   2    0.28    1.20
  -6   0   2   31.12    2.55
  -6   0   2   27.82    3.16
   5   0  -2   -0.11    1.75
  -5   0   2   -0.48    0.77
  -5   0   2   -0.88    0.93
  -5   0   2   -2.19    1.29
  -5   0   2   -0.98    0.97
  -5   0   2   -2.43    1.43
   4   0  -2  104.51    8.02
  -4   0   2  112.20    7.01
  -4   0   2  122.91    6.90
  -4   0   2  116.66    8.07
  -4   0   2  124.50    7.35
  -4   0   2  110.07    7.91
  -4   0   2  110.62    7.19
  -3   0   2    0.15    0.77
  -3   0   2    0.33    1.03
  -3   0   2   -0.44    0.60
   3   0  -2   -0.04    1.05
  -3   0   2   -1.20    0.60
   2   0  -2  120.81    6.88
  -2   0   2  106.89    6.87
   2   0  -2  108.67    7.59
   2   0  -2  105.33    7.61
  -2   0   2  108.44    7.60
  -2   0   2  115.24    6.70
  -2   0   2  110.68    7.56
  -1   0   2    0.48    0.37
  -1   0   2   -0.18    0.29
   1   0  -2    0.02    0.37
  -1   0   2    0.09    0.36
  -1   0   2    0.14    0.38
   1   0  -2    0.02    0.36
   1   0  -2   -0.20    0.29
   1   0  -2    0.43    0.49
  -1   0   2    0.01    0.37
   1   0  -2    0.28    0.38
  -1   0   2    0.41    0.46
   0   0  -2  163.72   11.14
   0   0   2  150.76   10.05
   0   0   2  172.42   11.83
   0   0   2  166.66   10.96
  -1   0  -2   -0.16    0.41
   1   0   2   -0.26    0.30
   1   0   2   -0.56    0.29
   1   0   2    0.05    0.32
  -1   0  -2    0.01    0.28
  -2   0  -2  135.10    9.59
   2   0   2  137.77    9.56
   2   0   2  140.59    8.42
  -2   0  -2  149.59    8.45
   2   0   2  145.03    8.47
  -2   0  -2  135.61    8.40
  -3   0  -2   -0.55    0.80
  -3   0  -2   -0.43    0.53
  -3   0  -2   -0.82    0.39
   3   0   2   -1.22    0.66
   3   0   2    2.52    1.17
   3   0   2   -0.04    0.70
  -3   0  -2    0.67    1.09
  -3   0  -2    0.03    1.06
   4   0   2   88.16    6.30
  -4   0  -2  112.48    7.12
  -4   0  -2  103.24    7.44
   4   0   2  103.18    6.24
  -4   0  -2   95.18    6.14
  -4   0  -2  109.90    6.69
  -4   0  -2  105.10    7.26
  -4   0  -2   98.01    6.23
  -5   0  -2    0.73    1.33
   5   0   2   -1.01    1.00
  -5   0  -2    1.83    1.55
  -5   0  -2    1.68    1.48
  -5   0  -2   -1.22    1.05
  -5   0  -2    0.58    0.83
  -5   0  -2    0.46    0.66
  -6   0  -2  135.81    9.16
  -6   0  -2  134.88    8.77
  -6   0  -2  145.73   10.11
  -7   0  -2    3.21    1.83
  -7   0  -2    2.04    1.96
  -8   0  -2   67.01    5.73
  -9  -1   2    9.07    1.36
  -9   1   2   13.54    1.57
  -8  -1   2    3.66    2.01
  -8  -1   2    4.42    1.26
  -8   1   2    4.23    1.32
  -8   1   2    5.04    1.99
  -7  -1   2    1.23    1.23
  -7  -1   2    3.18    1.87
  -7   1   2    2.38    1.84
  -7   1   2    2.43    1.23
  -6  -1   2   35.88    2.80
  -6  -1   2   41.27    3.47
  -6   1   2   31.80    2.78
  -6   1   2   35.83    3.34
   6   1  -2   31.63    3.58
  -5  -1   2   62.62    4.14
  -5  -1   2   64.46    4.02
  -5  -1   2   69.61    4.48
  -5  -1   2   65.39    4.50
  -5  -1   2   64.17    3.82
  -5  -1   2   67.74    4.81
   5  -1  -2   54.54    5.20
  -5   1   2   65.42    4.91
   5   1  -2   51.37    4.77
  -5   1   2   58.17    4.12
  -5   1   2   54.13    3.98
  -5   1   2   57.48    4.53
  -5   1   2   63.12    3.81
  -4  -1   2   23.05    2.35
   4  -1  -2   21.94    3.03
   4  -1  -2   23.53    2.53
  -4  -1   2   28.16    1.69
  -4  -1   2   23.53    1.90
  -4  -1   2   24.50    2.61
  -4  -1   2   26.46    2.00
  -4  -1   2   26.85    2.12
  -4  -1   2   25.61    2.32
  -4   1   2   23.52    1.98
  -4   1   2   23.70    2.68
  -4   1   2   22.10    1.92
  -4   1   2   24.77    2.19
  -4   1   2   26.06    1.69
   4   1  -2   23.22    2.49
  -3  -1   2   30.19    2.19
   3  -1  -2   26.62    2.81
  -3  -1   2   27.24    1.99
  -3  -1   2   30.11    2.17
  -3  -1   2   27.90    2.47
  -3  -1   2   25.95    1.93
   3  -1  -2   23.83    2.40
  -3  -1   2   25.26    2.40
  -3   1   2   25.05    1.97
   3   1  -2   26.10    2.33
  -3   1   2   26.91    2.22
  -3   1   2   27.62    2.60
   3   1  -2   24.95    1.96
  -3   1   2   30.83    1.78
   3   1  -2   31.44    1.94
  -2  -1   2    3.06    0.69
   2  -1  -2    1.50    0.79
  -2  -1   2    1.17    0.61
  -2  -1   2    2.47    0.51
  -2  -1   2    2.54    0.47
   2  -1  -2    1.56    0.93
  -2  -1   2    2.86    0.55
  -2   1   2    1.95    0.63
   2   1  -2    1.73    0.53
  -2   1   2    1.30    0.85
  -2   1   2    1.38    0.47
   2   1  -2    2.38    0.50
  -2   1   2    2.40    0.47
   2   1  -2    2.05    0.46
   2   1  -2    2.20    0.73
   1  -1  -2  421.57   30.43
  -1  -1   2  392.96   30.43
   1  -1  -2  430.89   28.21
  -1  -1   2  427.26   29.86
   1  -1  -2  417.64   28.29
  -1  -1   2  407.28   25.92
   1   1  -2  459.72   25.93
  -1   1   2  412.68   25.91
  -1   1   2  421.61   28.21
   1   1  -2  421.42   30.43
  -1   1   2  422.76   30.43
  -1   1   2  410.95   28.48
   1   1  -2  451.86   29.86
   0  -1  -2    1.32    0.32
   0  -1  -2    1.56    0.31
   0  -1  -2    1.13    0.34
   0   1   2    2.35    0.47
   0   1   2    2.07    0.41
   0   1  -2    2.34    0.45
   0   1  -2    1.22    0.27
   0   1  -2    1.77    0.30
   0   1   2    1.62    0.30
   1  -1   2   21.87    1.93
   1  -1   2   24.47    1.88
  -1  -1  -2   21.72    1.69
   1  -1   2   26.63    1.91
   1  -1   2   23.52    1.60
  -1  -1  -2   27.15    1.83
   1   1   2   21.14    1.68
  -1   1  -2   28.14    1.92
  -1   1  -2   25.28    1.92
   1   1   2   27.93    1.68
  -1   1  -2   26.75    1.58
   1   1   2   27.03    1.82
  -2  -1  -2   85.00    5.51
   2  -1   2   78.83    5.59
   2  -1   2   78.21    5.65
  -2  -1  -2   72.87    4.86
  -2  -1  -2   75.57    5.07
  -2  -1  -2   83.73    5.50
  -2  -1  -2   76.91    4.81
   2  -1   2   79.58    4.84
   2   1   2   70.72    4.88
   2   1   2   83.07    4.83
  -2   1  -2   78.27    5.66
  -2   1  -2   79.70    5.62
  -2   1  -2   88.98    4.86
  -2   1  -2   79.83    4.82
   2   1   2   88.06    5.50
  -3  -1  -2   56.25    3.57
  -3  -1  -2   61.93    4.08
   3  -1   2   61.82    4.42
  -3  -1  -2   56.52    4.31
  -3  -1  -2   59.03    3.96
  -3  -1  -2   54.45    3.65
   3  -1   2   55.14    3.64
  -3  -1  -2   65.36    4.19
  -3   1  -2   59.40    4.19
   3   1   2   60.13    3.64
  -3   1  -2   60.41    3.64
  -3   1  -2   54.61    3.57
  -3   1  -2   58.74    4.39
   3   1   2   49.28    3.71
  -3   1  -2   62.56    4.44
  -4  -1  -2   31.07    2.43
  -4  -1  -2   31.27    2.68
  -4  -1  -2   23.70    2.03
  -4  -1  -2   28.15    1.90
   4  -1   2   29.75    3.07
  -4  -1  -2   30.24    2.83
   4  -1   2   25.71    2.15
  -4   1  -2   31.93    2.49
  -4   1  -2   30.72    2.84
  -4   1  -2   26.75    1.90
  -4   1  -2   30.74    2.05
  -4   1  -2   31.28    2.96
   4   1   2   28.40    2.16
   4   1   2   24.06    2.31
  -5  -1  -2    0.18    0.64
   5  -1   2    0.92    1.00
  -5  -1  -2   -1.69    1.06
   5  -1   2    1.90    1.81
  -5  -1  -2    1.00    0.47
  -5  -1  -2    1.23    1.57
  -5  -1  -2    0.49    1.34
   5   1   2    1.34    0.96
  -5   1  -2    0.98    1.36
  -5   1  -2   -0.72    1.03
  -5   1  -2   -0.78    0.65
  -5   1  -2    0.52    0.44
  -5   1  -2    0.01    1.43
   5   1   2   -0.72    1.17
  -6  -1  -2    1.42    1.74
  -6  -1  -2    2.31    1.95
  -6   1  -2    1.90    1.63
  -7  -1  -2    2.21    1.88
  -7  -1  -2    2.34    2.04
  -7   1  -2    2.35    1.93
  -7   1  -2    2.05    1.19
  -7   1  -2    2.22    1.74
  -8  -1  -2   -1.22    1.51
  -8  -1  -2   -1.43    1.85
  -8   1  -2    1.14    1.11
  -8   1  -2    1.43    1.55
  -9   1  -2    6.92    1.11
  -9  -2   2   16.35    1.52
  -8  -2   2   -0.40    1.17
  -8  -2   2   -0.92    1.95
  -8   2   2    0.77    1.22
  -8   2   2    2.11    1.86
  -7  -2   2   42.72    3.88
  -7  -2   2   38.11    3.13
   7   2  -2   35.26    4.02
  -7   2   2   36.59    3.09
  -6  -2   2    0.84    1.70
   6  -2  -2    0.69    2.33
  -6  -2   2   -0.74    1.06
  -6  -2   2    0.12    1.14
   6   2  -2    1.61    1.85
  -6   2   2   -0.24    1.11
  -5  -2   2   61.35    4.01
  -5  -2   2   66.71    4.19
  -5  -2   2   63.96    3.83
  -5  -2   2   64.23    4.55
  -5  -2   2   59.97    4.80
  -5  -2   2   68.21    4.81
  -5   2   2   64.46    4.92
   5   2  -2   57.51    4.14
  -5   2   2   57.30    3.98
  -5   2   2   63.45    4.16
  -5   2   2   57.23    4.56
   5   2  -2   57.45    4.85
  -5   2   2   60.36    3.83
   4  -2  -2   15.37    2.76
  -4  -2   2   15.78    1.66
  -4  -2   2   17.45    1.73
  -4  -2   2   19.16    2.00
  -4  -2   2   16.94    2.08
  -4  -2   2   15.23    1.86
  -4  -2   2   15.95    1.49
  -4  -2   2   13.50    1.23
  -4   2   2   15.15    2.32
  -4   2   2   13.02    1.26
   4   2  -2   14.07    1.63
   4   2  -2   14.86    2.10
  -4   2   2   14.53    1.76
   4   2  -2   17.95    1.36
   3  -2  -2  110.24    8.33
  -3  -2   2  117.57    7.28
  -3  -2   2  130.34    8.23
  -3  -2   2  122.45    7.50
  -3  -2   2  125.68    7.51
   3  -2  -2  103.38    8.41
  -3  -2   2  109.59    8.63
   3   2  -2  115.75    7.50
   3   2  -2  111.95    8.29
  -3   2   2  137.78    7.20
   3   2  -2  117.11    7.28
   3   2  -2  136.23    7.48
  -3   2   2  119.15    8.25
   2  -2  -2    3.67    0.85
  -2  -2   2    5.20    0.80
  -2  -2   2    6.06    1.06
   2  -2  -2    4.74    1.16
  -2  -2   2    5.99    0.92
  -2  -2   2    4.42    0.81
   2   2  -2    5.34    0.90
   2   2  -2    4.35    0.72
   2   2  -2    5.95    1.11
  -2   2   2    5.69    0.79
   2   2  -2    5.85    0.86
  -2   2   2    4.21    0.66
   2   2  -2    4.73    0.80
  -1  -2   2  208.84   16.65
  -1  -2   2  201.98   16.34
  -1  -2   2  260.13   15.81
   1  -2  -2  217.99   16.65
   1  -2  -2  225.71   15.44
  -1  -2   2  239.13   14.20
   1  -2  -2  245.06   15.80
   1   2  -2  231.19   14.21
  -1   2   2  238.97   16.65
   1   2  -2  254.59   15.81
  -1   2   2  232.21   15.44
   1   2  -2  205.91   16.65
   1   2  -2  239.90   16.36
   0  -2   2    6.73    0.93
   0  -2  -2    6.27    0.73
   0  -2   2    7.82    0.86
   0  -2  -2    6.17    0.81
   0  -2   2    7.88    0.75
   0  -2  -2    7.68    0.90
   0   2  -2    7.39    0.84
   0   2   2    5.42    1.02
   0   2  -2    8.16    0.81
   0   2   2    5.88    0.81
   0   2  -2    8.55    0.74
   0   2   2    5.64    0.74
   0   2   2    5.12    0.75
  -1  -2  -2  480.28   34.20
   1  -2   2  491.32   32.49
   1  -2   2  508.54   34.21
   1  -2   2  467.29   28.19
  -1  -2  -2  439.33   33.55
  -1  -2  -2  484.03   32.21
  -1   2  -2  547.19   34.21
   1   2   2  478.36   34.21
   1   2   2  458.86   29.04
  -1   2  -2  471.84   32.49
   1   2   2  454.91   31.70
   1   2   2  412.34   33.54
   1   2   2  484.02   32.21
  -2  -2  -2  100.78    6.52
   2  -2   2   96.61    6.62
   2  -2   2  101.34    6.65
  -2  -2  -2   86.13    5.96
   2  -2   2   95.60    5.72
   2   2   2   99.03    5.69
  -2   2  -2   93.51    6.64
   2   2   2   86.11    6.80
   2   2   2   97.12    5.82
  -2   2  -2   95.53    5.70
   2   2   2   88.56    5.93
   3  -2   2  340.30   20.46
   3  -2   2  354.14   23.19
  -3  -2  -2  329.56   20.56
  -3  -2  -2  345.23   20.43
   3  -2   2  336.94   23.62
  -3  -2  -2  381.30   23.27
  -3  -2  -2  328.83   21.15
  -3  -2  -2  368.12   23.36
  -3   2  -2  346.34   20.44
   3   2   2  358.84   23.27
   3   2   2  315.12   21.10
   3   2   2  319.87   20.58
   3   2   2  371.70   20.46
  -3   2  -2  318.15   23.61
  -4  -2  -2   56.29    4.19
  -4  -2  -2   57.34    3.77
  -4  -2  -2   61.37    4.19
  -4  -2  -2   64.55    4.31
   4  -2   2   66.62    4.79
   4  -2   2   55.48    3.77
  -4  -2  -2   56.53    3.62
  -4  -2  -2   59.36    4.48
   4   2   2   56.60    3.94
  -4   2  -2   59.96    4.52
  -4   2  -2   60.90    4.38
  -4   2  -2   55.13    3.64
   4   2   2   52.97    4.40
   4   2   2   61.85    3.76
   5  -2   2   98.48    6.67
  -5  -2  -2   97.41    6.65
  -5  -2  -2  110.46    7.21
  -5  -2  -2  121.54    7.61
  -5  -2  -2  111.43    7.77
  -5  -2  -2  110.07    6.54
   5   2   2   96.75    6.83
  -5   2  -2  113.72    6.66
  -5   2  -2   99.73    6.53
  -5   2  -2  114.61    7.79
  -5   2  -2  116.28    7.90
  -5   2  -2  107.46    7.63
  -6  -2  -2   44.27    3.96
   6  -2   2   47.92    4.55
   6   2   2   35.88    3.44
  -6   2  -2   48.75    4.07
  -7  -2  -2   56.22    4.76
  -7  -2  -2   55.81    5.08
  -7   2  -2   50.83    4.69
  -7   2  -2   50.58    3.87
  -8  -2  -2    4.77    1.97
  -8  -2  -2    4.30    2.12
  -8   2  -2    3.35    1.25
  -8   2  -2    2.53    1.78
  -8   2  -2    5.07    1.85
  -9  -2  -2    7.08    1.46
  -8  -3   2    1.48    1.58
  -8   3   2    2.67    1.10
   8   3  -2    0.30    1.37
  -7  -3   2    3.74    2.02
   7  -3  -2    2.84    2.72
  -7   3   2    4.51    1.36
   7   3  -2    6.16    2.07
   6  -3  -2   35.65    4.83
  -6  -3   2   39.21    2.58
  -6  -3   2   45.16    3.28
  -6  -3   2   48.96    3.73
  -6  -3   2   38.06    3.54
   6   3  -2   37.49    3.23
  -6   3   2   41.36    3.16
   6   3  -2   38.52    3.88
  -5  -3   2    1.14    0.78
  -5  -3   2    1.06    1.44
  -5  -3   2   -0.43    1.02
  -5  -3   2   -0.40    1.16
  -5  -3   2    0.65    0.51
  -5  -3   2   -0.16    1.01
   5  -3  -2    0.46    2.23
   5   3  -2    0.15    1.69
  -5   3   2    0.18    0.52
   5   3  -2    1.22    1.12
   4  -3  -2   54.10    3.90
  -4  -3   2   54.40    3.65
  -4  -3   2   49.73    3.39
  -4  -3   2   52.78    3.54
  -4  -3   2   47.66    4.04
  -4  -3   2   55.70    3.82
   4  -3  -2   45.81    4.61
  -4   3   2   58.82    3.22
   4   3  -2   49.31    4.04
   4   3  -2   48.94    3.46
   4   3  -2   53.43    3.38
   4   3  -2   47.90    3.54
  -4   3   2   45.49    3.71
  -4   3   2   52.64    3.89
   3  -3  -2   18.43    2.78
  -3  -3   2   21.07    1.84
  -3  -3   2   20.22    2.11
   3   3  -2   24.80    1.74
   3   3  -2   19.39    2.13
  -3   3   2   26.68    1.53
   3   3  -2   21.19    1.79
   3   3  -2   22.97    2.10
  -3   3   2   21.24    1.91
  -2  -3   2  251.93   18.48
  -2  -3   2  227.71   18.16
   2  -3  -2  269.77   18.48
  -2  -3   2  230.31   15.74
  -2  -3   2  267.24   17.54
   2   3  -2  253.12   15.74
   2   3  -2  259.52   15.78
   2   3  -2  219.09   17.33
   2   3  -2  229.43   18.47
  -2   3   2  274.39   17.54
  -2   3   2  296.95   15.21
  -2   3   2  251.10   17.32
  -2   3   2  283.21   18.46
   2   3  -2  249.42   15.30
  -2   3   2  260.76   17.15
   2   3  -2  268.78   18.17
  -1  -3   2   12.95    1.12
  -1  -3   2   10.52    1.41
   1  -3  -2   13.13    1.29
  -1  -3   2   14.22    1.25
  -1   3   2   11.67    1.21
   1   3  -2   13.40    1.15
  -1   3   2   14.39    1.21
  -1   3   2   11.05    1.39
   1   3  -2   10.51    1.22
  -1   3   2   13.17    1.18
   1   3  -2   12.59    1.36
   1   3  -2   11.08    1.23
   0  -3   2  169.69   12.86
   0  -3   2  181.85   12.43
   0  -3  -2  171.86   12.90
   0  -3   2  187.44   13.10
   0  -3   2  189.51   11.17
   0  -3  -2  172.03   13.09
   0  -3  -2  166.22   12.31
   0   3   2  180.05   12.13
   0   3   2  194.37   13.09
   0   3  -2  186.98   12.44
   0   3  -2  180.60   11.16
   0   3   2  175.91   12.87
   0   3  -2  188.04   12.86
   0   3  -2  186.74   13.09
   1  -3   2    0.48    0.52
  -1  -3  -2    0.44    0.55
   1  -3   2   -0.16    0.61
  -1  -3  -2   -0.15    0.70
   1  -3   2    0.08    0.53
  -1  -3  -2    0.18    0.49
   1   3   2    0.36    0.45
  -1   3  -2    0.46    0.42
  -1   3  -2    1.70    0.65
   1   3   2    0.67    0.60
  -1   3  -2    0.78    0.50
   1   3   2   -0.03    0.47
  -2  -3  -2   71.51    5.22
  -2  -3  -2   68.43    5.20
  -2  -3  -2   78.23    4.97
   2  -3   2   69.62    4.32
   2  -3   2   70.97    5.03
   2  -3   2   75.12    5.25
  -2   3  -2   79.53    5.21
   2   3   2   62.66    5.23
  -2   3  -2   72.67    5.08
   2   3   2   66.51    4.52
   2   3   2   64.27    4.50
  -2   3  -2   69.79    4.30
   2   3   2   69.29    5.20
   3  -3   2    6.39    1.29
   3  -3   2    4.14    0.77
   3  -3   2    5.40    1.57
  -3  -3  -2    5.47    1.09
  -3  -3  -2    3.93    1.07
  -3   3  -2    4.43    0.78
  -3   3  -2    4.78    1.00
   3   3   2    4.80    1.03
   3   3   2    5.45    0.86
  -4  -3  -2   37.57    2.64
   4  -3   2   40.18    3.58
  -4  -3  -2   33.25    2.73
  -4  -3  -2   34.09    2.98
  -4  -3  -2   31.57    2.19
   4  -3   2   31.66    2.47
   4  -3   2   33.83    2.87
   4   3   2   34.15    2.55
  -4   3  -2   33.31    2.23
   4   3   2   28.37    2.71
  -4   3  -2   39.74    2.37
  -4   3  -2   32.51    3.03
   4   3   2   31.64    2.91
  -5  -3  -2   11.98    1.47
  -5  -3  -2    8.90    1.81
  -5  -3  -2    9.43    1.68
  -5  -3  -2    6.70    1.48
  -5  -3  -2   10.32    0.98
   5  -3   2    9.61    2.34
   5  -3   2    9.00    1.22
  -5   3  -2    8.22    1.72
   5   3   2    8.03    1.53
  -5   3  -2   10.31    1.01
  -5   3  -2    8.97    1.24
  -5   3  -2   14.69    2.32
   5   3   2    9.19    1.74
  -6  -3  -2    7.74    1.97
   6  -3   2    7.01    2.53
  -6  -3  -2    6.15    0.72
  -6   3  -2    6.84    1.65
   6   3   2    7.62    1.62
   7  -3   2    3.42    2.48
  -7  -3  -2   -0.12    2.09
   7   3   2    0.02    1.48
  -7   3  -2   -0.68    1.63
  -8  -3  -2    2.67    1.90
  -8  -3  -2    4.20    2.14
   8  -4  -2    3.05    2.56
  -8   4   2    0.93    1.27
   8   4  -2    1.57    1.92
   7  -4  -2   14.64    3.37
  -7  -4   2   20.33    2.59
  -7   4   2   22.75    2.45
   7   4  -2   23.12    2.59
   7   4  -2   21.41    3.13
  -6  -4   2   11.64    2.19
   6  -4  -2   10.15    2.95
   6   4  -2   12.35    2.15
   6   4  -2   10.08    1.58
  -5  -4   2   27.40    1.89
  -5  -4   2   24.84    2.77
   5  -4  -2   29.36    4.18
   5   4  -2   28.87    2.51
   5   4  -2   28.55    2.32
  -5   4   2   25.73    1.90
   5   4  -2   28.18    3.04
  -5   4   2   28.10    2.60
   4  -4  -2   37.56    4.32
  -4  -4   2   40.99    3.22
  -4  -4   2   41.29    3.55
   4   4  -2   46.33    3.46
  -4   4   2   43.54    3.36
   4   4  -2   41.84    3.05
  -4   4   2   41.92    2.70
   4   4  -2   46.07    3.13
   4   4  -2   37.34    3.57
  -3  -4   2   63.74    5.24
  -3  -4   2   68.49    4.46
   3  -4  -2   72.51    4.98
   3  -4  -2   71.44    5.21
  -3  -4   2   65.37    4.93
   3   4  -2   73.47    5.22
  -3   4   2   73.87    5.12
   3   4  -2   59.76    5.14
  -3   4   2   66.21    5.20
  -3   4   2   74.41    4.22
  -3   4   2   66.57    4.96
  -3   4   2   75.05    4.97
   3   4  -2   71.02    4.42
   3   4  -2   71.06    4.44
  -3   4   2   64.09    4.90
   3   4  -2   67.48    4.55
  -2  -4   2   73.31    6.14
  -2  -4   2   85.99    5.87
  -2  -4   2   77.99    6.18
   2  -4  -2   83.15    6.18
  -2  -4   2   82.51    5.28
   2  -4  -2   87.21    5.89
  -2   4   2   79.63    5.77
   2   4  -2   85.06    5.36
  -2   4   2   81.88    6.13
   2   4  -2   78.43    5.32
   2   4  -2   76.91    6.15
  -2   4   2   92.14    6.15
   2   4  -2   82.89    5.16
  -2   4   2   91.88    5.89
   2   4  -2   91.85    6.14
   1  -4  -2   76.95    5.57
  -1  -4   2   76.15    5.28
  -1  -4   2   68.00    5.54
  -1  -4   2   73.07    4.74
   1  -4  -2   82.05    5.30
  -1  -4   2   74.45    5.58
   1   4  -2   78.08    5.50
  -1   4   2   72.24    5.52
   1   4  -2   71.63    4.74
  -1   4   2   80.60    5.27
   1   4  -2   71.38    5.54
   1   4  -2   72.98    5.28
  -1   4   2   70.98    5.16
  -1   4   2   77.46    5.53
   0  -4   2   61.17    4.72
   0  -4  -2   61.54    4.82
   0  -4   2   66.72    4.49
   0  -4  -2   53.91    4.70
   0  -4   2   61.24    4.75
   0   4   2   64.98    4.71
   0   4  -2   64.16    4.53
   0   4  -2   73.32    4.68
   0   4   2   67.05    4.48
   0   4   2   59.65    4.37
   0   4   2   64.09    4.71
   0   4  -2   61.63    4.68
   0   4  -2   59.66    4.02
  -1  -4  -2  172.88   12.72
   1  -4   2  187.95   13.51
   1  -4   2  196.98   12.84
   1  -4   2  200.92   13.31
  -1  -4  -2  170.15   13.50
  -1  -4  -2  199.45   12.86
  -1  -4  -2  180.64   13.33
  -1   4  -2  183.72   12.85
   1   4   2  177.51   13.50
   1   4   2  162.78   12.50
  -1   4  -2  177.54   11.52
   1   4   2  186.87   13.30
  -1   4  -2  205.01   13.50
  -1   4  -2  205.58   13.27
  -2  -4  -2   31.38    2.99
   2  -4   2   37.80    2.81
  -2  -4  -2   34.20    2.89
  -2  -4  -2   34.66    2.77
   2  -4   2   37.72    2.94
  -2   4  -2   40.40    2.85
   2   4   2   36.34    2.96
  -2   4  -2   38.32    2.93
  -2   4  -2   41.98    2.83
   2   4   2   36.05    2.58
   2   4   2   31.06    2.87
   3  -4   2   86.94    6.28
  -3  -4  -2   79.56    6.12
   3  -4   2   86.29    5.93
  -3  -4  -2   84.34    5.84
   3   4   2   74.70    6.08
   3   4   2   85.02    5.35
  -3   4  -2   82.87    5.04
  -3   4  -2   84.15    5.98
   3   4   2   81.81    5.33
  -4  -4  -2  113.36    7.56
   4  -4   2  101.86    6.63
  -4  -4  -2  117.91    7.89
   4  -4   2  111.85    7.70
  -4  -4  -2  106.44    7.55
   4  -4   2  101.35    8.01
   4   4   2  110.46    6.93
  -4   4  -2  106.96    6.56
  -4   4  -2  108.39    7.78
   4   4   2  101.87    6.85
   5  -4   2   31.57    2.54
  -5  -4  -2   25.19    2.49
   5  -4   2   28.00    3.86
  -5  -4  -2   25.20    2.39
   5   4   2   25.05    2.70
   5   4   2   22.13    2.75
  -5   4  -2   31.96    2.93
  -5   4  -2   25.54    1.85
  -6  -4  -2   30.43    1.92
  -6  -4  -2   28.71    2.62
   6  -4   2   27.56    4.08
  -6  -4  -2   35.77    3.58
   6   4   2   27.82    3.04
  -6   4  -2   29.94    3.26
  -7  -4  -2   23.75    3.50
  -7  -4  -2   24.15    2.27
   7  -4   2   28.15    4.28
   7   4   2   23.90    2.87
  -7   4  -2   22.31    3.11
  -8  -4  -2   20.72    3.39
   8  -4   2   15.31    2.73
  -8   4  -2   12.28    1.96
   8   4   2   15.69    2.57
   8   5  -2    3.56    1.75
  -7  -5   2   15.67    2.32
   7  -5  -2   10.46    3.34
  -7  -5   2    9.20    1.65
  -7   5   2   12.38    2.21
   7   5  -2   14.19    2.86
   7   5  -2   17.03    2.32
  -6  -5   2    0.87    1.27
   6  -5  -2    2.30    2.86
   6   5  -2    1.24    1.89
  -6   5   2   -1.35    1.12
   6   5  -2    0.40    1.39
  -5  -5   2   21.51    2.07
   5  -5  -2   20.65    4.19
   5  -5  -2   25.28    2.31
  -5  -5   2   21.41    2.73
  -5   5   2   22.24    2.41
  -5   5   2   23.92    1.67
   5   5  -2   25.24    2.43
  -5   5   2   26.32    2.48
   5   5  -2   22.81    2.84
  -4  -5   2    0.58    0.74
   4  -5  -2    2.45    2.51
  -4  -5   2    1.31    1.16
   4   5  -2    1.67    0.81
  -4   5   2    1.11    0.85
  -4   5   2   -0.14    1.10
  -4   5   2    1.31    0.52
   4   5  -2    2.55    1.50
   4   5  -2    0.78    0.96
   4   5  -2    0.96    1.14
  -4   5   2   -0.85    1.11
   3  -5  -2   13.44    1.71
  -3  -5   2   12.99    1.49
  -3  -5   2   12.50    2.09
  -3  -5   2   12.84    1.62
   3  -5  -2   14.12    1.65
  -3  -5   2    9.35    1.76
  -3   5   2   13.74    1.39
  -3   5   2   14.05    1.10
   3   5  -2   11.22    1.83
   3   5  -2   13.08    1.72
  -3   5   2   11.86    1.78
  -3   5   2   11.73    1.81
   3   5  -2   11.89    1.72
   3   5  -2   12.29    1.49
  -3   5   2   13.73    1.78
   3   5  -2   13.56    1.39
   3   5  -2   14.58    1.69
   2  -5  -2    1.84    0.85
  -2  -5   2    1.20    0.75
  -2  -5   2    1.03    1.05
   2  -5  -2    2.25    0.78
   2   5  -2    2.17    0.75
   2   5  -2    1.82    0.64
   2   5  -2    1.28    0.73
  -2   5   2    0.75    0.91
  -2   5   2    1.98    0.83
  -2   5   2    1.97    0.62
  -2   5   2    1.50    0.86
   1  -5  -2   33.10    2.42
   1  -5  -2   27.28    2.45
  -1  -5   2   28.61    2.33
  -1  -5   2   27.13    2.64
  -1  -5   2   31.37    2.15
  -1   5   2   28.13    2.37
   1   5  -2   26.75    2.37
   1   5  -2   25.73    2.41
   1   5  -2   29.12    2.46
  -1   5   2   27.41    2.31
   1   5  -2   29.30    2.06
  -1   5   2   28.66    2.38
  -1   5   2   28.39    2.51
   0  -5  -2    0.69    0.77
   0  -5  -2    1.63    1.06
   0  -5  -2   -0.23    0.76
   0  -5  -2    0.53    0.72
   0  -5   2    0.28    0.66
   0  -5   2    0.07    0.98
   0   5  -2    0.67    0.65
   0   5   2   -0.53    0.77
   0   5  -2    0.50    0.55
   0   5  -2    0.72    0.83
   0   5   2   -0.33    0.72
   0   5   2    1.01    0.58
   0   5   2    1.21    0.76
   1  -5   2    1.67    0.69
   1  -5   2    0.85    1.08
  -1  -5  -2    0.66    0.78
  -1  -5  -2    0.64    0.73
  -1  -5  -2    0.72    0.80
  -1  -5  -2   -0.04    1.04
   1  -5   2    0.02    0.78
  -1   5  -2    0.80    0.66
  -1   5  -2    1.64    0.55
   1   5   2    1.55    0.78
  -1   5  -2    0.36    0.88
   1   5   2    0.49    0.66
  -1   5  -2    0.77    0.68
   1   5   2    1.34    0.60
   2  -5   2    2.10    0.86
  -2  -5  -2    2.47    0.90
  -2  -5  -2    2.16    1.04
  -2  -5  -2    4.08    0.86
   2  -5   2    3.61    0.78
  -2  -5  -2    3.29    0.79
   2  -5   2    2.89    1.23
  -2   5  -2    4.96    1.05
   2   5   2    3.52    0.88
   2   5   2    4.11    0.88
   2   5   2    3.15    0.72
   2   5   2    3.71    0.70
   3  -5   2   16.19    1.58
  -3  -5  -2   17.15    2.15
   3  -5   2   18.45    1.94
   3  -5   2   16.30    2.00
  -3  -5  -2   18.66    1.91
  -3  -5  -2   20.15    1.86
   3   5   2   15.75    2.23
   3   5   2   18.16    1.87
   3   5   2   18.68    1.99
  -3   5  -2   20.41    1.70
   3   5   2   18.78    1.86
  -3   5  -2   18.79    2.22
   4  -5   2   13.09    1.59
  -4  -5  -2   15.19    2.08
  -4  -5  -2   15.22    1.85
   4  -5   2   14.38    1.88
   4  -5   2   17.42    3.48
   4   5   2   11.19    1.84
  -4   5  -2   16.32    2.25
   4   5   2   14.89    1.71
  -4   5  -2   16.58    1.27
   4   5   2   14.91    2.28
   5  -5   2    2.93    2.39
  -5  -5  -2    2.32    1.02
   5   5   2    3.15    1.54
  -5   5  -2    3.50    1.34
   6  -5   2    3.34    2.65
  -6  -5  -2    2.99    1.06
  -6   5  -2    2.01    1.42
   6   5   2    2.34    1.62
   6   5   2    3.00    1.65
   7  -5   2    2.80    2.66
  -7   5  -2    2.68    1.53
   7   5   2    4.99    1.73
  -8  -5  -2    6.06    1.13
  -8  -6   2    6.24    0.90
  -7  -6   2    4.95    1.39
  -7  -6   2    4.75    1.06
   7  -6  -2    5.78    2.99
   7   6  -2    8.19    1.51
   7   6  -2    6.67    1.97
  -6  -6   2   21.52    2.91
   6  -6  -2   25.12    4.62
   6   6  -2   24.06    2.99
  -6   6   2   18.13    2.52
   6   6  -2   23.60    2.60
  -6   6   2   28.51    2.59
   5  -6  -2   14.10    3.15
  -5  -6   2   13.63    2.50
  -5   6   2   16.31    1.62
   5   6  -2   13.37    2.46
  -5   6   2   10.23    1.78
   5   6  -2   16.14    2.18
  -4  -6   2   37.64    3.35
  -4  -6   2   39.54    3.69
   4  -6  -2   45.13    3.48
   4  -6  -2   35.41    4.99
  -4  -6   2   38.13    3.16
   4  -6  -2   43.33    3.26
   4   6  -2   46.11    3.15
  -4   6   2   37.48    3.41
  -4   6   2   44.13    3.30
  -4   6   2   35.20    3.18
  -4   6   2   38.37    3.37
  -4   6   2   46.36    3.37
   4   6  -2   35.95    3.43
  -3  -6   2    0.19    0.84
   3  -6  -2    0.58    1.02
  -3  -6   2    1.81    1.23
  -3  -6   2   -0.04    0.97
   3  -6  -2    1.08    0.90
   3   6  -2    2.96    1.20
   3   6  -2    1.48    0.77
  -3   6   2    3.27    0.86
  -3   6   2    0.44    0.67
   3   6  -2    2.71    0.68
   3   6  -2    1.27    0.97
  -3   6   2   -1.71    1.20
   3   6  -2    3.60    1.33
  -3   6   2    1.09    1.09
   2  -6  -2  109.42    7.44
  -2  -6   2   93.85    7.78
  -2  -6   2  101.71    7.44
  -2  -6   2  112.84    6.67
   2  -6  -2  114.88    7.85
  -2  -6   2  100.46    7.84
  -2   6   2  104.96    7.29
  -2   6   2  100.65    7.43
   2   6  -2  109.52    7.78
  -2   6   2   93.71    7.74
  -2   6   2  113.51    7.72
  -1  -6   2   17.81    1.90
   1  -6  -2   21.35    2.09
   1  -6  -2   15.82    2.07
  -1  -6   2   19.91    2.52
  -1  -6   2   16.67    2.16
  -1   6   2   18.94    1.92
   1   6  -2   22.33    1.93
  -1   6   2   18.91    1.90
  -1   6   2   19.13    2.05
   1   6  -2   22.06    1.62
   1   6  -2   16.08    2.12
  -1   6   2   22.47    2.12
   0  -6   2   64.83    5.18
   0  -6  -2   75.48    5.00
   0  -6  -2   59.53    5.16
   0  -6   2   71.46    5.29
   0  -6   2   63.45    4.88
   0  -6  -2   70.05    5.41
   0  -6  -2   56.64    4.84
   0   6  -2   63.53    4.95
   0   6  -2   68.11    4.36
   0   6   2   60.70    5.09
   0   6  -2   79.68    5.10
   0   6   2   69.82    4.79
   0   6  -2   73.90    5.10
   1  -6   2    8.71    1.39
  -1  -6  -2    4.87    1.05
   1  -6   2    6.99    1.46
   1  -6   2    6.60    1.10
  -1  -6  -2    8.01    1.69
  -1  -6  -2    4.66    1.14
  -1  -6  -2    7.24    1.47
  -1   6  -2    9.64    1.80
   1   6   2    6.89    1.37
  -1   6  -2    9.74    1.51
   1   6   2    6.52    1.24
  -1   6  -2    9.80    1.17
  -2  -6  -2   54.73    4.50
   2  -6   2   69.09    4.74
   2  -6   2   59.96    4.44
  -2  -6  -2   57.93    4.66
  -2  -6  -2   56.93    4.44
   2  -6   2   61.05    4.98
  -2  -6  -2   59.24    4.84
   2   6   2   65.79    4.70
  -2   6  -2   70.28    4.61
  -2   6  -2   56.25    4.58
  -2   6  -2   56.57    3.98
   2   6   2   58.52    4.02
   2   6   2   52.79    4.22
  -2   6  -2   60.96    4.56
   2   6   2   61.28    4.66
  -3  -6  -2   10.37    1.62
   3  -6   2   10.92    1.88
   3  -6   2    9.22    1.60
  -3  -6  -2    7.37    1.60
   3   6   2    9.99    1.61
  -3   6  -2   11.08    1.30
  -3   6  -2   11.98    2.15
   3   6   2   11.32    1.75
   3   6   2   10.73    1.57
   3   6   2   11.16    1.68
   4  -6   2   36.15    4.49
  -4  -6  -2   40.42    3.43
  -4  -6  -2   29.94    3.10
   4   6   2   38.55    3.18
  -4   6  -2   37.32    3.39
   4   6   2   40.91    3.23
  -5  -6  -2   -0.26    1.14
   5  -6   2   -0.04    2.56
   5   6   2    2.21    1.63
  -5   6  -2    0.25    1.36
   6  -6   2   21.30    4.25
  -6  -6  -2   14.38    2.11
  -6  -6  -2   20.80    2.37
   6   6   2   18.29    2.51
   6   6   2   21.66    2.73
  -6   6  -2   12.81    2.77
   7  -6   2    2.52    2.58
  -7  -6  -2    1.58    1.00
   7   6   2    4.38    1.63
  -8  -6  -2   14.79    1.46
  -7  -7   2    1.46    0.86
   7   7  -2    0.54    1.05
   7   7  -2   -0.85    1.20
   6  -7  -2   15.89    3.32
  -6  -7   2   18.19    2.64
   6   7  -2   18.28    2.62
   6   7  -2   18.22    2.34
  -6   7   2   12.60    2.21
   5  -7  -2    2.49    2.97
  -5  -7   2    0.14    1.37
   5   7  -2    2.43    1.67
   5   7  -2   -1.38    1.32
  -5   7   2    0.56    1.37
  -5   7   2   -0.39    1.15
   4  -7  -2   10.47    3.19
   4  -7  -2   16.80    2.10
  -4  -7   2   11.77    2.44
  -4  -7   2   10.61    1.94
  -4   7   2   12.13    1.68
  -4   7   2   15.22    2.27
  -4   7   2   12.26    2.09
   4   7  -2   16.73    2.16
   4   7  -2   13.91    2.21
  -3  -7   2    0.86    1.26
   3  -7  -2    2.02    1.07
  -3  -7   2   -0.61    0.98
   3  -7  -2    0.32    0.79
  -3   7   2    1.39    1.10
   3   7  -2    1.15    0.59
   3   7  -2    2.87    1.27
   3   7  -2    2.87    1.36
  -3   7   2    0.97    1.29
  -3   7   2    2.08    0.57
   2  -7  -2   13.62    2.05
  -2  -7   2   11.60    2.09
  -2  -7   2   11.59    1.73
  -2  -7   2   12.94    2.43
   2  -7  -2   14.62    1.81
  -2   7   2   14.55    2.07
   2   7  -2   17.19    1.62
  -2   7   2   14.52    1.92
  -2   7   2   14.82    1.59
   2   7  -2   11.56    1.43
  -2   7   2   16.75    1.78
  -1  -7   2   10.06    1.75
   1  -7  -2   13.44    2.00
   1  -7  -2   12.45    1.81
   1  -7  -2   12.89    1.92
  -1  -7   2   10.97    2.07
  -1  -7   2   14.46    2.55
  -1   7   2   17.24    1.84
   1   7  -2   10.56    2.06
   1   7  -2   16.25    1.78
  -1   7   2   12.03    1.85
   1   7  -2   16.06    1.66
  -1   7   2   15.31    1.59
   1   7  -2   14.51    1.38
  -1   7   2   12.70    1.93
   0  -7   2    0.02    0.99
   0  -7  -2   -0.38    0.95
   0  -7   2    0.65    0.79
   0  -7  -2   -0.08    0.92
   0  -7  -2    0.57    1.46
   0  -7  -2   -0.14    1.00
   0  -7   2   -0.84    1.38
   0   7   2    2.12    0.83
   0   7  -2    1.41    0.78
   0   7   2    0.63    0.85
   0   7  -2    2.06    0.62
   0   7  -2    0.92    0.69
   0   7  -2    0.88    1.07
   0   7   2    1.29    0.70
  -1  -7  -2   -0.49    0.95
  -1  -7  -2   -0.01    1.45
   1  -7   2   -0.73    0.77
  -1  -7  -2   -0.60    1.03
  -1  -7  -2   -0.38    0.91
   1  -7   2    0.02    1.46
  -1   7  -2   -0.69    1.15
  -1   7  -2    0.43    0.69
   1   7   2    1.18    0.80
   1   7   2   -0.04    0.71
  -1   7  -2    0.46    0.76
  -1   7  -2    0.41    0.58
   1   7   2    0.04    0.70
   2  -7   2   19.15    2.28
   2  -7   2   18.45    3.01
  -2  -7  -2   14.21    2.02
  -2  -7  -2   15.14    2.06
  -2  -7  -2   16.97    2.63
   2   7   2   19.72    1.90
  -2   7  -2   18.16    1.65
  -2   7  -2   19.25    1.89
  -2   7  -2   14.32    1.58
  -2   7  -2   14.36    2.37
   2   7   2   15.66    1.72
   3  -7   2    4.03    1.15
  -3  -7  -2    2.43    1.41
  -3  -7  -2    4.54    0.98
  -3  -7  -2    3.38    1.18
   3   7   2    3.99    0.78
  -3   7  -2    5.27    0.82
   3   7   2    3.57    1.61
  -3   7  -2    4.35    1.32
  -4  -7  -2    0.92    1.16
   4  -7   2    3.15    1.05
  -4  -7  -2    2.15    1.31
   4  -7   2    5.82    2.79
  -4   7  -2    2.40    1.34
   4   7   2    4.65    1.64
  -5  -7  -2   -1.06    1.17
   5  -7   2    1.33    2.75
  -5  -7  -2    0.07    1.18
  -5   7  -2   -1.95    1.36
  -5   7  -2   -1.21    1.39
   5   7   2    0.38    1.65
  -6  -7  -2    2.46    1.16
   6  -7   2   -0.50    2.30
  -6  -7  -2   -0.87    1.15
  -6   7  -2   -1.32    1.49
   6   7   2    3.07    1.63
  -7  -7  -2    2.42    0.92
  -7   8   2   13.37    1.40
  -6  -8   2    0.53    1.19
   6  -8  -2   -0.61    2.79
  -6   8   2    0.17    1.05
  -6   8   2    3.11    1.29
   6   8  -2    2.47    1.32
   6   8  -2    0.89    1.50
   5  -8  -2   20.11    3.65
  -5  -8   2   20.68    2.94
  -5   8   2   15.19    2.42
  -5   8   2   25.17    2.67
   5   8  -2   21.05    2.42
   5   8  -2   21.42    2.63
   4  -8  -2   -0.74    2.97
  -4  -8   2   -0.08    1.03
   4  -8  -2    0.35    1.25
  -4  -8   2   -0.12    1.42
   4   8  -2    0.95    1.35
  -4   8   2   -0.77    1.17
   4   8  -2    1.33    1.47
   3  -8  -2   35.41    3.09
  -3  -8   2   28.33    2.95
  -3  -8   2   29.80    3.29
  -3   8   2   27.32    2.84
  -3   8   2   30.56    2.97
   3   8  -2   27.44    2.78
  -2  -8   2    1.91    1.47
   2  -8  -2    0.74    1.15
  -2  -8   2    1.00    1.14
  -2   8   2    1.40    1.24
  -2   8   2    1.82    1.15
   1  -8  -2   74.98    5.16
   1  -8  -2   71.77    5.50
  -1  -8   2   61.80    5.47
  -1  -8   2   78.70    5.75
  -1   8   2   60.48    4.52
  -1   8   2   76.84    5.11
  -1   8   2   68.26    5.22
   1   8  -2   68.33    5.26
   0  -8   2    0.26    1.04
   0  -8  -2    0.54    1.72
   0  -8   2    1.16    1.56
   0   8  -2    1.53    1.10
   0   8   2   -0.49    0.91
  -1  -8  -2   60.85    4.80
  -1  -8  -2   52.75    4.18
   1  -8   2   58.44    4.44
  -1  -8  -2   52.39    4.42
  -1   8  -2   46.99    4.30
  -2  -8  -2    0.82    1.02
  -2  -8  -2    2.06    1.59
  -2  -8  -2    0.54    1.21
   2  -8   2    2.36    1.20
  -2   8  -2    3.10    1.27
   2   8   2    1.53    0.90
  -3  -8  -2   66.28    5.25
  -3  -8  -2   65.90    5.06
  -3   8  -2   68.19    5.22
   4  -8   2   -0.53    2.72
   4  -8   2   -0.16    1.13
  -4  -8  -2   -0.16    1.39
   4   8   2    1.32    1.70
  -4   8  -2    0.04    1.31
  -5  -8  -2   21.33    2.79
   5  -8   2   19.10    3.47
  -5   8  -2   23.79    2.70
  -5   8  -2   18.07    2.72
   5   8   2   24.29    2.88
  -6  -8  -2    3.29    1.05
   6  -8   2   -1.82    2.57
   6   8   2    0.46    1.49
  -7   8  -2   17.75    1.59
   5  -9  -2    2.40    2.89
  -5  -9   2    2.71    1.33
  -5  -9   2    1.29    1.40
   5   9  -2    1.83    1.27
  -5   9   2    0.98    1.10
   5   9  -2    1.45    1.45
  -4  -9   2    1.29    1.36
  -4  -9   2    0.66    1.11
  -4  -9   2    1.45    1.46
   4  -9  -2    1.08    1.13
   4  -9  -2   -1.29    2.83
   4   9  -2    1.80    1.34
   4   9  -2    0.49    1.42
  -4   9   2    0.15    1.16
  -4   9   2    1.31    1.42
   3  -9  -2    7.81    1.38
  -3  -9   2    6.19    1.70
  -3  -9   2    4.56    1.30
   3   9  -2    8.42    1.51
  -3   9   2   11.44    2.17
  -3   9   2    7.40    1.33
  -2  -9   2    6.70    1.70
   2  -9  -2    7.72    1.41
  -2   9   2    9.70    2.03
  -2   9   2   10.49    2.09
   1  -9  -2   21.64    2.54
  -1  -9   2   22.50    3.34
  -1  -9   2   17.51    2.57
  -1   9   2   24.60    2.40
  -1   9   2   18.39    2.43
   0  -9  -2   -0.09    1.05
   0  -9  -2   -0.79    1.77
   0  -9   2    0.41    1.74
   0  -9   2    1.13    1.11
   0   9  -2    1.20    1.23
   0   9   2    0.82    0.99
  -1  -9  -2    1.92    1.25
   1  -9   2    2.22    1.80
  -1  -9  -2    1.95    1.14
  -1  -9  -2    2.01    1.67
   1  -9   2    2.94    1.21
   1   9   2    3.23    1.01
  -1   9  -2    3.68    1.25
  -2  -9  -2    6.36    1.37
  -2  -9  -2    5.96    1.81
  -2  -9  -2    5.86    1.22
   2  -9   2    8.02    1.39
  -2   9  -2    5.87    1.39
   3  -9   2    0.20    1.22
  -3  -9  -2   -0.93    0.97
  -3  -9  -2   -1.00    1.59
   3   9   2    1.64    1.63
   3   9   2    0.78    0.81
  -3   9  -2    0.12    1.27
   4  -9   2    2.41    1.17
  -4  -9  -2    1.44    0.94
  -4  -9  -2    0.08    1.23
  -4  -9  -2    1.39    1.45
   4  -9   2    2.00    2.74
  -4   9  -2    1.39    1.48
   4   9   2    1.54    1.70
  -4   9  -2    1.29    1.35
   5  -9   2   -3.98    2.65
   5  -9   2    0.57    1.13
  -5  -9  -2   -1.73    1.23
  -5  -9  -2   -1.46    1.11
   5   9   2   -0.23    1.47
  -5   9  -2   -1.59    1.27
  -5   9  -2   -1.75    1.04
  -6   9  -2   14.37    1.59
  -5 -10   2    1.00    0.63
  -5  10   2    1.68    0.88
  -4 -10   2    4.87    1.54
  -4 -10   2    5.27    1.47
   4 -10  -2    0.21    2.76
   4 -10  -2    2.79    1.29
   4  10  -2    7.59    1.32
   3 -10  -2    5.88    1.30
  -3 -10   2    3.33    1.15
  -3 -10   2    3.84    1.32
  -3  10   2    6.67    1.34
   3  10  -2    8.77    1.50
  -3  10   2    5.74    1.27
  -2 -10   2    4.03    1.30
   2 -10  -2    4.08    1.30
  -2 -10   2    4.94    1.43
  -2 -10   2    4.99    1.83
  -2  10   2    6.89    1.27
  -2  10   2    7.14    1.54
  -1 -10   2    7.37    1.45
  -1 -10   2    6.65    1.47
  -1 -10   2    7.79    2.09
   1 -10  -2    8.23    1.43
   0 -10   2   14.94    2.20
   0 -10   2   14.76    3.19
   0 -10  -2   10.45    1.71
   0 -10   2   11.71    2.11
   0 -10  -2    9.61    2.23
   0  10   2   12.95    2.07
   0  10  -2   15.97    2.32
   1 -10   2    3.11    1.23
   1 -10   2    0.94    1.21
   1 -10   2    1.45    1.97
  -1 -10  -2   -2.10    1.35
  -1 -10  -2    1.49    1.80
   1  10   2    1.19    1.06
  -1  10  -2    3.07    1.25
   2 -10   2    7.53    1.38
  -2 -10  -2    3.83    1.76
   2  10   2    4.71    1.05
  -2  10  -2    5.23    1.38
  -3 -10  -2   -0.84    1.04
   3 -10   2    2.31    1.23
  -3  10  -2   -1.66    1.31
   3  10   2    5.48    1.65
  -4 -10  -2    4.34    1.12
   4 -10   2   11.13    3.27
   4 -10   2    6.83    1.24
  -4  10  -2   10.83    2.14
  -4  10  -2    8.10    1.41
  -5 -10  -2    1.01    0.61
   5 -10   2   -0.40    0.80
   3 -11  -2    0.39    1.13
  -3 -11   2    1.44    1.07
  -3  11   2    1.63    0.94
   3  11  -2   -0.52    0.58
   3  11  -2   -0.02    0.87
  -2 -11   2    0.32    1.73
  -2 -11   2    0.45    1.20
  -2 -11   2   -0.06    1.27
   2 -11  -2   -0.02    1.24
   2  11  -2    0.85    1.03
  -2  11   2    1.93    0.99
  -2  11   2    3.26    1.37
   1 -11  -2    1.30    1.05
  -1 -11   2    2.11    1.11
  -1 -11   2    2.16    1.28
  -1 -11   2    1.92    1.76
  -1  11   2    4.08    1.20
   0 -11  -2    0.67    0.98
   0 -11   2    1.69    1.65
   0 -11   2    0.66    1.22
   0 -11   2    1.38    1.22
   0 -11  -2   -1.02    1.18
   0  11   2    3.19    1.04
  -1 -11  -2    1.06    1.76
   1 -11   2   -0.32    1.83
  -1 -11  -2   -1.35    0.93
  -1 -11  -2    0.41    0.94
   1 -11   2    1.53    1.22
  -1  11  -2    2.44    1.17
   2 -11   2    1.12    1.09
  -2 -11  -2    1.95    1.59
  -2 -11  -2   -0.64    1.06
  -2  11  -2    1.97    1.16
   2  11   2    1.39    0.76
   3 -11   2    4.50    1.18
  -3 -11  -2    3.06    0.92
   3  11   2    4.20    1.29
   1 -12  -2   -0.69    0.80
   0 -12  -2   -1.28    0.98
   0 -12   2    2.83    0.91
  -9   0   3   15.65    1.73
  -8   0   3   -1.25    1.81
  -8   0   3    0.15    1.21
  -7   0   3    5.22    1.30
  -7   0   3    5.28    1.83
   6   0  -3   -0.79    2.04
  -6   0   3   -2.97    1.60
  -6   0   3   -0.93    1.08
  -5   0   3   73.61    5.67
  -5   0   3   77.04    5.23
  -5   0   3   68.04    4.62
  -5   0   3   71.14    5.49
  -5   0   3   77.16    5.01
   5   0  -3   66.18    5.48
  -5   0   3   78.50    4.81
  -5   0   3   68.12    4.45
  -4   0   3   -0.04    0.69
  -4   0   3   -0.92    0.77
   4   0  -3    0.57    1.41
  -4   0   3    0.07    1.06
  -4   0   3   -0.62    0.85
  -4   0   3   -0.74    1.15
  -3   0   3   69.37    5.20
  -3   0   3   68.89    4.48
   3   0  -3   72.53    5.16
  -3   0   3   75.22    5.03
  -3   0   3   73.66    4.59
  -2   0   3   -0.37    0.46
   2   0  -3   -0.35    0.79
  -2   0   3    0.14    0.73
   2   0  -3   -0.36    0.48
  -2   0   3    0.37    0.61
  -1   0   3  886.80   56.82
   1   0  -3  951.51   61.90
  -1   0   3  920.09   62.83
  -1   0   3 1000.00   66.78
   1   0  -3  896.67   56.83
   1   0  -3  943.95   62.49
  -1   0   3  914.71   61.89
  -1   0   3  913.37   66.78
   0   0   3    0.44    0.43
   0   0  -3   -0.17    0.46
   0   0  -3   -0.12    0.32
   0   0  -3    0.18    0.55
   0   0   3    0.37    0.45
   0   0  -3    0.22    0.47
   0   0   3    0.60    0.32
   0   0   3   -0.08    0.51
   1   0   3  502.20   35.47
   1   0   3  480.34   29.32
   1   0   3  476.59   33.39
  -1   0  -3  493.40   33.41
  -1   0  -3  510.00   32.87
   2   0   3    0.00    0.46
  -2   0  -3   -0.51    0.83
  -2   0  -3   -0.09    0.41
   2   0   3   -0.32    0.52
  -2   0  -3   -0.08    0.61
   2   0   3    1.06    0.76
  -3   0  -3  840.54   51.78
  -3   0  -3  876.19   51.99
  -3   0  -3  852.36   59.77
   3   0   3  891.21   52.01
  -3   0  -3  951.09   58.87
   3   0   3  853.08   51.79
  -3   0  -3  849.00   58.42
  -4   0  -3   -0.50    0.97
  -4   0  -3   -0.09    0.58
  -4   0  -3   -0.56    1.28
   4   0   3   -0.41    0.94
  -4   0  -3   -0.95    1.18
  -4   0  -3   -1.07    1.32
  -4   0  -3   -0.61    0.46
   4   0   3   -0.43    0.83
   5   0   3  140.63    8.62
  -5   0  -3  138.89   10.19
  -5   0  -3  127.54    8.56
  -5   0  -3  130.72    8.48
  -5   0  -3  158.54    9.80
  -5   0  -3  136.90    9.91
  -5   0  -3  154.39    9.18
  -6   0  -3    3.28    1.87
   6   0   3    0.49    1.11
  -6   0  -3    2.38    1.71
  -7   0  -3   72.77    5.48
  -7   0  -3   68.45    5.96
  -8   0  -3    2.76    1.93
  -8   0  -3    1.74    1.83
  -9   0  -3    2.55    1.44
  -9   1   3    3.03    0.97
  -8  -1   3   10.88    1.87
  -8  -1   3    8.95    2.03
  -8   1   3    8.55    2.04
  -8   1   3   11.44    1.98
  -7  -1   3    0.51    1.73
  -7  -1   3   -0.58    1.26
  -7   1   3   -0.49    1.20
  -7   1   3    0.95    1.77
   7   1  -3    1.04    2.11
  -6  -1   3   55.95    3.92
  -6  -1   3   56.09    4.23
   6   1  -3   54.07    4.72
  -6   1   3   54.32    4.24
  -6   1   3   55.01    3.90
  -5  -1   3   12.94    2.27
   5  -1  -3   14.26    2.49
  -5  -1   3   16.75    1.82
  -5  -1   3   15.76    1.26
  -5  -1   3   17.87    1.79
   5  -1  -3   18.60    2.69
  -5  -1   3   14.92    1.65
  -5  -1   3   12.33    2.31
  -5   1   3   15.16    1.26
  -5   1   3   14.73    1.78
  -5   1   3   16.20    1.86
   5   1  -3   16.00    2.52
  -5   1   3   11.80    1.58
  -5   1   3   15.14    2.47
  -4  -1   3   40.17    3.33
  -4  -1   3   37.11    3.41
  -4  -1   3   39.28    2.70
  -4  -1   3   44.19    2.98
  -4  -1   3   45.57    3.04
   4  -1  -3   36.04    3.80
  -4  -1   3   41.91    2.82
   4  -1  -3   36.92    3.35
   4   1  -3   35.09    3.29
  -4   1   3   39.47    3.43
  -4   1   3   36.59    2.71
  -4   1   3   39.58    3.05
  -4   1   3   43.17    2.51
  -4   1   3   33.99    2.73
  -3  -1   3   83.77    6.57
  -3  -1   3   87.05    6.28
  -3  -1   3   98.72    6.18
  -3  -1   3   94.06    5.48
  -3  -1   3   93.67    5.65
  -3  -1   3   93.29    5.63
   3  -1  -3   86.68    6.48
   3   1  -3  100.84    5.63
   3   1  -3   78.02    6.28
  -3   1   3   89.27    6.18
  -3   1   3   85.75    6.33
  -3   1   3   78.46    5.60
  -2  -1   3  121.54    7.38
   2  -1  -3  117.34    8.00
  -2  -1   3  119.97    7.34
   2  -1  -3  113.32    8.14
  -2  -1   3  114.93    8.55
   2  -1  -3  120.31    8.19
   2   1  -3  118.71    8.13
   2   1  -3  134.84    7.39
  -2   1   3  119.63    8.09
  -2   1   3  120.15    8.14
   2   1  -3  114.57    8.63
  -2   1   3  112.44    8.01
  -2   1   3  116.59    7.36
   1  -1  -3  645.22   41.76
  -1  -1   3  655.80   44.19
   1  -1  -3  621.98   38.34
  -1  -1   3  564.85   45.04
   1  -1  -3  634.90   45.05
  -1  -1   3  623.38   38.35
   1   1  -3  630.69   45.04
  -1   1   3  599.19   38.33
   1   1  -3  601.97   38.36
  -1   1   3  603.52   42.42
  -1   1   3  625.93   41.75
   1   1  -3  629.33   41.75
  -1   1   3  700.85   45.05
   0  -1   3   77.77    4.97
   0  -1   3   82.14    5.71
   0  -1  -3   75.84    5.41
   0  -1  -3   77.10    5.54
   0  -1   3   79.19    5.47
   0  -1   3   83.40    5.51
   0  -1  -3   79.28    5.85
   0   1   3   85.37    5.51
   0   1  -3   81.27    5.83
   0   1  -3   71.86    4.96
   0   1   3   79.78    5.40
   0   1  -3   82.99    5.52
   0   1   3   81.78    5.85
   1  -1   3  283.14   19.21
  -1  -1  -3  279.17   18.10
  -1  -1  -3  265.55   19.23
   1  -1   3  257.88   18.25
   1  -1   3  237.60   18.10
   1   1   3  266.48   19.22
  -1   1  -3  266.24   18.27
  -1   1  -3  299.39   19.22
   1   1   3  274.95   18.09
  -1   1  -3  275.62   16.36
   1   1   3  224.67   16.30
  -2  -1  -3  230.59   15.68
  -2  -1  -3  210.39   14.18
   2  -1   3  226.00   15.53
  -2  -1  -3  224.12   15.52
   2  -1   3  229.21   15.87
   2  -1   3  221.49   13.72
  -2  -1  -3  244.62   15.60
  -2  -1  -3  252.55   13.79
  -2   1  -3  210.60   15.53
  -2   1  -3  227.44   15.89
   2   1   3  226.35   13.72
  -2   1  -3  244.03   13.77
   2   1   3  248.38   15.67
  -3  -1  -3   39.75    3.48
  -3  -1  -3   42.57    3.20
  -3  -1  -3   46.69    3.30
  -3  -1  -3   43.43    3.21
  -3  -1  -3   40.94    2.76
  -3  -1  -3   44.49    2.86
   3  -1   3   47.11    3.56
   3  -1   3   40.87    2.87
   3   1   3   51.41    3.19
  -3   1  -3   43.22    3.58
   3   1   3   45.89    2.99
  -3   1  -3   48.06    2.84
  -3   1  -3   42.47    3.64
   3   1   3   43.41    2.87
  -3   1  -3   42.99    2.79
  -4  -1  -3   65.69    4.34
  -4  -1  -3   68.62    5.24
  -4  -1  -3   68.89    4.44
  -4  -1  -3   75.38    4.92
   4  -1   3   64.30    4.47
  -4  -1  -3   75.76    5.10
   4  -1   3   73.46    5.36
  -4   1  -3   65.30    4.35
   4   1   3   69.68    4.60
  -4   1  -3   72.66    5.42
  -4   1  -3   73.80    4.42
  -4   1  -3   79.88    5.15
   4   1   3   71.27    4.48
  -4   1  -3   70.65    5.46
   5  -1   3    9.69    1.91
  -5  -1  -3    7.37    0.93
   5  -1   3    6.56    1.24
  -5  -1  -3    9.29    1.33
  -5  -1  -3    7.53    1.81
  -5  -1  -3    5.12    1.52
  -5  -1  -3    8.10    1.15
  -5   1  -3    9.04    1.74
  -5   1  -3    9.04    1.17
  -5   1  -3    6.79    1.67
  -5   1  -3    8.24    1.66
   5   1   3    6.44    1.22
  -5   1  -3    7.53    0.94
   5   1   3    8.29    1.38
  -6  -1  -3    7.31    1.92
   6  -1   3    7.74    1.30
  -6  -1  -3    9.82    2.05
   6   1   3    6.79    1.58
  -6   1  -3    7.38    1.84
  -6   1  -3    8.94    1.97
  -7  -1  -3    4.80    2.14
  -7  -1  -3    3.41    1.96
  -7   1  -3    3.01    1.96
  -7   1  -3    2.16    1.85
  -8  -1  -3    2.70    1.99
  -8  -1  -3    1.79    1.88
  -8   1  -3    0.84    1.85
  -8   1  -3    3.92    1.92
  -8   1  -3    2.84    1.12
  -9  -2   3    2.50    0.73
  -8  -2   3    5.96    1.30
  -8  -2   3    5.28    1.95
  -8   2   3    6.95    1.87
  -8   2   3    6.27    1.37
  -7  -2   3    6.14    1.91
  -7  -2   3    4.64    1.37
  -7   2   3    4.28    1.35
   7   2  -3    6.67    2.17
  -6  -2   3   52.38    3.91
  -6  -2   3   43.02    4.10
   6  -2  -3   42.95    4.94
  -6  -2   3   51.57    3.55
  -6   2   3   49.58    3.53
   6   2  -3   46.00    4.29
  -5  -2   3   41.82    3.01
  -5  -2   3   40.40    3.50
  -5  -2   3   38.31    3.17
  -5  -2   3   42.33    2.85
  -5  -2   3   48.21    3.34
   5  -2  -3   34.57    4.19
  -5  -2   3   44.47    3.52
  -5  -2   3   39.44    2.58
   5   2  -3   37.59    3.64
  -5   2   3   35.31    2.78
  -5   2   3   38.10    3.18
  -5   2   3   40.54    3.67
  -5   2   3   38.92    3.00
  -5   2   3   38.46    2.60
  -4  -2   3  113.04    8.74
   4  -2  -3  109.06    8.60
  -4  -2   3  131.99    7.60
  -4  -2   3  127.21    7.20
  -4  -2   3  118.78    7.33
  -4  -2   3  127.30    7.58
  -4  -2   3  122.58    8.39
  -4  -2   3  129.01    8.29
  -4   2   3  113.49    8.45
  -4   2   3  127.89    7.22
  -4   2   3  124.71    8.31
   4   2  -3  112.94    7.33
   4   2  -3  100.70    8.39
   4   2  -3  124.88    7.51
  -4   2   3  111.28    7.53
  -3  -2   3   15.49    1.33
   3  -2  -3   14.62    2.37
  -3  -2   3   16.08    1.50
  -3  -2   3   12.97    1.76
   3  -2  -3   14.74    1.28
  -3   2   3   10.98    1.40
   3   2  -3   14.45    1.48
   3   2  -3   13.51    1.71
   3   2  -3   13.57    1.32
  -3   2   3   13.93    1.35
  -3   2   3   14.11    1.49
   3   2  -3   16.51    1.36
   2  -2  -3  125.31    8.90
  -2  -2   3  112.42    8.89
  -2  -2   3  124.44    7.62
  -2  -2   3  113.66    8.78
   2  -2  -3  122.88    8.25
   2  -2  -3  115.51    8.47
  -2   2   3  127.89    8.34
  -2   2   3  120.27    8.26
   2   2  -3  126.87    8.42
   2   2  -3  128.89    8.78
   2   2  -3  126.81    8.90
   2   2  -3  105.31    7.58
  -2   2   3  134.33    8.88
   2   2  -3  127.91    7.63
   1  -2  -3  389.80   27.03
  -1  -2   3  412.40   25.64
   1  -2  -3  397.22   25.06
  -1  -2   3  338.29   27.02
  -1  -2   3  363.16   23.02
  -1  -2   3  359.84   26.52
  -1   2   3  366.08   25.43
   1   2  -3  342.16   27.02
   1   2  -3  384.42   23.04
  -1   2   3  377.47   25.05
  -1   2   3  392.61   27.02
   1   2  -3  378.31   26.52
   0  -2   3  150.68   12.37
   0  -2  -3  176.31   11.47
   0  -2   3  182.66   11.73
   0  -2   3  184.04   10.55
   0  -2  -3  172.36   11.66
   0  -2  -3  167.45   12.37
   0  -2   3  163.95   12.13
   0   2   3  163.39   11.46
   0   2   3  156.92   11.64
   0   2  -3  179.01   11.74
   0   2  -3  169.82   10.54
   0   2  -3  170.42   12.13
   0   2  -3  186.41   12.37
   0   2   3  178.13   12.37
   0   2   3  163.94   12.17
  -1  -2  -3   58.87    4.11
   1  -2   3   62.17    4.26
   1  -2   3   60.31    4.45
  -1  -2  -3   61.87    4.43
   1  -2   3   60.02    4.18
  -1  -2  -3   57.23    4.22
  -1  -2  -3   57.14    4.46
   1   2   3   58.11    3.81
  -1   2  -3   62.87    4.29
   1   2   3   60.16    4.46
  -1   2  -3   60.58    3.82
   1   2   3   60.61    4.12
   1   2   3   64.70    4.21
  -1   2  -3   68.33    4.45
   1   2   3   51.71    4.40
   2  -2   3  110.13    7.72
   2  -2   3  108.42    7.36
   2  -2   3  100.15    6.38
   2  -2   3  103.19    7.40
  -2  -2  -3  107.37    7.29
   2   2   3  113.91    6.49
   2   2   3  107.82    6.37
  -2   2  -3   99.59    7.43
   2   2   3   93.27    6.60
   2   2   3  115.66    7.29
   3  -2   3   57.12    4.11
  -3  -2  -3   55.32    3.79
   3  -2   3   51.77    3.89
  -3  -2  -3   51.52    3.73
  -3  -2  -3   52.62    3.63
   3  -2   3   51.82    3.33
  -3   2  -3   50.59    4.00
  -3   2  -3   49.63    3.23
   3   2   3   54.56    3.30
   3   2   3   49.03    3.45
   3   2   3   48.40    3.45
  -4  -2  -3  122.84    7.84
  -4  -2  -3  125.14    8.25
   4  -2   3  144.72    9.14
  -4  -2  -3  128.59    7.74
  -4  -2  -3  125.47    8.97
  -4  -2  -3  140.57    8.91
  -4  -2  -3  128.86    8.88
   4  -2   3  121.68    7.83
  -4   2  -3  124.16    7.75
   4   2   3  118.34    7.95
  -4   2  -3  126.28    9.19
   4   2   3  138.98    7.83
  -5  -2  -3   -0.10    0.48
  -5  -2  -3   -0.62    1.05
  -5  -2  -3    0.29    1.28
  -5  -2  -3    1.00    0.64
   5  -2   3    0.29    1.09
   5  -2   3    1.96    1.94
  -5  -2  -3    0.07    1.61
   5   2   3    0.70    1.03
   5   2   3    0.38    1.34
  -5   2  -3   -0.48    1.08
  -5   2  -3    1.95    1.46
  -5   2  -3    0.03    0.46
  -6  -2  -3   31.77    3.38
   6  -2   3   24.67    2.44
   6  -2   3   33.60    3.77
  -6   2  -3   31.76    3.45
   6   2   3   25.25    2.85
  -7  -2  -3    6.35    2.20
  -7  -2  -3    4.36    2.03
  -7   2  -3    6.54    1.90
   7   2   3    5.01    1.71
  -8  -2  -3   26.06    3.65
  -8  -2  -3   22.27    3.50
  -8   2  -3   20.69    3.34
  -8   2  -3   21.97    2.29
  -8   2  -3   24.03    3.18
  -9   2  -3    8.38    1.13
  -9  -3   3   11.41    1.33
  -8  -3   3    1.24    1.13
  -8  -3   3   -0.51    1.75
  -8   3   3    2.01    0.88
   8   3  -3    0.95    1.82
   7  -3  -3   18.40    3.44
  -7  -3   3   25.65    2.63
  -7  -3   3   22.45    2.80
  -7  -3   3   31.82    3.17
  -7   3   3   24.50    2.54
   7   3  -3   23.17    3.31
  -6  -3   3    0.22    1.18
  -6  -3   3    0.38    1.61
   6  -3  -3    1.96    2.54
  -6  -3   3    1.80    1.31
  -6   3   3   -0.29    1.20
   6   3  -3    1.93    1.96
   5  -3  -3  104.63    8.67
  -5  -3   3  123.69    7.44
  -5  -3   3  124.80    8.21
  -5  -3   3  117.86    7.13
  -5  -3   3  132.34    6.97
  -5  -3   3  122.25    7.39
  -5  -3   3  113.52    8.50
   5   3  -3  105.45    8.26
  -5   3   3  107.53    7.33
  -5   3   3  108.89    8.05
   5   3  -3  110.84    7.24
  -5   3   3  117.22    6.97
   5   3  -3  105.14    7.16
  -4  -3   3    2.80    0.79
  -4  -3   3    1.86    0.99
  -4  -3   3    2.77    1.03
  -4  -3   3    1.91    0.51
   4  -3  -3    2.07    1.97
   4   3  -3    2.52    0.88
  -4   3   3    1.29    0.89
   4   3  -3    3.75    1.56
   4   3  -3    1.99    0.94
   4   3  -3    2.04    0.73
  -4   3   3    2.44    1.06
  -4   3   3    1.86    0.54
   3  -3  -3   82.83    6.09
  -3  -3   3   73.61    6.07
   3  -3  -3   75.15    6.17
  -3  -3   3   86.78    5.29
  -3  -3   3   77.70    5.07
  -3   3   3   77.69    5.74
   3   3  -3   88.79    5.24
  -3   3   3   92.43    4.98
  -3   3   3   77.30    5.68
  -3   3   3   89.81    6.03
   3   3  -3   77.41    5.27
   3   3  -3   84.87    6.06
  -2  -3   3    1.05    0.73
  -2  -3   3    1.10    0.66
  -2  -3   3    1.64    0.56
  -2  -3   3    1.66    0.70
   2  -3  -3    1.45    0.61
   2  -3  -3    0.72    0.63
   2  -3  -3    1.01    1.36
  -2   3   3    0.23    0.68
   2   3  -3    1.55    0.51
   2   3  -3    2.74    0.79
  -2   3   3    1.10    0.62
  -2   3   3    1.00    0.52
   2   3  -3    1.21    1.08
   2   3  -3    1.18    0.74
   2   3  -3    1.22    0.62
   1  -3  -3  198.44   12.26
   1  -3  -3  176.88   12.91
  -1  -3   3  190.14   12.24
  -1  -3   3  153.39   12.91
   1  -3  -3  169.82   11.96
  -1  -3   3  186.56   11.02
  -1  -3   3  172.08   12.70
   1  -3  -3  164.96   12.16
  -1   3   3  170.69   11.97
   1   3  -3  175.57   12.69
   1   3  -3  158.01   12.90
   1   3  -3  188.75   12.26
   1   3  -3  185.24   11.03
  -1   3   3  185.80   12.90
  -1   3   3  170.31   12.72
  -1   3   3  204.69   12.24
   0  -3  -3   11.40    1.18
   0  -3   3    8.02    1.22
   0  -3   3   10.56    1.03
   0  -3   3    8.26    1.16
   0  -3  -3    7.86    1.10
   0  -3  -3    6.23    1.09
   0  -3  -3    9.06    0.95
   0   3   3    7.55    0.97
   0   3  -3    9.48    1.10
   0   3   3    7.65    1.02
   0   3   3    8.38    1.07
   0   3  -3    9.64    0.97
   0   3  -3    9.41    1.05
   0   3   3    6.66    1.34
   0   3  -3    8.79    1.07
   1  -3   3   37.13    2.67
  -1  -3  -3   36.38    2.50
   1  -3   3   40.27    2.78
  -1  -3  -3   32.42    2.86
   1  -3   3   36.65    2.77
  -1  -3  -3   32.97    2.74
   1  -3   3   35.39    2.25
  -1  -3  -3   35.29    2.62
  -1   3  -3   40.18    2.74
   1   3   3   33.27    2.81
   1   3   3   33.86    2.52
  -1   3  -3   38.01    2.72
   1   3   3   33.57    2.59
  -1   3  -3   29.15    2.37
   1   3   3   34.78    2.75
  -2  -3  -3   21.25    1.83
   2  -3   3   23.69    1.94
   2  -3   3   23.48    1.95
  -2  -3  -3   21.99    2.03
   2  -3   3   21.74    1.62
  -2  -3  -3   21.97    1.89
  -2   3  -3   24.36    2.10
   2   3   3   20.65    2.00
  -2   3  -3   25.37    1.86
   2   3   3   20.08    1.73
   2   3   3   18.35    1.92
   2   3   3   19.54    1.88
   3  -3   3  131.92    7.98
  -3  -3  -3   97.34    7.11
   3  -3   3  111.89    6.80
   3  -3   3  113.99    7.87
  -3  -3  -3  125.78    7.75
  -3   3  -3  104.95    7.92
   3   3   3  111.23    7.06
   3   3   3   98.76    6.92
  -4  -3  -3    8.97    1.59
   4  -3   3    9.82    1.58
   4  -3   3   11.02    1.69
   4  -3   3   13.83    2.64
  -4  -3  -3    9.66    1.63
  -4  -3  -3   12.01    1.46
   4   3   3   10.69    1.45
   4   3   3    8.41    1.43
   4   3   3   11.30    1.52
  -4   3  -3   13.10    2.23
  -4   3  -3   11.80    1.24
  -4   3  -3   10.03    1.06
  -5  -3  -3   23.67    2.83
  -5  -3  -3   29.83    3.14
   5  -3   3   25.75    2.37
  -5  -3  -3   32.33    2.45
  -5  -3  -3   30.87    1.92
  -5  -3  -3   28.38    2.58
  -5   3  -3   28.09    1.94
   5   3   3   23.44    2.69
   5   3   3   28.72    2.26
  -5   3  -3   30.97    3.18
  -5   3  -3   29.23    2.09
  -6  -3  -3    4.99    1.97
   6  -3   3    5.95    2.41
  -6   3  -3    4.82    1.74
   6   3   3    3.10    1.60
   7  -3   3   25.00    3.79
  -7  -3  -3   19.34    3.36
   7   3   3   18.90    2.71
  -7   3  -3   18.83    3.26
  -8  -3  -3   -0.27    2.05
  -8  -3  -3   -0.11    1.71
   8  -4  -3   -0.05    2.57
   8   4  -3    2.67    1.99
  -8   4   3    1.68    1.28
  -7  -4   3   10.81    2.32
   7  -4  -3   11.18    3.13
   7   4  -3   13.51    2.46
  -7   4   3   11.91    2.19
   6  -4  -3    9.27    2.91
  -6  -4   3    7.52    1.53
   6   4  -3    9.40    1.50
  -6   4   3    9.62    1.44
   6   4  -3   11.57    2.22
   5  -4  -3   21.58    4.01
  -5  -4   3   21.75    2.68
   5   4  -3   27.11    2.13
   5   4  -3   21.91    2.23
  -5   4   3   21.81    1.63
  -5   4   3   22.34    2.28
   5   4  -3   23.09    2.86
   5   4  -3   21.43    1.81
  -4  -4   3   12.67    2.17
  -4  -4   3   13.50    1.80
   4  -4  -3   19.22    3.41
   4   4  -3   14.39    1.74
   4   4  -3   15.10    1.50
   4   4  -3   15.59    1.78
   4   4  -3   15.17    1.71
  -4   4   3   15.62    1.88
  -4   4   3   12.37    1.24
   4   4  -3   13.69    2.25
  -3  -4   3   48.08    4.19
   3  -4  -3   46.95    4.75
   3  -4  -3   55.67    4.13
  -3  -4   3   51.07    3.56
  -3  -4   3   47.49    4.12
  -3  -4   3   55.48    3.87
   3   4  -3   56.12    4.15
  -3   4   3   57.41    3.91
  -3   4   3   58.68    4.01
  -3   4   3   48.18    3.88
  -3   4   3   53.64    3.91
   3   4  -3   53.64    3.54
   3   4  -3   50.73    3.62
   3   4  -3   51.72    3.47
  -3   4   3   56.27    3.29
  -2  -4   3   37.86    3.42
  -2  -4   3   36.12    3.35
   2  -4  -3   43.59    3.34
  -2  -4   3   46.64    2.89
  -2  -4   3   44.94    3.13
   2  -4  -3   44.08    3.17
  -2   4   3   47.49    3.14
  -2   4   3   39.05    3.14
   2   4  -3   40.71    3.28
  -2   4   3   42.65    3.41
  -2   4   3   42.37    3.23
   2   4  -3   44.65    3.33
   2   4  -3   37.06    2.89
   2   4  -3   41.59    2.96
   1  -4  -3  131.43   10.16
   1  -4  -3  127.66    9.57
  -1  -4   3  144.09    9.63
  -1  -4   3  122.96   10.17
   1  -4  -3  153.58    9.67
  -1  -4   3  131.75   10.04
   1   4  -3  136.61   10.15
  -1   4   3  147.49   10.15
  -1   4   3  141.95    9.44
  -1   4   3  138.27   10.04
  -1   4   3  152.70    9.63
   1   4  -3  136.53    9.99
   1   4  -3  144.73    8.68
   1   4  -3  141.13    9.66
   0  -4  -3   38.52    3.19
   0  -4   3   43.20    3.02
   0  -4  -3   37.00    3.02
   0  -4   3   40.62    3.24
   0  -4   3   37.78    3.24
   0   4   3   40.89    3.16
   0   4  -3   42.69    3.14
   0   4  -3   44.45    2.73
   0   4   3   37.10    3.21
   0   4  -3   39.22    3.12
   0   4   3   38.71    2.95
   0   4  -3   47.70    3.17
  -1  -4  -3   84.78    7.20
   1  -4   3   97.21    6.86
  -1  -4  -3   88.92    6.81
  -1  -4  -3   89.85    7.20
   1  -4   3  102.72    7.15
   1  -4   3  112.76    7.25
  -1  -4  -3  107.45    6.92
  -1   4  -3  101.17    7.07
  -1   4  -3   88.65    6.17
  -1   4  -3  108.63    6.95
   1   4   3   96.91    7.21
   1   4   3   91.76    6.67
   1   4   3   91.48    7.13
  -1   4  -3  112.01    7.21
   2  -4   3   49.14    3.12
   2  -4   3   47.63    3.67
  -2  -4  -3   47.53    3.61
   2  -4   3   52.71    3.85
  -2  -4  -3   45.23    3.89
  -2   4  -3   53.87    3.75
   2   4   3   46.16    3.82
   2   4   3   49.36    3.80
  -2   4  -3   51.88    3.80
   2   4   3   50.15    3.32
  -3  -4  -3   30.70    2.64
   3  -4   3   39.39    3.47
   3  -4   3   32.40    2.72
  -3  -4  -3   35.52    2.85
   3  -4   3   33.94    2.35
   3   4   3   30.68    2.80
  -3   4  -3   34.00    2.96
   3   4   3   32.34    2.74
   3   4   3   33.92    2.52
   4  -4   3  110.12    6.90
   4  -4   3  127.34    8.26
   4  -4   3  111.34    7.95
  -4  -4  -3  110.25    7.81
  -4   4  -3  108.12    8.06
   4   4   3  108.81    7.14
   4   4   3  104.40    7.10
  -4   4  -3  116.37    6.79
   5  -4   3    2.34    1.08
  -5  -4  -3    2.27    1.04
  -5  -4  -3    3.28    1.10
   5  -4   3    4.44    2.22
   5   4   3    3.46    1.49
  -5   4  -3    4.34    1.52
  -6  -4  -3   24.03    2.28
  -6  -4  -3   26.79    3.37
   6  -4   3   24.84    3.93
  -6   4  -3   23.24    3.10
   6   4   3   20.19    2.73
  -7  -4  -3   16.73    3.18
  -7  -4  -3   18.55    1.98
   7  -4   3   14.49    2.94
  -7   4  -3   14.71    3.06
   7   4   3   12.37    2.04
   8  -4   3   10.88    2.49
  -8  -5   3    3.33    0.92
  -8  -5   3    2.15    0.60
   8   5  -3    4.12    1.85
   7  -5  -3    2.48    2.97
  -7  -5   3    0.99    1.27
  -7   5   3   -0.81    1.33
   7   5  -3    0.15    2.03
   7   5  -3   -0.24    1.40
   6  -5  -3    5.93    3.04
  -6  -5   3    6.52    1.54
   6   5  -3    9.63    1.50
   6   5  -3   10.47    2.09
   5  -5  -3    3.32    2.63
  -5  -5   3   -0.10    1.24
   5  -5  -3   -0.46    0.80
  -5   5   3   -0.32    1.19
  -5   5   3   -0.31    1.02
   5   5  -3    0.19    1.74
   5   5  -3    0.67    1.24
  -5   5   3    1.65    0.87
   4  -5  -3   23.76    4.17
  -4  -5   3   25.42    2.84
  -4  -5   3   22.06    2.46
   4  -5  -3   24.94    2.41
  -4  -5   3   24.85    2.32
   4   5  -3   27.35    2.34
  -4   5   3   27.73    2.44
  -4   5   3   28.23    2.59
   4   5  -3   24.97    2.08
  -4   5   3   27.47    2.44
   4   5  -3   28.74    2.54
  -4   5   3   25.85    2.53
  -4   5   3   29.65    1.83
   4   5  -3   25.78    2.73
   4   5  -3   26.41    2.33
   3  -5  -3    0.96    0.84
  -3  -5   3    1.50    0.87
  -3  -5   3    0.68    1.13
   3  -5  -3    0.77    0.80
   3  -5  -3   -1.15    2.10
  -3  -5   3   -0.84    0.76
  -3   5   3    0.38    0.95
  -3   5   3    1.14    0.95
   3   5  -3    1.99    1.40
  -3   5   3    1.54    1.07
   3   5  -3    0.50    0.75
   3   5  -3   -0.23    0.62
  -3   5   3    1.20    0.59
  -3   5   3    1.54    0.83
  -3   5   3    0.85    0.49
   3   5  -3    0.65    0.95
  -2  -5   3   51.06    4.66
  -2  -5   3   63.51    3.96
   2  -5  -3   61.99    4.61
   2  -5  -3   62.43    4.38
  -2  -5   3   59.65    4.36
   2   5  -3   63.43    4.56
   2   5  -3   53.04    3.96
  -2   5   3   60.11    4.34
  -2   5   3   61.82    4.38
  -2   5   3   58.85    4.63
   2   5  -3   64.22    4.58
  -2   5   3   57.49    4.52
  -1  -5   3   11.91    1.89
  -1  -5   3   11.99    1.96
  -1  -5   3   15.60    1.60
   1  -5  -3   13.12    1.68
   1  -5  -3   19.18    1.71
   1  -5  -3   16.33    1.74
   1   5  -3   17.23    1.43
  -1   5   3   16.07    1.82
  -1   5   3   16.00    1.64
  -1   5   3   13.99    1.63
   1   5  -3   15.90    1.60
  -1   5   3   17.47    1.65
   1   5  -3   13.95    1.78
   1   5  -3   17.21    1.78
   0  -5   3  176.86   12.30
   0  -5   3  171.78   11.83
   0  -5  -3  149.14   11.72
   0  -5  -3  170.67   12.46
   0  -5  -3  192.56   11.89
   0  -5   3  191.26   12.51
   0  -5  -3  167.15   12.37
   0   5   3  169.54   12.28
   0   5  -3  159.78   11.86
   0   5  -3  169.25   12.44
   0   5  -3  187.24   12.25
   0   5   3  167.95   11.55
   0   5  -3  152.45   10.61
   0   5   3  170.34   12.45
   1  -5   3    2.51    0.71
  -1  -5  -3    2.20    0.74
  -1  -5  -3    1.93    1.12
  -1  -5  -3    2.56    0.83
   1  -5   3    0.97    0.83
   1  -5   3    1.87    1.00
  -1  -5  -3    2.69    0.85
   1   5   3    2.11    0.74
  -1   5  -3    3.12    0.96
  -1   5  -3    2.76    0.73
  -1   5  -3    2.91    0.70
   1   5   3    2.98    0.86
  -1   5  -3    2.56    0.60
   1   5   3    2.60    0.67
  -2  -5  -3  116.79    8.68
   2  -5   3  129.44    8.73
  -2  -5  -3  118.75    8.21
  -2  -5  -3  107.31    8.64
   2  -5   3  120.51    8.29
  -2  -5  -3  113.32    8.31
   2   5   3  123.95    7.47
   2   5   3  116.90    8.61
  -2   5  -3  123.43    8.66
  -2   5  -3  112.25    7.43
  -2   5  -3  118.83    8.38
   2   5   3  116.76    8.69
  -3  -5  -3    1.00    1.05
   3  -5   3    0.45    0.81
   3  -5   3    1.48    0.82
  -3  -5  -3    2.20    0.97
  -3   5  -3    3.69    1.26
  -3   5  -3    1.11    0.60
   3   5   3    2.10    0.69
   3   5   3    2.49    0.86
   3   5   3    2.83    1.37
   3   5   3    1.78    0.85
   4  -5   3   51.64    3.59
   4  -5   3   55.91    4.15
  -4  -5  -3   60.59    4.08
  -4  -5  -3   57.31    4.29
   4   5   3   49.85    4.21
   4   5   3   48.20    3.98
  -4   5  -3   54.62    4.39
   5  -5   3   -1.12    2.28
   5  -5   3   -1.02    0.97
  -5  -5  -3    1.08    1.05
   5   5   3   -0.36    1.38
   5   5   3   -0.31    1.54
  -5   5  -3    0.00    1.39
  -6  -5  -3   18.88    2.04
   6  -5   3   23.46    3.95
   6   5   3   14.28    2.71
  -6   5  -3   14.23    2.78
  -7  -5  -3    2.75    1.05
   7  -5   3    0.07    2.48
  -7   5  -3   -1.14    1.55
   7   5   3    0.50    1.21
  -8   5  -3   -0.68    1.20
  -8  -6   3    3.96    0.81
  -8  -6   3    0.77    0.78
  -7  -6   3    3.90    1.36
   7  -6  -3    4.18    2.87
   7   6  -3    3.32    1.36
  -7   6   3    1.94    1.38
   7   6  -3    4.26    1.91
   6  -6  -3    2.91    2.94
  -6  -6   3   -0.13    1.34
   6   6  -3    1.46    1.84
  -6   6   3   -0.88    1.32
   6   6  -3    0.46    1.33
  -5  -6   3    6.95    1.58
   5  -6  -3   10.49    3.07
   5   6  -3   10.40    1.48
   5   6  -3   11.54    2.03
  -5   6   3   10.52    1.68
  -5   6   3    7.51    1.30
  -4  -6   3    4.81    0.86
  -4  -6   3    3.80    1.43
   4  -6  -3    9.15    2.79
  -4  -6   3    3.22    1.03
  -4   6   3    4.84    1.40
  -4   6   3    5.31    1.15
  -4   6   3    3.83    0.62
  -4   6   3    4.62    0.74
   4   6  -3    5.25    1.06
  -4   6   3    7.46    1.26
   3  -6  -3   20.36    2.04
   3  -6  -3   20.40    2.29
  -3  -6   3   22.15    1.93
  -3  -6   3   20.28    2.03
  -3  -6   3   17.77    2.32
  -3  -6   3   17.10    2.58
   3   6  -3   18.99    2.03
   3   6  -3   22.60    1.94
  -3   6   3   17.30    2.29
   3   6  -3   22.12    2.13
  -3   6   3   20.87    2.19
  -3   6   3   22.83    2.21
   3   6  -3   18.79    2.36
  -3   6   3   18.85    1.93
   2  -6  -3   -1.05    0.94
  -2  -6   3   -0.63    0.94
  -2  -6   3    1.59    1.16
  -2  -6   3    0.89    0.89
   2  -6  -3   -0.13    0.86
  -2  -6   3    0.40    0.75
  -2   6   3   -0.24    0.99
   2   6  -3    1.20    0.65
   2   6  -3   -0.06    0.80
  -2   6   3   -1.66    1.04
  -2   6   3   -0.07    0.63
  -2   6   3    0.81    0.83
   2   6  -3    0.49    0.70
  -1  -6   3   67.66    5.47
   1  -6  -3   76.98    5.20
  -1  -6   3   67.96    5.12
   1  -6  -3   66.98    5.42
  -1  -6   3   68.94    5.50
   1   6  -3   74.97    4.61
  -1   6   3   70.38    5.36
   1   6  -3   61.22    5.17
  -1   6   3   70.59    5.35
   1   6  -3   74.50    5.34
  -1   6   3   69.99    5.06
  -1   6   3   73.08    5.14
   1   6  -3   76.93    5.34
   0  -6   3   -0.33    0.92
   0  -6  -3    0.64    0.93
   0  -6  -3   -1.73    0.95
   0  -6  -3    1.10    1.40
   0  -6   3   -0.23    0.75
   0  -6   3   -0.22    1.18
   0   6  -3    1.16    0.57
   0   6   3    1.03    0.83
   0   6  -3    0.01    1.01
   0   6   3   -1.32    0.86
   0   6   3   -0.06    0.66
   0   6  -3    0.88    0.73
   1  -6   3   62.17    4.56
  -1  -6  -3   52.61    4.25
   1  -6   3   55.93    4.24
  -1  -6  -3   57.41    4.72
   1  -6   3   59.42    4.69
  -1  -6  -3   54.85    4.48
  -1  -6  -3   56.17    4.35
  -1   6  -3   56.43    3.80
  -1   6  -3   57.31    4.37
   1   6   3   57.81    4.42
   1   6   3   54.44    4.11
  -1   6  -3   51.86    4.40
   1   6   3   61.50    4.48
  -1   6  -3   65.32    4.38
   2  -6   3    4.18    1.38
  -2  -6  -3    2.34    0.92
   2  -6   3    2.81    1.01
  -2  -6  -3    2.74    1.07
  -2  -6  -3    3.76    0.94
   2  -6   3    3.65    0.84
  -2  -6  -3    2.25    1.36
   2   6   3    4.59    0.99
  -2   6  -3    3.89    1.19
   2   6   3    2.90    0.85
  -2   6  -3    5.97    1.04
   2   6   3    4.30    0.82
  -2   6  -3    4.09    0.80
   2   6   3    4.45    0.89
   3  -6   3  116.72    7.63
  -3  -6  -3   91.53    7.22
  -3  -6  -3  100.99    7.61
  -3  -6  -3  103.50    7.18
  -3   6  -3   88.46    7.36
   3   6   3   98.89    7.53
   3   6   3  106.61    6.53
  -3   6  -3   93.81    7.46
   3   6   3  114.41    7.55
   3   6   3   97.66    6.60
   4  -6   3   18.92    3.64
  -4  -6  -3   16.98    2.24
  -4  -6  -3   11.65    1.95
   4   6   3   12.85    1.74
  -4   6  -3   12.65    1.30
  -4   6  -3   15.69    2.43
   4   6   3   15.05    2.52
  -5  -6  -3   31.59    3.01
   5  -6   3   43.21    4.56
  -5  -6  -3   35.88    3.18
  -5   6  -3   32.37    3.49
   5   6   3   34.58    3.34
   6  -6   3   12.33    2.91
  -6  -6  -3   11.80    1.94
   6   6   3   14.17    2.51
  -6   6  -3    7.74    1.81
   7  -6   3   27.98    4.30
  -7  -6  -3   30.33    2.63
   7   6   3   27.60    3.02
  -8  -6  -3    2.49    0.66
  -7  -7   3    1.32    0.79
   7   7  -3   -0.41    0.81
   7   7  -3    0.40    1.63
  -6  -7   3    2.86    1.46
   6  -7  -3    3.47    2.74
  -6   7   3    1.69    1.15
  -6   7   3    6.48    1.46
   6   7  -3    4.41    1.85
   6   7  -3    3.11    1.39
   5  -7  -3   10.64    3.23
  -5  -7   3    8.83    1.75
  -5   7   3   11.90    2.04
   5   7  -3   13.97    2.61
   5   7  -3   14.83    2.11
   4  -7  -3    3.83    2.91
   4  -7  -3    3.63    1.23
  -4  -7   3    2.49    1.06
  -4  -7   3    3.34    1.43
  -4   7   3    3.81    1.44
  -4   7   3    3.24    1.15
   4   7  -3    3.84    1.31
  -3  -7   3   27.16    3.02
  -3  -7   3   30.03    3.25
   3  -7  -3   31.38    2.66
   3   7  -3   28.76    2.91
  -3   7   3   36.37    2.93
  -3   7   3   31.11    2.80
  -2  -7   3   -0.77    1.02
   2  -7  -3   -0.36    0.90
   2  -7  -3    0.71    1.03
  -2  -7   3    1.40    1.29
  -2  -7   3    2.06    0.95
  -2   7   3    1.55    0.61
   2   7  -3    1.06    0.57
  -2   7   3    0.13    1.16
  -2   7   3    1.30    1.02
   2   7  -3    1.36    0.71
  -2   7   3    2.11    0.77
  -1  -7   3   78.75    5.89
   1  -7  -3   75.25    5.38
  -1  -7   3   65.75    5.36
   1  -7  -3   71.16    5.70
  -1  -7   3   66.31    5.72
   1  -7  -3   81.52    5.49
  -1   7   3   77.43    5.33
   1   7  -3   67.68    5.50
   1   7  -3   73.35    5.56
   1   7  -3   67.34    4.77
  -1   7   3   78.23    5.59
   1   7  -3   82.82    5.57
  -1   7   3   76.09    5.57
  -1   7   3   71.55    5.39
   0  -7  -3    0.09    0.95
   0  -7   3    0.72    1.31
   0  -7   3   -0.63    1.03
   0  -7  -3    0.32    0.94
   0  -7  -3    0.46    1.06
   0  -7   3   -0.36    0.78
   0   7   3    1.96    0.85
   0   7  -3    0.47    1.15
   0   7  -3    1.33    0.52
   0   7  -3    1.18    0.76
   0   7  -3    0.93    0.71
   0   7   3    0.14    0.96
   0   7   3    1.26    0.62
  -1  -7  -3   43.56    3.94
  -1  -7  -3   44.17    3.51
   1  -7   3   45.76    4.00
  -1  -7  -3   38.76    3.40
   1  -7   3   44.81    3.64
  -1   7  -3   34.78    2.87
  -1   7  -3   45.98    3.39
   1   7   3   41.23    3.18
  -1   7  -3   38.02    3.26
   1   7   3   40.99    3.35
  -2  -7  -3    0.57    1.39
  -2  -7  -3   -1.29    1.10
   2  -7   3   -1.17    1.03
   2  -7   3    0.65    1.49
  -2  -7  -3    0.00    0.87
  -2   7  -3    0.51    0.44
  -2   7  -3   -0.02    1.26
   2   7   3    0.94    0.65
   2   7   3    1.10    0.82
   2   7   3   -0.16    0.82
  -2   7  -3    0.87    0.73
   3  -7   3   17.45    2.24
  -3  -7  -3   13.80    2.48
  -3  -7  -3   14.18    1.97
  -3  -7  -3   16.01    1.86
   3   7   3   14.13    1.75
  -3   7  -3   13.11    2.34
   3   7   3   12.11    1.96
   4  -7   3   12.47    2.84
  -4  -7  -3   11.97    1.88
  -4  -7  -3    8.77    1.63
   4   7   3   12.16    1.98
  -4   7  -3    9.92    1.70
  -5  -7  -3    6.81    1.37
   5  -7   3   10.78    2.90
  -5  -7  -3   10.23    2.20
   5   7   3    6.72    1.87
  -5   7  -3    4.93    1.68
   6  -7   3   -0.16    2.01
  -6   7  -3    0.15    1.56
   6   7   3    0.81    1.30
  -6   7  -3    3.31    1.31
  -7  -7  -3    4.84    1.01
  -7   8   3    6.02    1.19
   6  -8  -3    4.31    2.92
  -6  -8   3    5.79    1.36
  -6  -8   3    3.83    1.39
   6   8  -3    7.29    1.76
  -6   8   3    4.48    1.11
   5  -8  -3   -0.20    1.29
   5  -8  -3    4.05    3.04
  -5  -8   3    0.17    1.35
  -5   8   3   -1.36    1.11
  -5   8   3   -0.62    1.50
   5   8  -3    0.81    1.68
  -4  -8   3   15.54    2.30
   4  -8  -3   13.91    3.46
  -4  -8   3   16.19    2.75
   4  -8  -3   22.93    2.55
   4   8  -3   19.08    2.47
  -4   8   3   20.76    2.61
  -4   8   3   17.26    2.32
  -3  -8   3   -0.25    1.10
  -3  -8   3    1.51    1.46
   3   8  -3    1.47    1.46
  -3   8   3   -0.68    1.12
   3   8  -3   -1.08    1.24
  -3   8   3   -2.41    1.36
  -2  -8   3   14.79    2.78
   2  -8  -3   15.73    2.28
  -2  -8   3   13.21    2.34
  -2   8   3   16.51    2.22
  -2   8   3   15.91    2.11
   1  -8  -3   -1.26    1.19
  -1  -8   3   -0.01    1.09
  -1  -8   3    1.58    1.54
   1  -8  -3   -0.88    1.02
   1   8  -3    1.01    0.55
  -1   8   3    0.32    1.02
   1   8  -3    0.98    1.14
  -1   8   3    0.71    1.17
   0  -8  -3    9.97    1.62
   0  -8  -3   10.88    1.54
   0  -8   3   17.99    2.83
   0   8  -3   15.16    2.17
   0   8   3   11.90    1.91
   0   8  -3   14.28    1.28
  -1  -8  -3    0.42    1.18
   1  -8   3    1.24    1.13
   1  -8   3    2.46    1.66
  -1  -8  -3    0.56    1.58
  -1  -8  -3    0.07    1.04
   1   8   3    1.62    1.01
  -1   8  -3    2.43    1.25
  -2  -8  -3   12.53    2.69
  -2  -8  -3    9.60    1.91
  -2  -8  -3    9.51    1.53
  -2   8  -3    8.92    1.59
   2   8   3   12.23    1.62
   3  -8   3    0.80    1.14
  -3  -8  -3   -0.58    0.96
  -3  -8  -3   -0.27    1.48
  -3   8  -3   -0.01    1.35
   3   8   3    3.30    1.67
  -4  -8  -3    4.11    1.51
  -4  -8  -3    2.16    0.98
   4  -8   3    7.79    2.89
  -4  -8  -3    1.60    1.31
  -4   8  -3    4.25    1.46
   4   8   3    7.82    1.85
  -5  -8  -3   -2.23    1.24
   5  -8   3   -0.74    2.70
  -5  -8  -3    0.76    1.32
   5   8   3    1.28    1.71
  -5   8  -3   -2.16    1.35
  -6  -8  -3    3.12    1.27
  -6  -8  -3    5.47    1.10
   6  -8   3    2.98    2.61
  -6   8  -3    1.67    1.44
   6   8   3    5.05    1.59
   6   9  -3    7.68    1.11
   6   9  -3    9.31    1.48
  -5  -9   3    9.00    1.63
   5  -9  -3   10.94    3.21
  -5  -9   3    5.27    1.61
   5   9  -3    9.53    1.74
  -5   9   3    5.70    1.19
   5   9  -3    7.81    1.75
  -4  -9   3    1.37    1.11
   4  -9  -3    1.47    3.02
  -4  -9   3    2.22    1.54
   4  -9  -3    2.40    1.33
   4   9  -3    2.52    1.31
  -4   9   3    4.45    1.51
  -4   9   3    2.16    1.16
   4   9  -3    2.84    1.53
   3  -9  -3    2.39    1.19
  -3  -9   3    1.83    1.22
  -3  -9   3    1.74    1.53
  -3   9   3    3.63    1.49
  -3   9   3    3.38    1.15
   3   9  -3    2.09    1.47
   2  -9  -3    0.89    1.16
  -2  -9   3    1.12    1.58
  -2  -9   3    0.11    1.13
  -2   9   3    3.55    1.32
  -2   9   3    2.07    1.12
   1  -9  -3    7.25    1.37
  -1  -9   3    8.78    1.93
  -1  -9   3    9.87    2.14
  -1   9   3   12.79    2.04
   1   9  -3    8.31    1.37
   0  -9  -3   -0.78    1.22
   0  -9   3   -0.04    1.11
   0  -9   3   -0.33    1.74
   0  -9  -3    0.17    1.06
   0   9   3    0.07    1.09
   0   9  -3    0.79    1.18
  -1  -9  -3    3.96    1.36
  -1  -9  -3    3.69    1.85
   1  -9   3    5.88    1.30
   1  -9   3    5.10    1.87
  -1  -9  -3    4.01    1.15
   1   9   3    5.62    1.11
  -1   9  -3    4.20    1.36
  -2  -9  -3    6.22    1.76
  -2  -9  -3    8.57    1.87
  -2  -9  -3    7.33    1.40
   2  -9   3    5.59    1.98
  -2   9  -3    5.74    1.49
  -3  -9  -3    2.48    1.58
  -3  -9  -3    3.30    1.07
  -3  -9  -3    3.67    1.35
   3  -9   3    5.75    1.31
   3   9   3    6.21    1.76
  -3   9  -3    2.70    1.44
  -4  -9  -3    0.76    1.48
  -4  -9  -3    1.76    0.89
   4  -9   3    2.85    2.42
   4  -9   3    2.14    1.21
   4   9   3    1.71    1.74
  -5  -9  -3    5.36    1.35
   5  -9   3    5.02    2.83
  -5   9  -3    4.86    1.48
   5   9   3    7.80    1.70
  -5   9  -3    4.05    1.44
  -6  -9  -3    1.11    0.79
  -5  10   3    2.75    0.72
  -4 -10   3    1.43    1.46
  -4 -10   3    1.46    1.01
   4 -10  -3    3.32    2.78
  -4 -10   3   -0.76    1.42
  -4  10   3    0.84    1.37
  -3 -10   3    3.78    1.22
   3 -10  -3    2.91    1.27
  -3 -10   3    2.75    1.60
  -3  10   3    5.44    1.21
  -3  10   3    5.55    1.46
  -2 -10   3    0.78    1.17
  -2 -10   3    0.23    1.68
  -2  10   3    0.18    1.32
  -2  10   3    1.48    1.09
  -1 -10   3   21.00    2.64
   1 -10  -3   18.07    2.48
   1 -10  -3   17.64    2.48
   0 -10   3    0.94    1.13
   0 -10   3   -0.10    1.84
   0  10   3   -0.64    1.14
   0  10  -3    1.19    1.20
  -1 -10  -3   12.61    2.37
   1 -10   3   19.92    3.36
   1 -10   3   20.88    2.60
   1  10   3   18.84    2.11
  -1  10  -3   16.37    2.46
  -2 -10  -3   -0.16    1.32
  -2 -10  -3    0.02    1.68
  -2 -10  -3    0.48    1.10
  -2  10  -3   -0.36    1.25
  -3 -10  -3    9.96    2.13
  -3 -10  -3   11.44    1.96
   3  10   3   14.57    2.31
  -3  10  -3    9.12    1.64
  -4 -10  -3    2.27    1.34
  -4 -10  -3    0.40    0.86
  -4  10  -3   -1.89    1.41
  -4  10  -3    0.60    1.40
   4  10   3    0.28    1.54
   5 -10   3    8.92    1.46
  -3 -11   3    3.91    1.09
  -2 -11   3    4.50    1.34
   2 -11  -3    4.71    1.35
  -1 -11   3    1.49    0.93
  -1 -11   3    1.71    1.78
   1 -11  -3    2.12    1.07
  -1 -11   3    3.18    1.23
   0 -11  -3    4.84    1.40
   0 -11   3    5.06    1.30
   0 -11  -3    4.25    1.11
   0 -11   3    6.16    1.95
   0 -11   3    9.00    1.75
  -1 -11  -3   -0.10    1.00
   1 -11   3    0.66    1.12
   1 -11   3   -0.91    1.71
   1  11   3    1.99    0.74
  -1  11  -3    1.64    1.25
  -2 -11  -3    1.58    1.25
  -2 -11  -3    2.62    1.10
   2 -11   3    4.06    1.32
  -3 -11  -3    0.83    0.96
   0 -12   3    7.53    1.46
  -9   0   4   -2.74    1.47
  -9   0   4    1.99    0.83
  -8   0   4   14.04    2.08
  -8   0   4    9.57    2.06
  -7   0   4   -0.56    1.16
  -7   0   4   -0.42    1.63
  -7   0   4   -0.73    1.29
  -6   0   4   29.64    2.55
  -6   0   4   24.53    3.29
   6   0  -4   31.43    3.55
  -6   0   4   31.02    2.92
  -5   0   4   -1.14    0.95
  -5   0   4   -1.42    1.28
   5   0  -4    0.33    1.80
  -5   0   4   -1.33    0.80
  -5   0   4   -1.75    1.28
  -5   0   4    0.07    0.93
  -4   0   4   84.81    4.83
  -4   0   4   70.63    5.13
  -4   0   4   70.34    4.71
   4   0  -4   64.78    5.36
  -4   0   4   72.81    5.37
  -4   0   4   72.76    4.60
  -3   0   4   -0.65    0.69
   3   0  -4   -0.19    0.58
  -3   0   4   -0.70    0.68
   3   0  -4    0.08    1.17
  -3   0   4   -0.51    0.75
  -3   0   4   -0.71    0.98
   2   0  -4   60.65    3.96
  -2   0   4   52.95    4.23
  -2   0   4   55.33    3.96
  -2   0   4   55.37    3.87
   2   0  -4   53.15    3.56
  -2   0   4   63.73    3.88
   2   0  -4   47.74    3.88
  -2   0   4   54.90    3.54
  -2   0   4   52.99    3.91
   1   0  -4   -0.73    0.48
   1   0  -4   -0.04    0.65
  -1   0   4   -0.09    0.48
  -1   0   4   -0.70    0.61
  -1   0   4   -0.24    0.67
   1   0  -4    1.26    0.69
  -1   0   4    0.37    0.65
  -1   0   4    0.24    0.53
   0   0   4  339.76   24.12
   0   0  -4  326.94   22.71
   0   0  -4  374.85   22.36
   0   0  -4  307.34   20.49
   0   0   4  328.96   22.34
   0   0   4  351.53   22.71
   0   0   4  309.49   20.49
  -1   0  -4   -0.10    0.60
   1   0   4   -0.42    0.63
  -1   0  -4   -0.05    0.88
   1   0   4   -0.42    0.61
   1   0   4    0.73    0.61
  -2   0  -4  267.90   19.88
   2   0   4  295.34   19.85
  -2   0  -4  289.81   20.14
  -2   0  -4  308.26   17.44
   2   0   4  295.48   17.38
   2   0   4  295.50   17.45
  -3   0  -4   -0.31    0.48
  -3   0  -4   -0.28    1.03
   3   0   4    0.30    0.70
  -3   0  -4   -0.08    1.20
   3   0   4    0.20    0.81
   4   0   4  132.66    8.52
   4   0   4  140.71    8.59
  -4   0  -4  134.89   10.09
  -4   0  -4  133.74    9.77
  -4   0  -4  148.10    8.51
  -4   0  -4  152.86    9.72
  -4   0  -4  139.28    8.98
  -5   0  -4    0.31    0.46
  -5   0  -4   -1.92    1.65
  -5   0  -4   -0.94    1.04
  -5   0  -4   -0.84    0.58
   5   0   4   -0.58    1.16
  -5   0  -4   -2.11    1.61
   5   0   4   -1.12    1.28
  -6   0  -4   23.26    3.43
   6   0   4   22.39    2.35
  -6   0  -4   24.29    3.19
  -7   0  -4   -0.47    1.96
  -7   0  -4    2.11    1.97
  -8   0  -4   20.08    3.24
  -8   0  -4   11.34    2.27
  -9  -1   4    7.83    1.93
  -9   1   4    5.91    1.88
  -8  -1   4    5.99    1.32
  -8  -1   4    5.42    1.87
  -8   1   4    6.40    1.35
  -8   1   4    3.63    1.81
  -7  -1   4   11.58    1.84
  -7  -1   4   12.04    1.92
  -7   1   4    7.98    1.45
   7   1  -4    9.99    2.42
  -7   1   4   10.31    1.89
  -6  -1   4   18.33    2.47
  -6  -1   4   12.36    2.67
  -6  -1   4   17.74    2.07
   6   1  -4   18.07    3.04
  -6   1   4   14.60    2.02
  -6   1   4   18.45    2.48
   5  -1  -4   41.89    3.79
  -5  -1   4   40.86    2.88
  -5  -1   4   41.88    3.54
  -5  -1   4   44.22    3.03
  -5  -1   4   39.21    3.16
  -5  -1   4   47.45    3.21
   5  -1  -4   40.22    4.28
  -5  -1   4   40.16    3.77
  -5  -1   4   37.68    2.57
  -5   1   4   38.86    3.16
  -5   1   4   34.26    2.80
  -5   1   4   37.20    2.97
  -5   1   4   42.78    3.64
   5   1  -4   39.31    3.76
  -5   1   4   38.84    2.59
  -4  -1   4   18.49    2.37
  -4  -1   4   23.64    1.99
   4  -1  -4   19.66    2.44
   4  -1  -4   18.60    2.91
  -4  -1   4   16.83    2.50
  -4  -1   4   22.40    1.82
  -4  -1   4   20.01    1.77
  -4  -1   4   21.47    2.00
  -4   1   4   20.25    2.44
   4   1  -4   21.06    2.42
  -4   1   4   16.71    1.80
   4   1  -4   23.01    1.70
  -4   1   4   21.18    1.93
   3  -1  -4  120.57    8.57
  -3  -1   4  133.14    8.38
  -3  -1   4  122.69    8.92
   3  -1  -4  117.72    8.47
  -3  -1   4  130.56    7.60
  -3  -1   4  118.68    7.64
  -3  -1   4  122.00    7.41
  -3  -1   4  124.95    8.44
   3  -1  -4  118.17    8.26
   3   1  -4  111.93    8.47
  -3   1   4  122.75    8.47
  -3   1   4  111.64    7.62
  -3   1   4  117.38    8.29
   3   1  -4  137.10    7.65
  -3   1   4  122.44    8.36
   2  -1  -4    5.77    0.96
   2  -1  -4    5.07    0.76
  -2  -1   4    4.57    0.91
   2  -1  -4    4.40    0.91
   2  -1  -4    5.23    1.12
  -2  -1   4    6.00    1.16
  -2   1   4    4.57    0.83
   2   1  -4    7.43    1.33
   2   1  -4    7.01    0.99
  -2   1   4    4.74    1.03
   2   1  -4    4.45    0.82
  -2   1   4    5.39    0.76
  -2   1   4    7.01    0.88
  -2   1   4    5.14    0.96
   2   1  -4    6.03    1.08
  -1  -1   4   70.87    4.54
  -1  -1   4   67.59    5.34
   1  -1  -4   72.71    4.95
  -1  -1   4   71.78    5.27
   1  -1  -4   79.73    5.39
   1  -1  -4   72.64    4.51
   1  -1  -4   67.61    5.11
  -1   1   4   68.85    4.92
  -1   1   4   74.38    5.34
   1   1  -4   73.13    4.94
   1   1  -4   69.73    4.56
  -1   1   4   73.27    4.49
   1   1  -4   72.08    5.31
  -1   1   4   72.35    5.09
   0  -1  -4   20.39    1.92
   0  -1   4   21.73    1.57
   0  -1   4   20.11    1.80
   0  -1   4   18.74    1.72
   0  -1  -4   19.02    1.71
   0  -1   4   21.71    1.64
   0  -1   4   19.25    1.50
   0  -1  -4   19.58    1.87
   0   1   4   19.63    1.64
   0   1  -4   17.87    1.46
   0   1   4   20.77    1.86
   0   1  -4   23.56    1.65
   0   1  -4   21.31    1.73
   0   1   4   21.94    1.77
   0   1  -4   22.59    1.60
  -1  -1  -4  427.91   27.95
   1  -1   4  402.23   28.17
  -1  -1  -4  413.08   27.52
   1  -1   4  379.63   27.95
   1  -1   4  445.03   29.67
  -1  -1  -4  426.31   29.70
  -1   1  -4  375.99   27.94
  -1   1  -4  456.05   29.67
   1   1   4  357.30   27.49
  -1   1  -4  413.84   28.20
   1   1   4  446.08   27.94
   1   1   4  414.72   29.68
  -1   1  -4  392.96   25.24
   2  -1   4  170.07    9.95
  -2  -1  -4  163.15   11.38
  -2  -1  -4  155.85   10.29
   2   1   4  172.55   11.35
  -2   1  -4  161.46   11.56
   2   1   4  170.96   10.01
   2   1   4  168.58    9.94
  -3  -1  -4   92.80    6.07
   3  -1   4   94.94    6.63
   3  -1   4   85.77    5.74
  -3  -1  -4   98.27    6.53
  -3  -1  -4   87.63    6.54
   3  -1   4  100.91    5.82
  -3  -1  -4   89.17    6.60
  -3  -1  -4   97.18    5.74
   3   1   4   92.86    5.73
   3   1   4   89.75    5.80
  -3   1  -4   88.02    6.83
   3   1   4  107.79    6.52
  -3   1  -4   89.69    6.64
  -3   1  -4   97.69    5.71
  -4  -1  -4   47.61    3.13
   4  -1   4   51.01    4.03
   4  -1   4   42.78    3.23
  -4  -1  -4   45.22    3.88
  -4  -1  -4   49.99    3.72
  -4  -1  -4   49.02    3.66
  -4   1  -4   51.34    3.72
   4   1   4   46.37    3.22
  -4   1  -4   52.85    3.12
  -4   1  -4   45.08    3.98
  -4   1  -4   48.20    4.23
   4   1   4   47.16    3.37
   5  -1   4  136.26    8.67
  -5  -1  -4  133.42    8.59
   5  -1   4  151.61   10.00
  -5  -1  -4  136.98   10.33
  -5  -1  -4  150.92    9.81
  -5  -1  -4  127.79    9.88
  -5  -1  -4  153.24    9.23
  -5   1  -4  154.29    9.84
  -5   1  -4  127.90    8.48
   5   1   4  138.69    8.75
  -5   1  -4  136.70   10.23
  -5   1  -4  140.41    9.96
  -5   1  -4  147.05    8.60
   6  -1   4   13.01    2.09
  -6  -1  -4   15.24    3.23
  -6  -1  -4   16.80    3.03
   6   1   4   12.50    2.06
  -6   1  -4   13.79    2.18
  -6   1  -4   17.60    3.11
   6   1   4   15.27    2.39
  -7  -1  -4   36.99    3.77
  -7  -1  -4   33.63    4.08
  -7   1  -4   30.00    2.79
  -7   1  -4   32.21    4.08
  -7   1  -4   35.96    3.77
  -8  -1  -4   -1.33    1.89
  -8  -1  -4    3.99    2.03
  -8   1  -4    4.27    1.95
  -8   1  -4   -0.67    1.82
  -9  -2   4    6.68    1.28
  -8  -2   4   -0.79    1.10
  -8  -2   4    2.89    1.29
  -8  -2   4    1.32    1.76
  -8   2   4    3.06    1.27
  -8   2   4    1.23    1.77
   8   2  -4    2.49    1.81
  -7  -2   4    1.03    1.68
  -7  -2   4   -1.04    1.25
  -7  -2   4   -2.13    1.27
  -7   2   4   -0.47    1.24
   7   2  -4    0.21    2.10
  -6  -2   4    1.32    1.55
  -6  -2   4    1.38    1.24
  -6  -2   4   -0.06    1.24
   6  -2  -4    2.93    2.41
  -6   2   4    1.35    1.17
   6   2  -4    4.23    2.08
  -5  -2   4   12.50    2.32
  -5  -2   4   13.19    1.68
  -5  -2   4   11.17    1.15
  -5  -2   4   13.96    1.64
  -5  -2   4   12.54    2.20
  -5  -2   4   16.72    2.06
  -5  -2   4   16.35    1.92
   5  -2  -4   13.69    2.47
  -5   2   4   11.22    1.78
  -5   2   4   10.86    1.50
  -5   2   4   11.37    1.75
  -5   2   4   14.80    2.37
   5   2  -4   17.04    2.65
   5   2  -4   15.04    1.42
  -5   2   4   11.32    1.17
   4  -2  -4   14.88    2.34
   4  -2  -4   11.02    1.29
  -4  -2   4   16.13    1.54
  -4  -2   4   13.66    2.05
  -4  -2   4   17.03    1.72
   4  -2  -4   13.79    2.86
  -4  -2   4   12.63    2.19
  -4  -2   4   15.59    1.68
  -4   2   4   11.46    1.56
   4   2  -4   15.68    2.23
  -4   2   4   12.91    2.20
   4   2  -4   13.97    1.47
  -4   2   4   14.31    1.63
   3  -2  -4   26.07    2.90
  -3  -2   4   26.01    2.58
   3  -2  -4   28.68    2.07
  -3  -2   4   27.99    1.96
   3  -2  -4   26.37    2.55
  -3  -2   4   31.39    2.03
  -3  -2   4   29.28    2.09
   3   2  -4   29.15    2.04
  -3   2   4   25.59    2.01
  -3   2   4   26.18    2.16
   3   2  -4   23.60    2.46
  -3   2   4   23.93    2.14
   3   2  -4   24.86    1.90
   3   2  -4   25.39    2.04
   2  -2  -4   17.56    2.17
   2  -2  -4   17.64    1.54
   2  -2  -4   19.33    1.79
  -2  -2   4   20.07    1.56
  -2  -2   4   17.38    1.89
  -2  -2   4   16.32    1.70
  -2   2   4   16.93    1.42
   2   2  -4   14.48    1.81
  -2   2   4   19.82    1.59
   2   2  -4   17.85    1.63
   2   2  -4   17.37    1.54
  -2   2   4   15.21    1.57
   1  -2  -4  320.74   20.79
   1  -2  -4  307.53   21.15
  -1  -2   4  281.85   22.41
   1  -2  -4  336.41   22.43
  -1  -2   4  297.07   19.09
  -1  -2   4  297.49   21.99
   1   2  -4  326.03   19.12
  -1   2   4  304.65   21.10
  -1   2   4  314.80   19.06
   1   2  -4  278.86   22.40
  -1   2   4  327.35   20.78
   1   2  -4  297.58   21.98
  -1   2   4  347.92   22.42
   0  -2   4    1.32    0.53
   0  -2   4    1.09    0.55
   0  -2  -4    0.47    0.56
   0  -2   4    1.35    0.43
   0  -2   4    1.72    0.53
   0  -2  -4    0.06    0.68
   0  -2  -4    0.79    0.57
   0   2   4    0.35    0.49
   0   2  -4    0.97    0.49
   0   2  -4    0.90    0.43
   0   2   4    0.13    0.56
   0   2   4    0.71    0.49
   0   2  -4    1.91    0.58
   0   2  -4    0.33    0.46
  -1  -2  -4  119.08    8.83
  -1  -2  -4  120.99    8.16
  -1  -2  -4  127.19    8.33
   1  -2   4  130.32    8.82
   1  -2   4  115.61    8.27
   1  -2   4  122.17    8.37
  -1   2  -4  124.99    8.41
   1   2   4  112.29    7.47
  -1   2  -4  130.94    8.80
   1   2   4  104.54    8.65
   1   2   4  119.47    8.16
  -1   2  -4  119.12    7.50
   1   2   4  124.33    8.30
   1   2   4  121.34    8.80
   2  -2   4    6.81    1.00
  -2  -2  -4    6.24    1.18
   2  -2   4    4.07    0.74
  -2  -2  -4    5.27    0.92
   2  -2   4    7.14    1.19
   2   2   4    6.05    0.91
   2   2   4    5.94    1.03
  -2   2  -4    4.93    1.01
   2   2   4    5.66    0.93
   2   2   4    4.68    0.74
   3  -2   4  157.39   11.80
   3  -2   4  165.05   10.20
   3  -2   4  172.57   11.64
  -3  -2  -4  173.02   11.59
  -3  -2  -4  153.72   10.61
  -3  -2  -4  167.27   11.64
   3   2   4  187.51   11.63
  -3   2  -4  184.21   10.21
   3   2   4  176.12   10.19
  -3   2  -4  160.35   11.89
   4  -2   4    9.83    1.49
  -4  -2  -4    8.21    1.55
  -4  -2  -4    9.61    1.59
  -4  -2  -4    9.35    1.95
  -4  -2  -4   10.15    1.63
   4  -2   4   13.76    2.44
   4   2   4   11.56    1.51
   4   2   4   11.55    1.85
  -4   2  -4   11.53    1.20
   5  -2   4   58.28    4.06
  -5  -2  -4   62.05    4.50
  -5  -2  -4   58.04    4.60
   5  -2   4   67.17    5.02
  -5  -2  -4   51.68    4.65
  -5   2  -4   66.66    3.84
  -5   2  -4   56.37    5.07
   5   2   4   60.09    3.99
  -5   2  -4   61.53    4.51
   5   2   4   55.93    4.18
   6  -2   4    5.24    1.29
   6  -2   4    6.10    2.10
  -6  -2  -4    6.46    2.00
   6   2   4    4.01    1.26
   6   2   4    4.18    1.56
  -6   2  -4    5.31    1.84
  -7  -2  -4   47.15    4.24
  -7  -2  -4   43.08    4.61
   7   2   4   43.48    3.74
  -7   2  -4   40.07    4.51
  -8  -2  -4    0.71    1.73
  -8  -2  -4    3.55    2.16
  -8   2  -4   -1.35    1.70
  -8   2  -4    2.00    1.81
  -8   2  -4   -0.40    1.02
  -9   2  -4   14.06    1.34
  -9  -3   4    2.31    0.76
  -8  -3   4   20.84    2.22
  -8  -3   4   16.68    2.71
  -8   3   4   19.55    2.17
   8   3  -4   18.37    3.20
  -7  -3   4    0.21    1.32
   7  -3  -4    2.29    2.59
  -7  -3   4    1.00    1.31
  -7  -3   4    0.58    1.67
   7   3  -4    2.47    2.18
  -7   3   4   -0.18    1.26
   6  -3  -4    9.65    2.86
  -6  -3   4   13.96    2.11
  -6  -3   4   16.06    2.33
   6   3  -4   14.30    2.99
  -6   3   4   13.55    2.05
  -5  -3   4    4.05    0.94
  -5  -3   4    4.83    1.33
   5  -3  -4    5.30    2.39
  -5  -3   4    3.90    1.33
  -5  -3   4    4.37    1.26
  -5  -3   4    2.76    1.28
  -5   3   4    4.33    1.16
   5   3  -4    4.59    0.86
  -5   3   4    2.36    1.13
   5   3  -4    6.80    1.97
   4  -3  -4   26.25    3.50
  -4  -3   4   27.12    2.77
  -4  -3   4   29.91    2.37
  -4  -3   4   27.68    2.13
   4   3  -4   24.85    2.83
  -4   3   4   28.26    2.38
   4   3  -4   28.11    2.25
  -4   3   4   30.87    1.88
   4   3  -4   25.32    2.15
   4   3  -4   28.40    2.15
  -4   3   4   26.72    2.40
  -4   3   4   25.26    2.20
   3  -3  -4    8.32    1.79
  -3  -3   4    6.65    1.36
  -3  -3   4    8.64    1.42
   3  -3  -4    8.31    1.05
   3  -3  -4    6.83    1.44
   3   3  -4    8.28    1.26
   3   3  -4    8.22    1.30
  -3   3   4    8.57    1.06
  -3   3   4   10.45    1.25
   3   3  -4    6.92    1.12
  -3   3   4    7.51    1.26
  -3   3   4    6.44    1.03
   3   3  -4    8.28    1.72
   3   3  -4    6.87    1.14
   2  -3  -4   75.98    5.19
  -2  -3   4   66.83    5.58
  -2  -3   4   80.00    4.84
   2  -3  -4   65.82    5.61
  -2  -3   4   68.58    5.63
   2  -3  -4   82.09    5.64
   2   3  -4   72.86    4.86
  -2   3   4   74.58    5.23
   2   3  -4   74.30    5.58
   2   3  -4   84.80    5.59
  -2   3   4   80.91    5.58
   2   3  -4   76.99    4.85
  -1  -3   4   58.06    3.62
  -1  -3   4   46.62    3.86
  -1  -3   4   55.86    3.36
   1  -3  -4   45.60    3.73
  -1  -3   4   46.27    3.90
   1  -3  -4   53.45    3.58
   1  -3  -4   47.22    3.88
   1   3  -4   52.67    3.82
   1   3  -4   49.78    3.35
  -1   3   4   47.89    3.59
  -1   3   4   47.29    3.58
   1   3  -4   49.02    3.83
   1   3  -4   55.91    3.68
  -1   3   4   54.44    3.85
   0  -3  -4  213.23   14.01
   0  -3   4  221.61   12.89
   0  -3   4  220.81   14.34
   0  -3   4  189.69   15.11
   0  -3   4  202.82   14.83
   0  -3  -4  203.88   15.11
   0  -3  -4  194.46   14.25
   0   3  -4  221.22   14.36
   0   3  -4  210.08   12.88
   0   3   4  190.99   14.86
   0   3   4  206.01   15.11
   0   3   4  194.21   14.21
   0   3  -4  238.84   15.12
   0   3   4  200.93   14.00
   0   3  -4  221.90   14.82
   1  -3   4    2.04    0.68
   1  -3   4    2.31    0.60
  -1  -3  -4    1.47    0.61
  -1  -3  -4    1.51    0.75
  -1  -3  -4    1.53    0.65
   1   3   4    1.70    0.60
   1   3   4    1.61    0.69
  -1   3  -4    2.00    0.51
   1   3   4    1.37    0.57
  -1   3  -4    3.15    0.59
   1   3   4    1.91    0.68
   1   3   4    1.28    0.59
  -2  -3  -4  208.93   14.85
   2  -3   4  206.97   12.46
  -2  -3  -4  222.03   14.25
   2  -3   4  227.75   15.12
   2  -3   4  187.63   14.36
  -2   3  -4  234.33   15.10
   2   3   4  220.91   14.24
  -2   3  -4  197.90   14.42
   2   3   4  198.06   12.85
   2   3   4  188.28   14.83
  -2   3  -4  216.31   12.89
   2   3   4  193.12   15.09
  -3  -3  -4   23.41    2.32
   3  -3   4   24.52    2.03
  -3  -3  -4   28.26    2.25
   3  -3   4   24.85    2.28
   3   3   4   26.03    2.38
  -3   3  -4   29.66    1.86
  -3   3  -4   28.53    2.72
   3   3   4   24.51    2.08
  -4  -3  -4   58.14    4.22
   4  -3   4   65.58    4.78
   4  -3   4   57.42    4.38
   4  -3   4   52.62    3.78
  -4  -3  -4   55.15    4.23
  -4   3  -4   63.47    3.69
   4   3   4   51.45    4.00
   4   3   4   57.32    3.72
  -4   3  -4   54.80    4.68
  -5  -3  -4   -0.64    1.11
  -5  -3  -4    1.12    1.02
   5  -3   4    2.48    2.04
  -5  -3  -4    2.25    1.69
   5  -3   4   -0.28    1.14
  -5  -3  -4    0.94    1.05
   5   3   4    2.41    1.42
  -5   3  -4    2.58    1.59
  -5   3  -4    0.19    0.59
   5   3   4    0.31    1.04
  -6  -3  -4   55.97    4.37
   6  -3   4   60.48    4.99
   6  -3   4   42.87    3.61
  -6   3  -4   50.61    4.67
   6   3   4   48.42    3.98
  -7  -3  -4    4.74    2.15
   7  -3   4    4.99    2.30
  -7   3  -4    3.67    1.94
   7   3   4    4.16    1.67
  -8  -3  -4    7.39    1.93
  -8  -3  -4    9.10    2.32
   8   3   4    7.59    1.73
  -8   3  -4    4.14    1.95
  -8  -4   4    1.01    1.10
  -8  -4   4    0.25    1.02
   8  -4  -4   -0.80    2.52
  -8   4   4    2.11    1.23
   8   4  -4    0.60    2.00
  -7  -4   4    1.64    1.39
  -7  -4   4    1.08    1.41
   7  -4  -4    2.99    2.89
   7   4  -4    2.63    2.18
  -7   4   4    1.14    1.35
  -6  -4   4    2.58    1.40
  -6  -4   4    0.78    1.36
   6  -4  -4    4.95    2.82
  -6   4   4    0.05    1.28
   6   4  -4    2.75    2.04
   5  -4  -4   14.76    2.85
  -5  -4   4   15.82    2.12
  -5   4   4   14.22    1.95
   5   4  -4   16.47    1.71
  -5   4   4   13.34    1.22
   5   4  -4   12.97    2.61
  -5   4   4   12.73    1.82
   5   4  -4   13.28    1.46
   4  -4  -4   20.06    3.52
  -4  -4   4   19.32    1.80
  -4  -4   4   16.10    2.39
  -4  -4   4   21.18    2.02
  -4   4   4   21.06    1.46
   4   4  -4   16.80    2.51
  -4   4   4   17.97    2.03
   4   4  -4   18.69    1.76
  -4   4   4   17.06    2.00
   4   4  -4   18.84    1.90
  -3  -4   4    4.68    1.15
  -3  -4   4    6.87    1.18
   3  -4  -4    6.04    2.02
  -3  -4   4    7.71    1.39
   3  -4  -4    7.25    1.52
   3   4  -4    5.85    0.96
  -3   4   4    8.05    1.10
  -3   4   4    6.78    1.10
   3   4  -4    7.29    1.29
   3   4  -4    5.98    1.04
   3   4  -4    6.53    1.17
   3   4  -4    7.33    1.56
  -2  -4   4   14.44    1.47
  -2  -4   4   11.94    1.91
  -2  -4   4   14.51    1.35
   2  -4  -4   12.31    1.61
   2   4  -4   10.90    1.44
  -2   4   4   13.98    1.40
   2   4  -4   13.96    1.63
   2   4  -4   12.53    1.45
  -2   4   4   11.80    1.53
  -1  -4   4   54.14    4.77
   1  -4  -4   73.19    4.58
  -1  -4   4   66.49    4.47
  -1  -4   4   68.95    4.10
   1  -4  -4   64.41    4.79
  -1  -4   4   57.37    4.79
   1  -4  -4   55.83    4.54
   1   4  -4   58.30    4.70
  -1   4   4   63.80    4.77
  -1   4   4   60.23    4.43
   1   4  -4   66.55    4.70
  -1   4   4   62.31    4.72
   1   4  -4   63.66    4.08
  -1   4   4   63.79    4.45
   1   4  -4   64.35    4.54
   0  -4  -4   73.66    5.94
   0  -4   4   80.35    5.93
   0  -4   4   74.63    5.96
   0  -4  -4   76.43    5.64
   0  -4   4   82.10    5.63
   0   4   4   76.06    5.91
   0   4   4   78.93    5.52
   0   4  -4   89.55    5.93
   0   4  -4   83.05    5.83
   0   4   4   80.25    5.93
   0   4   4   76.09    5.56
   0   4  -4   90.10    5.09
   0   4  -4   77.87    5.68
   1  -4   4   35.22    2.82
  -1  -4  -4   32.20    2.79
  -1  -4  -4   34.18    3.06
   1  -4   4   34.94    2.25
  -1  -4  -4   31.85    2.68
   1  -4   4   35.26    2.63
  -1  -4  -4   33.73    2.70
  -1   4  -4   38.79    2.81
  -1   4  -4   36.50    2.70
   1   4   4   31.36    2.52
   1   4   4   30.08    2.80
   1   4   4   34.36    2.57
  -1   4  -4   29.62    2.35
   1   4   4   33.93    2.74
  -1   4  -4   37.76    2.67
   2  -4   4   57.30    4.23
   2  -4   4   64.59    4.46
  -2  -4  -4   55.64    4.45
  -2  -4  -4   56.83    4.19
  -2  -4  -4   54.18    4.39
   2  -4   4   61.84    3.64
   2   4   4   62.30    3.83
  -2   4  -4   56.88    4.33
  -2   4  -4   49.61    3.77
   2   4   4   52.46    4.36
   2   4   4   57.52    4.42
  -2   4  -4   63.94    4.36
  -3  -4  -4   38.12    3.02
  -3  -4  -4   38.84    3.21
   3  -4   4   39.13    2.66
   3  -4   4   45.29    3.73
   3  -4   4   36.89    3.07
   3   4   4   32.42    3.07
  -3   4  -4   38.43    3.39
  -3   4  -4   42.61    3.04
   3   4   4   38.13    3.08
   3   4   4   39.00    2.80
   4  -4   4  135.41    9.82
   4  -4   4  162.65   10.00
   4  -4   4  135.10    8.51
  -4  -4  -4  138.01    9.68
  -4   4  -4  154.29    8.49
   4   4   4  133.49    8.80
  -4   4  -4  130.63    9.96
   4   4   4  128.06    8.72
   5  -4   4   10.19    2.28
  -5  -4  -4    7.48    1.26
   5  -4   4    6.79    1.24
  -5  -4  -4    9.39    1.66
  -5   4  -4    5.56    0.99
   5   4   4    7.21    1.60
  -5   4  -4    6.53    1.70
  -6  -4  -4   25.71    2.44
  -6  -4  -4   25.79    3.29
   6  -4   4   28.29    3.84
   6  -4   4   21.52    2.36
  -6   4  -4   25.33    3.34
   6   4   4   22.02    2.90
  -7  -4  -4   13.07    1.89
  -7  -4  -4   14.32    2.41
   7  -4   4   11.51    2.64
  -7   4  -4    9.97    2.12
   8  -4   4    7.21    2.24
  -8   4  -4    7.66    1.76
  -8  -5   4   -0.11    0.51
  -7  -5   4   16.26    2.61
   7  -5  -4   13.61    3.45
   7   5  -4   19.49    3.05
  -7   5   4   14.81    2.18
  -6  -5   4    1.82    1.34
   6  -5  -4    3.76    2.84
  -6  -5   4    1.27    1.31
  -6   5   4    0.14    1.26
   6   5  -4    0.03    1.20
   6   5  -4    1.66    2.00
  -5  -5   4   80.62    4.96
   5  -5  -4   73.62    6.48
  -5  -5   4   68.05    5.77
  -5   5   4   79.09    5.33
   5   5  -4   71.40    4.80
   5   5  -4   64.70    5.66
  -5   5   4   69.80    5.25
   4  -5  -4   12.06    2.73
  -4  -5   4    6.14    1.46
   4  -5  -4    9.58    1.86
  -4  -5   4    7.03    1.40
  -4  -5   4   10.99    1.74
   4   5  -4   10.44    1.52
  -4   5   4    9.88    1.84
   4   5  -4    6.53    1.27
   4   5  -4    9.61    1.61
   4   5  -4    8.53    1.32
  -4   5   4   10.27    1.03
  -4   5   4    9.40    1.23
   4   5  -4   11.93    2.25
  -3  -5   4  118.69    9.02
   3  -5  -4  105.15    9.02
  -3  -5   4  114.81    8.49
  -3  -5   4  128.52    7.70
  -3  -5   4  112.59    8.96
   3  -5  -4  135.15    9.02
   3   5  -4  104.35    7.70
  -3   5   4  122.61    8.92
  -3   5   4  122.60    8.39
   3   5  -4  132.33    8.90
   3   5  -4  123.33    8.95
  -3   5   4  130.78    8.94
  -3   5   4  126.87    8.51
  -2  -5   4   -0.87    0.89
  -2  -5   4    0.15    1.06
   2  -5  -4   -0.36    0.86
  -2  -5   4    0.01    0.64
   2  -5  -4    0.88    0.78
  -2  -5   4    0.86    0.82
  -2   5   4    0.32    0.59
   2   5  -4   -0.03    0.69
   2   5  -4    0.26    0.79
   2   5  -4    0.02    0.59
  -2   5   4    0.57    0.80
  -2   5   4   -1.12    0.92
  -2   5   4   -0.52    0.79
  -1  -5   4  125.28   10.56
   1  -5  -4  141.57   10.56
   1  -5  -4  139.94    9.97
  -1  -5   4  141.60   10.00
  -1  -5   4  136.06   10.45
   1  -5  -4  160.30   10.06
  -1   5   4  141.43   10.42
  -1   5   4  140.69   10.53
   1   5  -4  162.50   10.41
   1   5  -4  150.39    9.02
   1   5  -4  136.33   10.05
  -1   5   4  151.50    9.99
   1   5  -4  143.72   10.54
  -1   5   4  147.23    9.81
   0  -5   4    0.50    0.98
   0  -5  -4   -0.15    0.91
   0  -5  -4   -0.36    0.75
   0  -5   4    0.38    0.82
   0  -5  -4    0.61    0.88
   0  -5   4    1.06    0.66
   0   5   4    0.98    0.76
   0   5  -4    0.68    0.59
   0   5  -4    0.78    0.65
   0   5   4   -0.77    0.78
   0   5  -4    1.01    0.97
   0   5  -4    0.83    0.62
   0   5   4   -0.04    0.60
   1  -5   4  100.89    7.01
  -1  -5  -4   81.64    6.55
   1  -5   4  100.57    6.95
  -1  -5  -4   91.05    7.03
  -1  -5  -4   89.53    6.94
   1  -5   4   90.13    6.60
  -1  -5  -4   95.04    6.66
   1   5   4   91.18    6.43
  -1   5  -4   97.59    6.92
  -1   5  -4   88.08    6.68
   1   5   4   95.77    6.93
  -1   5  -4   92.15    5.94
   1   5   4   91.10    6.90
  -1   5  -4  105.03    6.81
  -2  -5  -4   -0.40    0.92
  -2  -5  -4   -0.99    0.81
   2  -5   4    0.49    0.72
  -2  -5  -4   -0.30    0.78
   2  -5   4   -0.24    0.88
  -2  -5  -4    0.18    1.13
  -2   5  -4    0.44    0.57
   2   5   4    0.77    0.85
  -2   5  -4    0.72    0.69
   2   5   4   -1.03    0.69
   2   5   4    0.17    0.67
  -2   5  -4    1.54    1.13
   3  -5   4  149.52    9.66
  -3  -5  -4  133.68    9.82
   3  -5   4  130.80    9.45
  -3  -5  -4  141.79    9.38
   3  -5   4  138.56    8.19
  -3  -5  -4  131.17    9.89
   3  -5   4  146.55    9.94
  -3   5  -4  138.38    9.87
   3   5   4  135.88    9.78
   3   5   4  138.14    8.50
   3   5   4  125.30    9.89
   3   5   4  123.10    8.46
  -3   5  -4  120.96    9.55
  -4  -5  -4    1.14    1.05
   4  -5   4    1.19    2.15
   4  -5   4   -0.69    1.02
  -4  -5  -4    0.56    1.11
   4   5   4    1.99    1.51
   4   5   4    0.25    0.69
  -4   5  -4    1.26    0.57
  -4   5  -4    1.90    1.40
   5  -5   4   52.97    3.83
  -5  -5  -4   66.63    4.31
   5   5   4   50.50    4.23
  -5   5  -4   53.33    4.73
  -6  -5  -4    2.79    1.19
   6  -5   4    2.74    2.55
  -6   5  -4    1.22    1.69
   6   5   4    3.65    1.71
   7  -5   4   14.08    2.64
  -7   5  -4   14.72    2.19
   7   5   4   17.17    2.40
  -8  -5  -4    5.53    1.03
  -8  -6   4    1.84    0.51
  -8  -6   4    1.30    0.82
  -7  -6   4    1.30    1.28
   7  -6  -4    2.50    2.73
   7   6  -4   -0.29    1.51
  -7   6   4    1.19    1.35
   7   6  -4    1.12    1.22
  -6  -6   4    4.04    1.61
   6  -6  -4    6.89    3.15
  -6   6   4   11.95    2.05
   6   6  -4    9.99    2.16
   6   6  -4    8.29    1.39
  -6   6   4    6.07    1.52
  -5  -6   4   -0.54    1.40
   5  -6  -4    5.09    2.86
   5   6  -4    0.05    1.19
  -5   6   4   -0.39    1.30
   5   6  -4    1.97    1.88
  -4  -6   4   14.47    2.58
   4  -6  -4   19.68    2.31
  -4  -6   4   16.98    1.80
   4  -6  -4   18.54    3.17
  -4  -6   4   19.28    2.02
  -4   6   4   18.93    1.69
   4   6  -4   16.17    1.61
   4   6  -4   18.85    2.49
  -4   6   4   19.97    2.33
  -4   6   4   18.45    1.38
   4   6  -4   16.88    1.68
  -3  -6   4    0.92    1.05
  -3  -6   4   -1.30    1.02
  -3  -6   4   -0.36    0.73
   3  -6  -4   -0.76    0.98
  -3  -6   4   -0.20    1.26
   3   6  -4    0.74    1.57
  -3   6   4    1.57    0.87
  -3   6   4   -1.29    1.14
   3   6  -4   -0.22    0.97
  -3   6   4    0.39    0.61
  -3   6   4   -0.92    0.97
   3   6  -4    0.02    0.55
   3   6  -4   -0.77    0.75
   3   6  -4   -0.55    0.65
   2  -6  -4    6.73    1.17
  -2  -6   4    5.26    1.42
  -2  -6   4    6.68    1.40
  -2  -6   4    9.47    1.53
   2  -6  -4    8.02    1.58
  -2   6   4    8.38    1.31
  -2   6   4    7.93    1.63
   2   6  -4    7.39    1.46
   2   6  -4    7.52    1.29
  -2   6   4    8.76    1.73
   2   6  -4    8.34    1.29
  -2   6   4    7.58    1.51
  -1  -6   4   23.46    2.22
  -1  -6   4   23.75    2.77
  -1  -6   4   22.42    2.57
   1  -6  -4   24.81    2.48
   1  -6  -4   27.99    2.39
   1   6  -4   26.55    2.33
  -1   6   4   27.46    2.43
   1   6  -4   22.06    2.42
   1   6  -4   25.03    1.95
   1   6  -4   26.68    2.21
  -1   6   4   23.48    2.25
  -1   6   4   24.42    2.30
   0  -6   4   78.86    5.72
   0  -6  -4   79.13    5.74
   0  -6   4   82.60    6.14
   0  -6  -4   85.33    5.87
   0  -6   4   79.21    6.14
   0  -6  -4   75.84    6.06
   0   6  -4   71.03    5.85
   0   6   4   81.65    6.02
   0   6   4   78.98    5.62
   0   6  -4   75.99    5.14
   0   6   4   87.06    6.04
   0   6  -4   76.25    5.97
   0   6  -4   88.62    5.94
   1  -6   4   31.39    2.98
  -1  -6  -4   29.43    2.65
   1  -6   4   28.72    2.76
   1  -6   4   27.12    2.43
  -1  -6  -4   28.13    2.65
  -1  -6  -4   31.05    3.20
  -1  -6  -4   26.31    2.56
  -1   6  -4   29.71    2.19
  -1   6  -4   27.46    2.83
   1   6   4   29.68    2.54
  -1   6  -4   32.18    2.54
   1   6   4   32.37    2.73
  -1   6  -4   27.86    2.44
   1   6   4   26.56    2.41
  -2  -6  -4   27.78    2.59
  -2  -6  -4   26.37    2.58
  -2  -6  -4   29.06    2.67
   2  -6   4   27.87    2.47
   2  -6   4   32.73    2.85
  -2  -6  -4   27.34    3.08
  -2   6  -4   29.68    2.47
  -2   6  -4   26.45    2.90
   2   6   4   31.79    2.61
   2   6   4   28.19    2.39
   2   6   4   30.97    2.32
  -2   6  -4   28.61    2.22
   2   6   4   34.49    2.79
  -3  -6  -4   13.38    2.36
   3  -6   4   15.60    2.02
  -3  -6  -4   11.91    1.90
  -3  -6  -4   12.89    1.89
   3   6   4   15.72    1.89
   3   6   4   14.53    2.47
  -3   6  -4   15.08    2.41
  -3   6  -4   14.23    1.44
   3   6   4   13.79    1.73
  -4  -6  -4   66.41    4.55
   4  -6   4   62.97    3.95
  -4  -6  -4   72.17    4.90
   4   6   4   53.81    4.60
  -4   6  -4   55.43    4.48
   4   6   4   59.63    4.53
  -4   6  -4   55.44    4.88
   4   6   4   55.34    4.60
   5  -6   4    2.60    1.09
  -5  -6  -4    3.13    1.22
   5  -6   4    6.87    2.53
  -5   6  -4    3.26    1.64
   5   6   4    3.48    1.82
  -6  -6  -4    6.35    1.33
   6  -6   4    6.73    2.68
  -6   6  -4    3.77    1.76
   6   6   4    5.34    1.84
  -7  -6  -4    4.41    1.05
   7  -6   4    4.31    2.50
  -7   6  -4    1.61    1.60
   7   6   4    4.84    1.73
  -7  -7   4    2.38    1.17
   7   7  -4    4.63    1.71
   7   7  -4    2.55    0.99
  -6  -7   4   15.22    2.75
   6  -7  -4   11.32    3.08
   6   7  -4   17.88    2.84
   6   7  -4   18.11    2.12
   5  -7  -4    5.90    3.06
   5  -7  -4    5.27    1.42
  -5  -7   4    2.85    1.57
   5   7  -4    7.09    1.94
  -5   7   4    9.07    1.62
   5   7  -4    4.97    1.32
  -4  -7   4    3.15    1.16
  -4  -7   4    4.60    1.22
   4  -7  -4    5.11    2.97
   4  -7  -4    4.40    1.32
  -4  -7   4    3.55    1.55
   4   7  -4    7.55    1.69
  -4   7   4    4.75    1.14
   4   7  -4    5.24    0.81
  -4   7   4    8.16    1.55
  -3  -7   4   19.27    2.48
  -3  -7   4   18.57    1.95
  -3  -7   4   21.03    2.84
   3  -7  -4   18.21    2.00
  -3   7   4   24.70    2.22
   3   7  -4   21.82    2.60
   3   7  -4   16.05    1.68
  -2  -7   4   31.75    3.29
   2  -7  -4   39.51    3.21
  -2  -7   4   36.32    2.77
  -2  -7   4   32.18    3.49
   2  -7  -4   34.67    2.97
  -2   7   4   38.17    3.07
  -2   7   4   37.90    3.02
   2   7  -4   30.22    2.54
   1  -7  -4   34.80    3.17
  -1  -7   4   32.57    2.90
  -1  -7   4   33.50    3.26
   1  -7  -4   35.63    3.12
   1  -7  -4   37.38    3.18
  -1  -7   4   36.78    3.54
  -1   7   4   38.47    3.04
  -1   7   4   37.73    3.12
   1   7  -4   33.39    3.12
   1   7  -4   36.53    2.56
   0  -7  -4   21.69    2.47
   0  -7   4   22.17    2.23
   0  -7  -4   26.16    2.56
   0  -7   4   25.01    2.71
   0  -7  -4   27.65    2.47
   0  -7   4   25.11    3.04
   0   7   4   30.31    2.45
   0   7  -4   29.62    2.36
   0   7  -4   23.45    1.97
   0   7  -4   19.94    2.64
   0   7   4   26.09    2.34
  -1  -7  -4   32.14    3.59
  -1  -7  -4   34.33    2.90
   1  -7   4   31.97    3.09
  -1  -7  -4   29.81    2.96
  -1  -7  -4   30.47    2.92
   1  -7   4   37.56    3.48
  -1   7  -4   27.54    3.13
  -1   7  -4   36.73    2.81
   1   7   4   32.87    2.72
  -1   7  -4   32.35    2.43
   1   7   4   37.37    2.97
   2  -7   4   50.28    4.33
  -2  -7  -4   41.22    3.68
  -2  -7  -4   44.07    3.85
  -2  -7  -4   45.59    4.18
   2  -7   4   52.61    4.03
  -2   7  -4   50.62    3.71
   2   7   4   45.08    3.52
   3  -7   4    7.49    1.27
  -3  -7  -4    9.90    1.71
  -3  -7  -4    6.02    1.58
  -3  -7  -4    9.40    1.77
  -3   7  -4    5.84    1.52
   3   7   4    6.06    1.80
   4  -7   4   11.99    1.70
   4  -7   4   14.87    2.91
  -4  -7  -4   16.69    2.15
   4  -7   4   20.50    2.27
  -4  -7  -4   16.49    2.62
   4   7   4   16.60    2.81
  -4   7  -4   13.47    2.76
   5  -7   4    6.92    2.70
  -5  -7  -4    5.77    1.36
  -5  -7  -4    6.87    1.34
   5   7   4    7.76    1.92
  -5   7  -4    3.59    1.72
   6  -7   4   -0.02    1.91
  -6  -7  -4    3.56    1.14
  -6   7  -4   -0.33    1.32
   6   7   4    4.40    1.71
   7   8  -4    1.17    0.63
  -6  -8   4   -0.88    1.32
   6  -8  -4    1.00    2.71
  -6   8   4    2.48    1.19
   6   8  -4   -1.19    1.53
   5  -8  -4    3.97    1.41
  -5  -8   4    2.29    1.54
   5  -8  -4    5.00    3.07
   5   8  -4    5.13    1.81
  -5   8   4    2.87    1.12
  -4  -8   4   -0.79    1.12
   4  -8  -4   -0.62    1.30
  -4  -8   4    0.12    1.41
   4  -8  -4   -0.67    2.97
  -4   8   4   -0.54    1.09
  -4   8   4    0.20    1.45
   4   8  -4    0.89    1.55
  -3  -8   4    2.08    1.19
   3  -8  -4    3.00    1.19
  -3  -8   4   -0.15    1.43
  -3  -8   4    0.67    1.22
   3   8  -4    3.20    1.67
  -3   8   4    2.99    1.41
  -3   8   4    3.62    1.08
   2  -8  -4   -0.77    1.05
  -2  -8   4   -0.41    1.11
  -2  -8   4   -0.57    1.43
  -2   8   4   -0.83    1.22
  -2   8   4   -0.17    1.03
  -1  -8   4   34.82    3.59
   1  -8  -4   31.90    3.08
   1  -8  -4   31.44    3.05
  -1  -8   4   30.24    3.19
  -1   8   4   35.85    2.95
   1   8  -4   30.58    3.12
   0  -8  -4   -1.18    1.01
   0  -8   4   -0.60    1.41
   0  -8   4   -0.89    1.11
   0  -8  -4   -2.25    1.24
   0   8   4   -1.01    1.06
   0   8  -4    0.74    1.23
  -1  -8  -4    6.68    1.21
  -1  -8  -4    5.94    1.36
   1  -8   4    6.53    1.30
  -1  -8  -4    5.94    1.81
   1  -8   4    6.78    1.74
   1   8   4    8.03    1.61
  -1   8  -4    6.61    1.42
  -2  -8  -4    0.29    1.23
   2  -8   4    2.53    1.16
  -2  -8  -4    0.84    1.54
  -2  -8  -4    1.55    1.03
   2  -8   4    2.95    1.63
   2   8   4    2.46    1.01
  -2   8  -4    1.66    1.40
  -3  -8  -4   14.08    2.22
  -3  -8  -4   16.58    2.73
  -3  -8  -4   16.48    2.17
   3   8   4   21.34    2.79
  -3   8  -4   17.07    2.65
   4  -8   4    0.15    1.09
  -4  -8  -4    0.20    1.37
  -4  -8  -4   -0.57    1.22
  -4  -8  -4   -0.04    0.88
   4  -8   4    0.72    2.68
   4   8   4   -0.31    1.81
  -4   8  -4   -0.58    1.40
   5   8   4   11.40    1.79
  -6  -8  -4    2.05    0.89
  -7   8  -4   16.14    1.58
   6   9  -4    6.75    1.49
  -5  -9   4    2.80    0.83
   5  -9  -4    0.49    2.92
   5  -9  -4    3.22    1.31
  -5  -9   4    0.62    1.34
  -5   9   4    5.14    1.42
   5   9  -4    1.99    1.55
  -5   9   4    0.97    0.97
  -4  -9   4    3.07    1.57
   4  -9  -4    6.22    3.06
  -4  -9   4    5.76    1.29
  -4   9   4    9.40    1.76
   4   9  -4    7.42    1.66
  -3  -9   4    3.85    1.62
  -3  -9   4    3.39    1.36
   3  -9  -4    5.77    1.42
  -3   9   4    5.63    1.21
   3   9  -4    4.58    1.73
  -3   9   4    7.34    1.58
  -2  -9   4   19.86    3.11
  -2  -9   4   17.20    2.68
   1  -9  -4   12.48    2.21
  -1  -9   4   14.86    2.93
  -1  -9   4   12.54    2.44
   1  -9  -4   10.63    2.27
   1   9  -4   13.82    2.36
  -1   9   4   15.78    2.12
   0  -9   4   12.92    2.39
   0  -9  -4   17.20    2.24
   0  -9   4   19.07    3.21
   0  -9  -4   14.79    2.30
   0   9   4   19.50    2.13
   0   9  -4   11.51    2.36
  -1  -9  -4    3.32    1.36
  -1  -9  -4    3.39    1.12
   1  -9   4    3.52    1.87
   1  -9   4    3.89    1.36
   1   9   4    4.56    1.13
  -1   9  -4    2.63    1.33
  -2  -9  -4   13.46    2.09
   2  -9   4   12.22    2.11
  -2  -9  -4   10.28    2.13
  -2  -9  -4   10.19    2.03
   2   9   4   15.24    1.83
  -2   9  -4    8.66    1.66
  -3  -9  -4    3.32    1.61
  -3  -9  -4    3.13    1.32
  -3  -9  -4    5.23    1.12
  -3   9  -4    2.93    1.49
   3   9   4    6.05    1.82
   4  -9   4    3.04    2.16
  -4  -9  -4    3.30    1.44
  -4  -9  -4    2.01    1.27
  -4  -9  -4    3.61    0.92
   4   9   4    1.26    1.62
   5  -9   4    4.99    2.74
  -5   9  -4    0.79    1.39
   5   9   4    3.08    1.57
  -6  -9  -4    1.69    0.80
   5 -10  -4    7.59    1.62
  -5  10   4    5.34    1.02
   4 -10  -4    2.19    1.20
   4 -10  -4    2.92    2.79
   4  10  -4    2.67    1.36
  -3 -10   4    0.69    1.50
  -3 -10   4    1.19    1.17
   3  10  -4    0.60    1.41
  -3  10   4    1.45    1.02
  -3  10   4    1.80    1.40
  -2 -10   4    2.05    1.32
   2 -10  -4    1.81    1.19
  -2  10   4    2.44    1.19
  -1 -10   4    2.42    1.24
  -1 -10   4    2.02    1.76
  -1  10   4    2.19    1.32
   0 -10   4    1.64    1.86
   0 -10  -4    2.17    1.13
   0 -10  -4    0.28    1.43
   0 -10   4    2.58    1.22
   0  10  -4    4.00    1.38
   0  10   4    4.11    1.26
   1 -10   4    1.50    1.77
   1 -10   4    1.83    1.26
   1  10   4    2.16    1.16
  -1  10  -4    1.15    1.28
   2 -10   4    5.28    1.92
   2 -10   4    6.72    1.41
  -2 -10  -4    4.25    1.37
  -2 -10  -4    2.41    1.71
  -2 -10  -4    3.58    1.22
   3 -10   4   -1.11    1.08
  -3 -10  -4   -1.51    1.38
  -3 -10  -4   -0.46    1.07
  -3  10  -4    0.99    1.31
   3  10   4    2.16    1.48
  -4 -10  -4    2.74    1.26
  -4 -10  -4    1.66    0.89
   4  10   4    4.60    1.76
   4  11  -4   -0.65    0.80
   3  11  -4    6.54    1.28
  -2 -11   4    2.15    1.15
   2 -11  -4   -0.28    1.28
   2  11  -4    0.67    1.23
   1 -11  -4    4.58    1.32
  -1 -11   4    5.36    1.89
   1 -11  -4    5.80    1.38
   0 -11  -4   -0.19    1.21
   0 -11   4    0.83    1.69
   0 -11   4    1.73    1.13
   0  11  -4    1.81    1.15
   0  11   4    3.06    1.14
   1 -11   4    5.75    1.26
   1 -11   4    8.26    1.60
   1 -11   4    3.05    1.76
  -1 -11  -4    5.54    1.37
  -1 -11  -4    4.45    1.17
  -1  11  -4    7.02    1.40
  -2 -11  -4    1.37    1.01
   2 -11   4    4.84    1.33
   2  11   4    2.99    0.75
   3  11   4   10.65    1.23
   1 -12  -4    1.84    0.85
   0 -12   4    3.39    0.85
  -9   0   5   -1.33    1.27
  -8   0   5    0.35    1.19
  -8   0   5   -1.60    1.64
  -7   0   5   12.00    1.93
   7   0  -5   14.58    2.72
  -7   0   5   15.15    2.07
   6   0  -5   -0.44    2.12
  -6   0   5   -1.68    1.12
  -5   0   5    0.91    1.00
  -5   0   5   -0.03    1.26
  -5   0   5   -0.03    0.84
   5   0  -5    2.94    1.94
  -5   0   5    0.65    1.03
  -5   0   5   -0.52    1.22
  -4   0   5   -1.72    1.12
  -4   0   5   -0.59    0.74
   4   0  -5    0.01    1.54
  -4   0   5   -0.67    0.85
  -4   0   5   -0.72    0.87
  -3   0   5    7.85    1.31
  -3   0   5   13.42    1.28
   3   0  -5   11.96    1.86
  -3   0   5   10.61    1.31
   3   0  -5   10.73    1.25
   2   0  -5    1.39    0.76
  -2   0   5   -0.01    0.61
  -2   0   5   -0.23    0.87
   2   0  -5    0.72    0.91
  -2   0   5    0.24    0.79
   2   0  -5   -0.69    0.62
  -2   0   5    0.44    0.60
  -1   0   5   56.29    3.76
   1   0  -5   51.76    3.38
  -1   0   5   52.74    3.35
  -1   0   5   51.41    3.74
   1   0  -5   55.30    3.83
  -1   0   5   48.53    4.08
  -1   0   5   51.94    4.05
   1   0  -5   49.21    3.76
   0   0   5    0.07    0.48
   0   0   5   -0.30    0.71
   0   0  -5   -0.01    0.49
   0   0   5   -0.69    0.65
   0   0   5    0.03    0.71
   0   0   5    0.13    0.72
   0   0  -5    0.10    0.71
   0   0  -5    0.99    0.95
  -1   0  -5   19.49    2.03
   1   0   5   18.67    1.90
   1   0   5   16.25    1.83
   1   0   5   17.44    1.90
  -1   0  -5   18.65    2.05
  -1   0  -5   20.05    1.67
  -2   0  -5    1.41    1.09
   2   0   5   -1.35    0.66
   2   0   5   -1.23    0.72
   2   0   5   -0.13    0.70
   2   0   5    0.03    0.62
  -2   0  -5   -0.49    0.48
  -3   0  -5   29.57    1.87
  -3   0  -5   26.18    2.94
  -3   0  -5   24.56    2.53
   3   0   5   26.23    2.01
  -3   0  -5   25.00    2.41
   3   0   5   29.03    2.13
  -4   0  -5   -1.69    1.31
  -4   0  -5   -0.75    0.99
   4   0   5    0.79    0.99
  -4   0  -5   -1.82    1.50
  -4   0  -5   -0.06    0.56
   4   0   5   -0.13    1.07
  -4   0  -5   -1.45    1.18
   5   0   5   81.39    5.35
  -5   0  -5   89.11    5.20
   5   0   5   87.96    5.47
  -5   0  -5   81.93    5.86
  -5   0  -5   77.85    6.20
  -5   0  -5   75.19    6.61
  -5   0  -5   87.74    6.03
   6   0   5   -0.25    1.26
  -6   0  -5   -0.75    1.76
  -6   0  -5   -0.77    1.86
   7   0   5   23.21    2.49
  -7   0  -5   20.21    3.73
  -7   0  -5   24.97    3.27
  -8   0  -5    1.41    1.85
  -9  -1   5    3.91    1.45
  -9   1   5    3.91    1.43
  -8  -1   5    8.30    1.81
  -8  -1   5    7.00    1.43
   8   1  -5    5.93    1.95
  -8   1   5    8.06    1.39
  -8   1   5    8.78    1.81
  -7  -1   5   24.84    2.39
  -7  -1   5   21.93    2.68
  -7   1   5   24.91    2.78
  -7   1   5   24.81    2.42
   7   1  -5   22.16    3.57
  -7   1   5   17.00    3.08
  -6  -1   5   58.24    3.93
   6  -1  -5   54.42    4.74
  -6  -1   5   45.66    4.66
  -6  -1   5   49.20    3.74
   6   1  -5   49.75    4.67
  -6   1   5   59.57    3.98
  -6   1   5   49.10    3.76
  -5  -1   5   30.35    2.65
  -5  -1   5   37.25    2.68
  -5  -1   5   31.16    3.06
   5  -1  -5   33.80    3.38
  -5  -1   5   30.94    2.47
  -5  -1   5   34.73    2.57
  -5  -1   5   30.18    3.56
  -5   1   5   32.18    2.64
   5   1  -5   30.51    3.39
  -5   1   5   28.11    2.37
  -5   1   5   30.30    3.17
  -5   1   5   31.87    2.61
   4  -1  -5   42.22    3.61
  -4  -1   5   37.89    3.82
  -4  -1   5   42.14    2.99
   4  -1  -5   38.48    3.87
  -4  -1   5   41.63    2.87
  -4  -1   5   43.38    3.47
  -4  -1   5   44.81    3.20
  -4   1   5   41.83    3.50
   4   1  -5   37.31    3.60
   4   1  -5   42.66    2.93
  -4   1   5   47.34    3.19
  -4   1   5   42.59    3.00
   3  -1  -5   77.81    5.82
  -3  -1   5   79.52    6.03
   3  -1  -5   74.74    5.67
  -3  -1   5   86.01    5.10
  -3  -1   5   78.70    5.63
  -3  -1   5   84.72    4.93
   3  -1  -5   72.75    5.46
  -3   1   5   72.09    5.52
  -3   1   5   71.06    5.99
   3   1  -5   74.15    5.68
  -3   1   5   81.45    5.07
  -3   1   5   90.45    5.52
   3   1  -5   89.54    5.11
  -3   1   5   76.99    5.66
   2  -1  -5  284.06   18.83
   2  -1  -5  284.31   20.27
   2  -1  -5  277.60   17.20
   2  -1  -5  294.67   18.92
   2  -1  -5  266.81   18.74
  -2  -1   5  277.43   17.20
  -2  -1   5  271.93   20.22
   2   1  -5  288.68   18.96
  -2   1   5  273.54   17.18
   2   1  -5  278.51   18.75
  -2   1   5  274.27   18.73
  -2   1   5  245.92   19.03
   2   1  -5  294.73   20.22
   2   1  -5  288.37   17.22
  -2   1   5  311.65   18.87
  -2   1   5  257.48   20.20
   1  -1  -5  107.34    7.60
   1  -1  -5  100.72    7.17
  -1  -1   5  103.77    7.02
  -1  -1   5  104.78    7.57
   1  -1  -5  101.15    6.37
  -1  -1   5   99.00    6.39
   1  -1  -5  100.10    6.99
   1   1  -5  107.28    7.51
   1   1  -5  106.73    6.97
  -1   1   5  101.58    7.13
  -1   1   5  100.71    6.96
  -1   1   5  104.53    7.53
   1   1  -5   89.70    6.39
  -1   1   5  102.32    6.34
   0  -1  -5  246.65   17.07
   0  -1  -5  254.56   16.10
   0  -1  -5  248.61   15.81
   0  -1   5  206.28   14.46
   0  -1   5  232.12   16.00
   0  -1   5  245.51   16.67
   0  -1   5  257.42   17.05
   0   1  -5  240.65   17.01
   0   1   5  217.37   15.76
   0   1  -5  198.87   14.46
   0   1  -5  228.72   15.76
   0   1   5  239.65   17.03
   0   1   5  239.03   16.04
  -1  -1  -5   27.94    2.32
   1  -1   5   28.50    2.39
   1  -1   5   30.27    2.05
  -1  -1  -5   27.92    2.45
   1  -1   5   29.59    2.31
  -1  -1  -5   30.53    2.65
  -1   1  -5   33.03    2.50
  -1   1  -5   30.39    2.46
   1   1   5   26.50    2.53
  -1   1  -5   33.57    2.44
   1   1   5   24.59    2.25
   1   1   5   30.71    2.34
  -1   1  -5   30.80    2.19
  -1   1  -5   26.72    1.97
   2  -1   5  417.04   28.20
   2  -1   5  404.67   23.32
  -2  -1  -5  377.41   26.58
   2  -1   5  396.81   23.25
  -2  -1  -5  350.91   23.94
  -2   1  -5  391.97   26.87
   2   1   5  401.24   23.24
   2   1   5  409.20   26.55
   2   1   5  349.98   28.20
   2   1   5  411.27   23.35
  -2   1  -5  345.71   26.59
   2   1   5  380.44   28.21
  -2   1  -5  444.01   28.23
   3  -1   5   27.00    2.00
  -3  -1  -5   22.71    2.10
   3  -1   5   23.37    1.89
  -3  -1  -5   23.81    2.23
  -3  -1  -5   20.60    2.25
  -3   1  -5   24.24    1.68
   3   1   5   25.51    2.03
   3   1   5   23.80    1.87
  -3   1  -5   27.55    2.85
   3   1   5   24.86    2.00
   4  -1   5   97.04    6.92
   4  -1   5   89.82    5.99
  -4  -1  -5  101.49    6.81
  -4  -1  -5   91.94    6.90
  -4  -1  -5   94.73    6.41
  -4  -1  -5   98.57    5.93
   4   1   5   94.19    6.08
  -4   1  -5   92.96    6.93
   4   1   5  110.66    6.74
  -4   1  -5   93.59    7.26
  -4   1  -5   98.29    5.91
   4   1   5   92.06    5.99
  -5  -1  -5   28.73    3.08
  -5  -1  -5   21.67    2.78
   5  -1   5   25.49    2.41
  -5  -1  -5   24.43    2.47
  -5  -1  -5   21.86    3.52
  -5  -1  -5   26.83    1.94
   5   1   5   26.64    2.40
  -5   1  -5   27.25    2.93
  -5   1  -5   27.99    1.91
   5   1   5   27.84    2.59
  -5   1  -5   27.71    2.51
  -5   1  -5   24.29    3.46
   6  -1   5   49.52    3.97
  -6  -1  -5   54.42    5.22
  -6  -1  -5   63.08    4.63
   6   1   5   59.76    4.16
   6   1   5   54.56    3.99
  -6   1  -5   57.21    5.16
  -6   1  -5   58.65    4.59
  -7  -1  -5   22.25    3.68
  -7  -1  -5   28.14    3.33
   7  -1   5   19.07    2.43
   7   1   5   20.70    2.39
  -7   1  -5   25.44    3.20
  -7   1  -5   21.38    3.67
  -8  -1  -5    5.75    1.86
  -8   1  -5    2.67    1.73
  -9  -2   5    1.51    0.84
  -8  -2   5    3.51    1.29
  -8  -2   5   -0.87    1.26
  -8  -2   5    1.72    1.65
   8   2  -5    6.27    2.37
  -8   2   5    3.51    1.69
  -8   2   5    1.68    0.85
  -7  -2   5   -2.49    1.55
  -7  -2   5   -0.75    1.29
  -7   2   5   -0.15    1.22
  -7   2   5   -0.01    1.60
  -6  -2   5   -1.20    1.40
  -6  -2   5    0.27    1.24
   6  -2  -5    0.45    2.42
   6   2  -5    3.05    2.16
  -6   2   5    0.99    1.16
  -5  -2   5    0.50    1.15
  -5  -2   5    0.38    0.88
   5  -2  -5   -0.11    2.16
  -5  -2   5   -0.40    1.31
  -5   2   5   -1.20    1.01
   5   2  -5    0.28    0.70
   5   2  -5    1.02    1.92
  -5   2   5   -0.51    0.48
  -5   2   5   -0.97    1.04
  -5   2   5    0.84    1.21
  -4  -2   5    3.39    1.08
   4  -2  -5    3.38    1.76
   4  -2  -5    3.47    1.94
  -4  -2   5    4.23    1.01
  -4  -2   5    3.74    1.17
  -4  -2   5    4.20    0.84
  -4  -2   5    2.07    1.28
  -4   2   5    3.87    1.01
   4   2  -5    3.38    1.67
   4   2  -5    3.61    0.83
  -4   2   5    3.23    0.93
  -4   2   5    2.92    1.19
   3  -2  -5   11.44    1.94
   3  -2  -5   14.47    2.41
  -3  -2   5   13.70    1.51
   3  -2  -5   11.69    1.82
   3  -2  -5   11.89    1.31
  -3  -2   5    9.15    2.02
   3   2  -5   11.79    1.43
  -3   2   5   13.52    1.35
   3   2  -5   13.04    1.42
  -3   2   5   10.82    1.34
  -3   2   5   14.46    1.35
  -3   2   5    9.34    1.54
   3   2  -5   12.95    1.83
  -2  -2   5    1.36    0.76
   2  -2  -5    3.08    1.24
  -2  -2   5    2.29    0.80
  -2  -2   5    1.51    0.91
   2  -2  -5    3.66    0.74
   2  -2  -5    2.51    0.88
  -2   2   5    1.11    0.78
  -2   2   5    2.91    0.81
  -2   2   5    2.06    0.64
   2   2  -5    3.17    1.25
   2   2  -5    3.16    0.77
   2   2  -5    1.99    0.62
  -2   2   5    3.05    0.62
   2   2  -5    2.65    0.77
   1  -2  -5   21.41    1.77
  -1  -2   5   20.24    2.01
  -1  -2   5   17.84    1.97
  -1  -2   5   21.25    1.65
   1  -2  -5   19.72    2.19
   1  -2  -5   19.98    2.01
  -1   2   5   19.41    1.87
   1   2  -5   22.47    1.73
  -1   2   5   21.22    1.50
   1   2  -5   21.88    1.85
  -1   2   5   22.39    1.89
  -1   2   5   19.34    1.76
   0  -2   5  115.89    8.89
   0  -2   5  128.10    8.39
   0  -2   5  130.32    8.70
   0  -2  -5  113.20    8.43
   0  -2   5  121.07    7.58
   0  -2  -5  120.54    8.24
   0  -2  -5  111.59    8.90
   0  -2   5  127.39    8.34
   0   2  -5  118.32    7.56
   0   2  -5  126.90    8.42
   0   2  -5  135.60    8.88
   0   2   5  122.19    8.88
   0   2   5  114.95    8.22
   0   2   5  113.46    8.36
  -1  -2  -5    4.95    0.80
   1  -2   5    3.72    0.77
   1  -2   5    5.77    1.01
   1  -2   5    5.44    1.03
  -1  -2  -5    3.54    0.91
  -1  -2  -5    3.02    0.87
  -1   2  -5    6.51    1.05
   1   2   5    4.24    0.61
   1   2   5    5.37    1.03
  -1   2  -5    7.85    1.45
   1   2   5    4.24    0.79
   1   2   5    5.31    1.16
  -1   2  -5    5.39    0.86
  -2  -2  -5  118.18    8.23
   2  -2   5  106.01    8.26
   2  -2   5  127.91    8.69
  -2  -2  -5  109.24    8.74
   2  -2   5  115.24    7.17
  -2   2  -5  117.12    8.39
  -2   2  -5  116.24    7.38
   2   2   5  123.62    7.16
   2   2   5  113.04    8.67
  -2   2  -5  132.71    8.67
   2   2   5  130.66    7.28
   2   2   5  104.19    7.37
   2   2   5  126.01    8.18
  -3  -2  -5   -0.14    0.92
   3  -2   5    1.79    1.25
   3  -2   5    1.12    0.77
  -3  -2  -5    0.79    0.96
  -3  -2  -5    1.29    1.08
   3   2   5    1.13    0.96
   3   2   5    0.61    0.68
  -3   2  -5    1.53    1.19
  -3   2  -5    0.71    0.47
   3   2   5    1.09    0.76
  -4  -2  -5   95.87    6.48
  -4  -2  -5  100.57    6.89
   4  -2   5   92.91    6.08
  -4  -2  -5   92.61    6.97
  -4  -2  -5   92.14    6.90
   4  -2   5  102.39    7.07
  -4   2  -5   90.44    7.28
   4   2   5  100.28    6.07
   4   2   5  102.23    6.22
  -4   2  -5  107.91    6.00
  -5  -2  -5   15.65    2.40
  -5  -2  -5   18.42    2.15
  -5  -2  -5   18.43    2.76
   5  -2   5   20.58    2.99
   5  -2   5   17.84    2.10
  -5   2  -5   21.64    1.57
   5   2   5   19.00    2.38
   5   2   5   19.65    2.11
  -5   2  -5   19.64    3.19
   6  -2   5   28.87    2.70
   6  -2   5   34.89    3.65
  -6  -2  -5   33.08    3.57
  -6   2  -5   28.30    3.92
   6   2   5   33.03    2.77
   6   2   5   33.79    3.07
   7  -2   5    3.17    1.27
  -7  -2  -5    2.73    2.05
  -7  -2  -5    4.62    2.17
   7   2   5    3.34    1.66
  -7   2  -5    1.77    1.96
  -7   2  -5    0.53    1.85
  -8  -2  -5   12.40    2.18
  -8   2  -5    7.79    1.32
  -8   2  -5    5.15    2.01
  -9   2  -5    8.90    1.20
  -9  -3   5    6.88    1.21
  -8  -3   5    3.06    1.63
  -8  -3   5    2.91    1.21
  -8  -3   5    0.57    1.25
   8   3  -5    4.52    2.25
  -8   3   5    2.47    1.23
  -8   3   5    7.38    1.70
  -7  -3   5   25.31    2.78
  -7  -3   5   26.29    2.59
   7  -3  -5   19.82    3.45
   7   3  -5   25.92    3.62
  -7   3   5   24.34    2.58
   6  -3  -5    1.94    2.54
  -6  -3   5    0.17    1.38
  -6  -3   5    1.84    1.39
  -6  -3   5    0.88    1.29
   6   3  -5    0.52    2.10
  -6   3   5    0.48    1.19
  -5  -3   5   59.69    4.39
  -5  -3   5   58.03    3.73
  -5  -3   5   53.00    4.72
  -5  -3   5   62.04    4.00
   5  -3  -5   54.58    5.26
   5   3  -5   54.22    3.73
  -5   3   5   57.56    3.91
  -5   3   5   51.81    3.47
  -5   3   5   53.25    4.14
   5   3  -5   49.77    4.61
   4  -3  -5    2.38    0.71
  -4  -3   5    2.52    0.78
  -4  -3   5    2.48    1.12
  -4  -3   5    1.55    1.23
   4  -3  -5    2.93    1.97
  -4   3   5    1.78    0.56
   4   3  -5    2.14    0.85
  -4   3   5    1.29    1.01
  -4   3   5    1.01    0.99
   4   3  -5    2.60    1.63
  -4   3   5    1.47    0.97
   4   3  -5    2.14    0.78
  -3  -3   5  108.04    8.52
  -3  -3   5  104.06    8.54
  -3  -3   5  125.34    7.37
   3  -3  -5  114.82    8.31
   3  -3  -5  117.37    8.60
   3  -3  -5  115.70    7.91
  -3   3   5  107.99    7.94
  -3   3   5  121.66    8.49
   3   3  -5  119.18    8.52
   3   3  -5  116.75    7.36
  -3   3   5  120.35    7.31
  -3   3   5  120.95    7.98
   2  -3  -5   -0.19    0.68
   2  -3  -5   -0.10    0.78
  -2  -3   5   -0.58    0.74
  -2  -3   5    1.03    0.90
   2  -3  -5    0.89    1.37
  -2  -3   5    1.06    0.79
   2   3  -5   -0.27    0.53
  -2   3   5    0.61    0.57
   2   3  -5    0.19    0.76
  -2   3   5   -0.67    0.81
   2   3  -5   -0.04    0.59
  -2   3   5    0.15    0.66
  -1  -3   5  114.78    7.05
   1  -3  -5  116.62    8.26
  -1  -3   5   95.26    8.10
   1  -3  -5  104.03    7.86
  -1  -3   5   95.73    8.24
   1  -3  -5  118.84    7.64
  -1  -3   5  124.60    7.76
   1   3  -5  118.15    7.07
  -1   3   5  119.93    8.22
  -1   3   5  117.30    6.96
   1   3  -5  111.57    8.08
   1   3  -5  111.86    8.21
  -1   3   5  107.86    7.63
   1   3  -5  113.23    7.80
  -1   3   5  110.50    7.73
   0  -3   5    1.14    0.72
   0  -3   5    1.97    0.76
   0  -3  -5    0.50    0.67
   0  -3  -5    0.66    0.76
   0  -3   5    1.37    0.76
   0  -3  -5   -0.01    0.91
   0  -3   5    2.06    0.56
   0   3   5    1.08    0.73
   0   3  -5    2.87    0.80
   0   3  -5    0.49    0.56
   0   3  -5    1.11    0.54
   0   3   5    1.08    0.59
   0   3  -5    1.00    0.58
   0   3   5    1.43    0.60
   0   3   5    0.84    0.71
   1  -3   5  260.72   17.73
  -1  -3  -5  260.88   17.79
  -1  -3  -5  253.76   18.87
   1  -3   5  255.61   17.90
   1  -3   5  259.46   18.86
  -1  -3  -5  260.15   17.47
  -1   3  -5  246.82   16.06
   1   3   5  258.81   15.99
   1   3   5  261.86   17.48
   1   3   5  236.39   18.51
  -1   3  -5  292.70   18.86
   1   3   5  268.56   17.76
  -1   3  -5  268.16   17.94
   1   3   5  265.17   18.85
   2  -3   5    4.47    0.78
   2  -3   5    4.01    0.78
   2  -3   5    6.47    1.34
  -2  -3  -5    2.42    0.87
  -2  -3  -5    3.00    0.95
   2   3   5    3.91    0.71
   2   3   5    3.91    0.78
   2   3   5    3.61    0.77
  -2   3  -5    5.50    1.14
  -2   3  -5    5.75    0.98
   2   3   5    3.18    0.69
  -3  -3  -5  359.11   24.43
   3  -3   5  391.61   24.22
   3  -3   5  339.26   21.37
   3  -3   5  331.62   24.65
   3   3   5  334.48   22.03
  -3   3  -5  336.50   24.72
   3   3   5  351.82   21.35
   3   3   5  392.03   24.42
   3   3   5  367.04   21.55
  -3   3  -5  383.48   21.42
  -4  -3  -5   -0.52    1.11
  -4  -3  -5    1.75    1.42
   4  -3   5    0.19    0.90
  -4  -3  -5   -0.66    1.06
   4  -3   5    0.11    1.71
   4  -3   5   -0.84    1.00
   4   3   5    0.48    0.96
  -4   3  -5   -0.07    0.58
   4   3   5    1.28    1.34
  -4   3  -5    1.47    1.50
   5  -3   5  174.15   10.97
  -5  -3  -5  155.89   10.01
  -5  -3  -5  154.65   10.75
   5  -3   5  141.88    9.45
   5   3   5  151.37    9.44
   5   3   5  153.24    9.64
  -5   3  -5  147.03   11.16
  -5   3  -5  160.10    9.39
   6  -3   5    0.37    1.26
  -6  -3  -5    2.96    1.93
  -6  -3  -5    1.84    1.17
   6  -3   5    0.72    2.14
  -6   3  -5    3.20    1.88
   6   3   5    1.84    1.66
   6   3   5    1.44    1.20
  -7  -3  -5   44.28    4.15
   7  -3   5   43.30    4.35
  -7   3  -5   34.98    4.33
   7   3   5   38.68    3.61
  -8  -3  -5   -1.57    1.71
  -8   3  -5   -1.54    1.58
  -8  -4   5    0.97    1.10
   8  -4  -5    1.93    2.58
  -8  -4   5    0.26    1.12
   8   4  -5    4.10    2.18
  -8   4   5    3.47    1.27
  -7  -4   5   -0.72    1.39
  -7  -4   5    0.45    1.43
   7  -4  -5    2.56    2.79
   7   4  -5    2.14    2.26
  -7   4   5    0.06    1.29
  -6  -4   5    0.57    1.43
   6  -4  -5    2.84    2.81
  -6  -4   5   -1.31    1.39
   6   4  -5   -0.11    2.06
  -6   4   5    0.34    1.22
  -5  -4   5    0.25    1.29
   5  -4  -5    1.48    2.46
  -5  -4   5    0.49    1.33
   5   4  -5    1.03    0.83
   5   4  -5    0.97    1.96
  -5   4   5   -0.61    1.10
   5   4  -5    0.80    0.65
   5   4  -5   -0.70    1.02
  -5   4   5   -0.27    1.15
   4  -4  -5   17.84    3.40
  -4  -4   5   15.97    2.15
  -4  -4   5   21.07    2.08
  -4  -4   5   14.54    2.50
   4  -4  -5   20.57    2.29
   4   4  -5   18.78    2.66
  -4   4   5   18.98    2.08
  -4   4   5   17.12    1.88
  -4   4   5   17.35    1.94
   4   4  -5   16.99    1.77
   4   4  -5   17.34    1.85
   4   4  -5   16.98    1.77
  -4   4   5   20.28    1.40
   3  -4  -5   -0.20    0.91
  -3  -4   5    0.14    0.90
  -3  -4   5   -0.11    0.94
  -3  -4   5    0.67    1.05
   3  -4  -5    0.48    1.82
   3   4  -5   -0.02    0.67
   3   4  -5    2.08    1.63
   3   4  -5    0.33    0.85
  -3   4   5    0.48    0.61
   3   4  -5   -0.69    0.78
  -3   4   5   -1.03    0.83
   3   4  -5    0.49    0.58
  -3   4   5   -0.18    0.96
  -2  -4   5   12.98    1.25
  -2  -4   5    9.91    1.43
   2  -4  -5   10.42    1.65
  -2   4   5   11.97    1.43
  -2   4   5   10.89    1.48
   2   4  -5    9.72    1.39
   2   4  -5    7.63    1.35
   2   4  -5   11.69    1.64
  -1  -4   5    1.35    0.58
  -1  -4   5    0.82    0.93
  -1  -4   5    1.16    0.82
   1  -4  -5    0.85    0.69
  -1  -4   5    0.57    0.80
   1  -4  -5   -0.95    1.01
   1  -4  -5    1.00    0.81
   1  -4  -5    0.12    0.80
   1   4  -5    0.36    0.81
  -1   4   5    0.74    0.59
  -1   4   5    0.57    0.57
  -1   4   5    0.91    0.79
  -1   4   5    0.23    0.79
   1   4  -5    0.61    0.63
   1   4  -5    1.33    0.70
   1   4  -5    0.64    0.53
   0  -4  -5   75.67    5.96
   0  -4  -5   81.21    6.28
   0  -4  -5   81.35    5.77
   0  -4  -5   92.65    5.97
   0  -4   5   80.54    6.29
   0  -4   5   88.01    5.90
   0  -4   5   80.91    6.21
   0   4  -5   92.36    5.35
   0   4  -5   85.62    6.21
   0   4   5   85.25    6.24
   0   4   5   82.46    5.81
   0   4  -5   88.01    6.12
   0   4   5   79.65    5.87
   0   4   5   82.89    6.22
   0   4  -5   82.14    5.97
   1  -4   5    0.83    0.80
   1  -4   5    0.80    0.84
  -1  -4  -5    1.01    0.65
  -1  -4  -5    0.29    0.91
  -1  -4  -5    0.88    0.79
   1  -4   5    0.50    0.63
  -1   4  -5    1.30    0.57
   1   4   5   -0.05    0.60
  -1   4  -5    1.34    0.65
  -1   4  -5    0.57    0.54
   1   4   5    0.60    0.61
  -1   4  -5    2.44    1.01
   1   4   5    0.61    0.81
   1   4   5    0.03    0.66
   1   4   5    0.69    0.74
   2  -4   5   16.25    1.73
  -2  -4  -5   16.29    2.08
  -2  -4  -5   13.42    1.86
  -2  -4  -5   13.85    1.79
   2  -4   5   19.78    1.53
   2   4   5   15.45    1.85
  -2   4  -5   18.56    2.20
  -2   4  -5   18.86    1.63
  -2   4  -5   18.33    1.52
   2   4   5   15.38    1.73
   2   4   5   16.32    1.51
   2   4   5   14.68    1.63
   2   4   5   15.19    1.59
  -3  -4  -5   29.22    2.89
   3  -4   5   38.07    3.36
   3  -4   5   35.32    2.43
   3  -4   5   30.44    2.72
  -3  -4  -5   32.66    2.80
   3  -4   5   36.39    2.90
  -3   4  -5   37.64    2.72
  -3   4  -5   31.39    2.40
  -3   4  -5   32.03    3.20
   3   4   5   33.44    2.85
   3   4   5   32.98    2.46
   3   4   5   27.93    2.70
   4  -4   5   27.74    2.27
   4  -4   5   33.05    3.39
  -4  -4  -5   25.09    2.53
   4  -4   5   24.64    2.44
   4   4   5   26.87    2.23
   4   4   5   26.28    2.79
  -4   4  -5   29.02    3.13
   5  -4   5    9.10    1.40
   5  -4   5   11.55    2.26
  -5  -4  -5    9.32    1.82
   5   4   5    9.82    1.62
   5   4   5    7.89    1.68
  -5   4  -5    8.06    1.88
  -5   4  -5    7.71    0.91
   6  -4   5    6.09    1.34
  -6  -4  -5    9.69    2.06
   6  -4   5    8.45    2.39
  -6  -4  -5    7.44    1.36
   6   4   5    7.47    1.81
  -6   4  -5    5.59    1.94
   7  -4   5   19.29    2.14
  -7  -4  -5   25.94    2.43
   7  -4   5   30.05    3.71
  -7  -4  -5   16.84    3.04
  -7   4  -5   22.37    3.47
  -8  -5   5    9.48    1.83
  -7  -5   5    1.07    1.38
   7  -5  -5   -0.33    2.69
  -7  -5   5    0.66    1.38
   7   5  -5    3.32    2.20
  -7   5   5    0.95    0.96
   6  -5  -5   35.79    5.00
  -6  -5   5   33.37    3.78
  -6  -5   5   42.63    3.23
  -6   5   5   39.86    3.24
   6   5  -5   33.51    3.91
  -6   5   5   40.89    3.28
   6   5  -5   34.46    2.97
  -5  -5   5    1.82    1.43
   5  -5  -5    7.29    2.66
  -5  -5   5    1.65    1.28
  -5   5   5   -0.24    1.31
   5   5  -5    0.94    0.55
  -5   5   5    0.68    1.18
  -5   5   5    0.14    0.97
   5   5  -5    4.32    2.01
  -4  -5   5   57.71    3.63
  -4  -5   5   48.04    4.33
   4  -5  -5   48.79    5.14
  -4   5   5   54.08    3.14
  -4   5   5   51.44    3.83
   4   5  -5   40.80    3.40
  -4   5   5   54.14    3.91
   4   5  -5   46.97    3.83
   4   5  -5   40.84    4.10
   4   5  -5   50.07    3.51
   3  -5  -5    5.13    2.31
  -3  -5   5   10.37    1.61
   3  -5  -5    7.41    1.23
  -3  -5   5    5.38    1.42
   3   5  -5    8.70    1.56
  -3   5   5    8.00    1.29
  -3   5   5    8.24    1.31
   3   5  -5    8.75    1.51
  -3   5   5   10.35    1.87
   3   5  -5    6.49    1.05
   3   5  -5    7.10    1.28
   3   5  -5    8.42    1.82
   2  -5  -5  132.61    9.66
  -2  -5   5  148.10    8.25
   2  -5  -5  137.87    9.15
  -2  -5   5  121.05    9.59
  -2  -5   5  128.43    9.09
  -2  -5   5  113.38    9.65
  -2   5   5  135.45    8.96
   2   5  -5  139.15    9.50
  -2   5   5  128.59    9.58
   2   5  -5  126.69    9.17
  -2   5   5  136.00    9.55
   2   5  -5  124.91    9.58
   2   5  -5  126.73    8.26
  -1  -5   5   15.24    2.04
  -1  -5   5   18.86    1.73
  -1  -5   5   20.43    1.83
   1  -5  -5   19.93    2.03
  -1  -5   5   15.61    2.27
   1  -5  -5   14.39    2.01
  -1   5   5   15.36    1.61
   1   5  -5   15.90    1.96
  -1   5   5   16.90    1.80
   1   5  -5   19.06    1.61
   1   5  -5   19.35    1.87
  -1   5   5   19.47    2.11
  -1   5   5   15.78    1.85
   1   5  -5   18.10    1.74
   0  -5  -5   80.38    5.41
   0  -5   5   75.92    5.28
   0  -5   5   71.91    5.63
   0  -5  -5   70.44    5.61
   0  -5  -5   77.78    5.38
   0  -5   5   76.16    5.67
   0   5  -5   70.98    5.52
   0   5  -5   73.46    4.76
   0   5  -5   69.66    5.41
   0   5   5   71.54    5.19
   0   5   5   71.99    5.55
   0   5   5   70.54    5.21
   0   5   5   72.54    5.57
   0   5  -5   81.55    5.48
   1  -5   5   10.44    1.44
  -1  -5  -5    8.44    1.67
  -1  -5  -5    9.47    1.72
  -1  -5  -5    9.13    1.63
   1  -5   5   10.58    1.78
   1  -5   5   11.66    1.94
  -1   5  -5   11.45    1.33
   1   5   5    8.90    1.44
  -1   5  -5   10.68    1.33
   1   5   5   10.18    1.44
  -1   5  -5   13.61    1.95
   1   5   5    9.59    1.76
  -1   5  -5   10.99    1.27
   2  -5   5  118.03    7.80
  -2  -5  -5  110.82    7.77
   2  -5   5  102.06    7.36
  -2  -5  -5  106.36    7.34
   2  -5   5  110.50    6.37
  -2  -5  -5   99.57    7.74
  -2   5  -5  105.32    7.69
  -2   5  -5  102.98    7.54
   2   5   5   98.95    7.65
   2   5   5  102.31    7.16
   2   5   5  102.24    7.70
  -2   5  -5   89.74    6.58
   2   5   5  105.99    6.59
   3  -5   5    2.18    0.81
   3  -5   5    1.55    0.94
   3  -5   5   -0.59    1.86
  -3  -5  -5    1.11    1.12
   3  -5   5    2.15    1.03
  -3  -5  -5    0.85    1.15
  -3   5  -5    1.52    0.57
  -3   5  -5    1.74    0.71
   3   5   5    0.99    1.52
   3   5   5    2.16    0.82
   3   5   5    1.46    0.85
  -3   5  -5    4.87    1.46
  -4  -5  -5    4.55    1.22
   4  -5   5    3.30    1.10
   4  -5   5    5.64    2.15
   4   5   5    2.47    1.59
  -4   5  -5    6.29    1.56
  -4   5  -5    3.59    0.59
   5  -5   5   -0.86    1.15
  -5  -5  -5    0.97    1.22
   5  -5   5    3.70    2.22
  -5   5  -5    2.31    1.69
   5   5   5    0.90    1.70
   6  -5   5   31.69    2.90
  -6  -5  -5   42.72    3.21
   6   5   5   33.41    3.47
  -6   5  -5   34.68    4.01
  -7  -5  -5    4.36    1.16
   7   5   5    3.25    1.79
   7  -6  -5    0.10    2.75
   7   6  -5    1.34    1.94
  -7   6   5    1.35    1.34
  -6  -6   5   -0.05    1.49
  -6  -6   5   -0.14    1.15
   6  -6  -5    1.17    3.00
  -6   6   5    1.01    1.35
  -6   6   5    0.02    1.38
   6   6  -5   -0.06    1.10
   6   6  -5    0.88    2.09
  -5  -6   5    1.01    1.50
   5  -6  -5    4.05    2.82
   5   6  -5    4.90    1.99
  -5   6   5    1.13    0.83
  -5   6   5    4.85    1.43
  -5   6   5    2.32    1.30
   4  -6  -5    1.19    2.61
  -4  -6   5   -0.19    1.09
  -4  -6   5   -0.08    1.37
  -4  -6   5   -0.17    0.61
   4  -6  -5   -0.53    1.22
  -4  -6   5   -1.03    1.01
  -4   6   5    0.49    0.51
  -4   6   5   -0.11    1.30
   4   6  -5   -0.02    0.61
  -4   6   5   -0.46    0.45
   4   6  -5    2.35    1.66
  -3  -6   5   19.12    1.94
  -3  -6   5   13.31    2.27
   3  -6  -5   20.75    2.25
  -3  -6   5   14.26    2.55
   3  -6  -5   12.45    1.83
  -3  -6   5   15.12    1.67
  -3   6   5   19.43    1.71
   3   6  -5   11.94    1.66
   3   6  -5   16.32    1.82
   3   6  -5   16.14    1.63
  -3   6   5   17.46    1.90
   3   6  -5   13.05    2.43
  -3   6   5   18.39    2.16
  -2  -6   5   10.83    1.69
   2  -6  -5   10.14    1.84
  -2  -6   5    7.40    1.45
   2  -6  -5    8.81    1.63
  -2  -6   5    5.09    1.54
  -2   6   5   10.14    1.76
  -2   6   5    9.06    1.56
   2   6  -5    6.78    1.30
   2   6  -5    8.75    1.36
   2   6  -5    8.31    1.32
   2   6  -5    8.30    1.51
  -1  -6   5   22.93    2.12
   1  -6  -5   18.40    2.48
  -1  -6   5   20.56    2.75
  -1  -6   5   27.00    2.21
  -1  -6   5   21.53    2.51
   1  -6  -5   24.08    2.33
   1  -6  -5   21.89    2.42
  -1   6   5   23.33    2.30
   1   6  -5   21.49    2.49
  -1   6   5   22.12    2.11
   1   6  -5   23.55    2.06
  -1   6   5   24.40    2.36
   1   6  -5   23.63    2.20
   1   6  -5   24.44    1.92
   0  -6   5    2.95    1.20
   0  -6   5    2.03    1.05
   0  -6  -5    2.75    1.04
   0  -6  -5    2.44    1.00
   0  -6   5    2.78    0.81
   0  -6  -5    1.31    1.23
   0   6   5    3.50    0.92
   0   6  -5    3.50    0.80
   0   6  -5    3.20    1.25
   0   6   5    3.28    0.75
   0   6  -5    2.81    0.65
   0   6   5    3.07    1.04
   0   6  -5    4.49    0.74
   1  -6   5    4.59    1.14
   1  -6   5    5.73    1.35
   1  -6   5    4.98    0.90
  -1  -6  -5    3.90    1.24
  -1  -6  -5    5.13    1.09
  -1  -6  -5    4.08    1.07
  -1   6  -5    6.77    1.10
  -1   6  -5    7.27    1.27
  -1   6  -5    4.89    1.32
   1   6   5    5.51    1.04
   1   6   5    5.83    1.07
  -1   6  -5    6.97    1.14
   1   6   5    7.23    1.36
  -2  -6  -5    7.00    1.62
  -2  -6  -5   10.43    1.72
   2  -6   5   12.98    2.06
  -2  -6  -5   11.22    1.75
   2  -6   5    7.95    1.46
  -2  -6  -5    9.32    1.84
   2   6   5   11.50    1.40
   2   6   5   11.36    1.86
  -2   6  -5   10.71    1.30
  -2   6  -5    8.74    1.28
  -2   6  -5   11.77    1.37
   2   6   5   11.10    1.57
  -2   6  -5    8.84    1.60
   2   6   5   12.60    1.58
  -3  -6  -5    5.49    1.35
  -3  -6  -5    5.14    1.28
   3  -6   5    5.84    1.16
   3  -6   5    6.75    1.02
  -3  -6  -5    5.63    1.10
  -3   6  -5    5.60    0.95
   3   6   5    8.00    1.61
   3   6   5    4.54    1.69
   3   6   5    7.35    1.32
  -3   6  -5    5.62    1.56
   4  -6   5    5.38    1.13
  -4  -6  -5    5.06    1.31
   4  -6   5    3.87    1.07
   4  -6   5    8.12    2.40
   4   6   5    5.81    1.83
  -4   6  -5    2.87    0.47
  -4   6  -5    5.88    1.67
   4   6   5    2.87    0.75
   5  -6   5    2.89    1.14
  -5  -6  -5    3.24    1.31
   5  -6   5    4.99    2.45
   5   6   5    2.44    1.85
  -5   6  -5    1.78    1.71
   6  -6   5    3.73    2.45
  -6  -6  -5    1.89    1.24
   6  -6   5    0.29    1.08
   6   6   5    2.25    1.79
  -6   6  -5    0.36    1.77
  -7  -6  -5    3.84    0.90
   7  -6   5    2.87    2.16
  -7  -7   5    7.13    1.52
   7   7  -5   11.92    2.43
   7   7  -5   11.64    1.42
  -6  -7   5    0.84    1.55
   6  -7  -5   -0.85    2.17
  -6   7   5    2.53    1.44
  -6   7   5   -0.99    1.03
   6   7  -5    2.94    1.98
  -5  -7   5   18.62    3.06
   5  -7  -5   22.83    4.67
  -5   7   5   28.68    2.82
   5   7  -5   22.64    3.13
   4  -7  -5    8.08    3.01
  -4  -7   5    2.95    1.59
   4  -7  -5    5.70    1.42
  -4  -7   5    4.24    1.29
  -4  -7   5    2.93    1.21
  -4   7   5    7.87    1.55
   4   7  -5    5.75    1.79
  -3  -7   5   29.13    2.66
   3  -7  -5   33.23    2.76
  -3  -7   5   34.64    3.49
  -3  -7   5   32.63    3.21
   3   7  -5   28.13    3.24
  -3   7   5   39.68    2.88
   2  -7  -5    7.75    1.19
  -2  -7   5    9.30    1.62
  -2  -7   5    9.20    2.03
  -2  -7   5    7.11    1.02
  -2   7   5   11.79    1.71
   1  -7  -5   17.32    2.16
   1  -7  -5   18.37    2.32
  -1  -7   5   18.90    2.66
  -1  -7   5   17.20    2.35
   1  -7  -5   15.77    2.43
  -1  -7   5   16.45    1.85
   1   7  -5   19.50    1.92
   1   7  -5   18.82    1.61
  -1   7   5   20.79    2.21
   1   7  -5   16.84    2.32
   0  -7   5    7.80    1.59
   0  -7  -5    7.31    1.46
   0  -7   5    5.80    1.26
   0  -7  -5    5.82    1.22
   0  -7  -5    9.01    1.80
   0  -7   5    6.85    1.38
   0   7  -5    7.25    1.42
   0   7  -5    9.55    1.42
   0   7  -5    8.32    1.13
   0   7   5    9.53    1.72
  -1  -7  -5   26.65    2.73
  -1  -7  -5   26.76    2.72
   1  -7   5   28.76    2.87
   1  -7   5   33.29    3.16
   1   7   5   27.77    2.52
  -1   7  -5   22.28    2.98
  -1   7  -5   28.92    2.43
   2  -7   5   58.76    4.43
  -2  -7  -5   54.63    4.17
  -2  -7  -5   52.10    4.64
  -2  -7  -5   48.65    4.29
  -2   7  -5   50.89    4.03
   2   7   5   52.85    3.94
  -3  -7  -5   21.91    2.27
  -3  -7  -5   20.80    2.69
  -3  -7  -5   21.92    2.31
   3   7   5   15.71    2.76
  -3   7  -5   18.02    2.84
   4  -7   5   15.35    2.14
  -4  -7  -5   13.10    1.93
  -4  -7  -5   13.12    2.39
   4  -7   5   12.39    2.70
  -4  -7  -5   13.41    2.13
  -4   7  -5    9.11    1.93
   4   7   5   11.88    2.11
   5  -7   5   24.21    3.94
   5  -7   5   15.77    1.95
  -5  -7  -5   19.36    2.45
  -5  -7  -5   20.73    2.39
   5   7   5   14.36    2.34
   6  -7   5   10.38    2.50
  -6  -7  -5   12.03    1.83
   6   7   5   11.03    1.99
  -6  -8   5    1.22    1.40
   6  -8  -5    2.14    2.69
  -6   8   5    2.77    1.37
   6   8  -5    3.61    1.76
   5  -8  -5    1.30    1.38
  -5  -8   5   -0.16    1.17
  -5  -8   5   -1.49    1.48
   5  -8  -5   -0.66    2.94
   5   8  -5    2.24    1.85
  -5   8   5    3.09    1.53
  -4  -8   5   -1.26    1.24
   4  -8  -5   -1.24    2.95
  -4  -8   5    0.40    1.52
   4  -8  -5    1.02    1.39
  -4  -8   5    0.12    1.19
  -4   8   5    2.52    1.49
  -4   8   5    2.72    1.02
   4   8  -5    2.41    1.68
   3  -8  -5    2.59    1.32
  -3  -8   5   -0.06    1.29
  -3  -8   5    0.47    1.26
  -3  -8   5   -0.09    1.49
   3   8  -5   -0.34    1.66
  -3   8   5    2.20    1.03
  -3   8   5    2.41    1.44
  -2  -8   5   -0.27    1.43
   2  -8  -5    1.91    1.16
  -2  -8   5   -0.26    1.14
  -2   8   5    2.49    1.32
  -1  -8   5   -0.55    1.50
   1  -8  -5   -1.10    1.11
  -1  -8   5   -1.02    1.09
   1   8  -5    1.39    1.19
  -1   8   5   -0.48    1.23
   0  -8  -5    9.47    1.91
   0  -8  -5    7.52    1.52
   0  -8   5    6.49    1.72
   0  -8   5    5.26    1.29
   0   8  -5    7.54    1.44
   0   8   5    9.83    1.82
   1  -8   5    0.09    1.16
  -1  -8  -5   -0.10    1.32
   1  -8   5    1.09    1.64
  -1  -8  -5    0.65    1.05
  -1   8  -5    0.68    1.36
   1   8   5    1.38    1.12
  -2  -8  -5   20.98    2.54
   2  -8   5   26.53    2.73
  -2  -8  -5   21.04    2.47
  -2  -8  -5   17.80    3.15
   2  -8   5   24.14    3.24
  -2   8  -5   15.19    2.88
   2   8   5   23.52    2.20
  -3  -8  -5    0.04    1.03
  -3  -8  -5    0.26    1.43
  -3  -8  -5   -1.13    1.30
   3  -8   5    1.05    1.16
   3   8   5    0.38    1.70
  -3   8  -5    0.16    1.45
   4  -8   5    8.42    2.71
  -4  -8  -5    7.28    1.56
  -4  -8  -5    8.59    1.53
  -4  -8  -5    9.73    1.80
   4   8   5    9.45    2.00
  -4   8  -5    5.88    1.69
   5  -8   5   -1.77    2.11
  -5  -8  -5    1.08    1.10
  -5  -8  -5   -1.12    1.24
   5   8   5   -0.33    1.68
   5  -9  -5    3.22    2.72
  -5  -9   5    0.76    1.41
  -5  -9   5    3.52    0.89
   5  -9  -5    3.59    1.32
  -5   9   5    3.94    0.86
  -5   9   5    7.35    1.54
   5   9  -5    0.59    1.42
   4  -9  -5    0.58    2.81
   4  -9  -5    2.92    1.41
  -4  -9   5    2.32    1.11
  -4  -9   5   -0.85    1.15
  -4   9   5    2.10    1.19
   4   9  -5    1.79    1.59
  -4   9   5    2.12    1.02
  -3  -9   5   14.29    2.94
  -3  -9   5   15.64    2.69
   3  -9  -5   21.98    2.62
  -3   9   5   21.27    2.22
   3   9  -5   14.14    2.63
   2  -9  -5    7.90    1.43
  -2  -9   5    4.89    1.37
  -2  -9   5    5.04    1.73
  -1  -9   5    7.67    1.79
   1  -9  -5    7.01    1.35
  -1  -9   5    4.87    1.39
   1  -9  -5    5.54    1.65
   1   9  -5    7.09    1.41
  -1   9   5   10.70    2.06
   0  -9   5    7.07    1.45
   0  -9  -5   11.40    2.24
   0  -9   5    8.71    1.89
   0   9  -5    8.74    1.50
  -1  -9  -5   28.31    2.95
  -1  -9  -5   28.02    3.04
   1  -9   5   28.66    3.16
   1  -9   5   32.31    3.87
   1   9   5   33.65    2.77
   2  -9   5   15.15    3.21
  -2  -9  -5   13.75    2.40
   2  -9   5   17.49    2.54
  -2  -9  -5   15.77    2.29
   2   9   5   17.48    2.00
  -3  -9  -5   14.13    2.94
  -3  -9  -5   15.39    2.09
  -3  -9  -5   12.88    2.32
   3   9   5   16.11    2.73
   4  -9   5    4.87    2.19
  -4  -9  -5    9.97    1.70
  -4  -9  -5    7.36    1.47
  -4  -9  -5    7.13    1.51
  -4   9  -5    3.17    1.56
   4   9   5    6.05    1.82
  -6  -9  -5    1.00    0.77
   5 -10  -5    1.89    0.97
  -5  10   5    0.93    0.48
   5  10  -5   -0.41    1.10
   4 -10  -5   10.01    2.02
   4  10  -5    3.04    1.28
  -4  10   5    6.01    0.98
  -3 -10   5    0.47    1.52
  -3 -10   5   -1.35    1.10
   3  10  -5   -0.24    1.58
  -3  10   5    2.47    1.40
  -2 -10   5    7.58    1.43
   2 -10  -5    7.77    1.47
  -1 -10   5    1.52    1.64
  -1 -10   5    1.70    1.27
   1 -10  -5    0.46    1.28
   1 -10  -5   -0.23    1.51
   1  10  -5    3.88    1.24
  -1  10   5    1.84    1.37
   0 -10  -5    2.20    1.47
   0 -10   5    3.26    1.42
   0 -10   5    3.84    1.87
   0 -10  -5    2.44    1.20
   0  10   5    4.96    1.33
   0  10  -5    3.80    1.29
  -1 -10  -5    0.32    1.06
  -1 -10  -5   -1.59    1.33
   1 -10   5    1.61    1.25
   1 -10   5   -0.92    1.81
   1  10   5    1.18    1.18
   2 -10   5   -0.98    1.13
  -2 -10  -5   -0.88    1.01
   2 -10   5    0.17    1.76
  -2 -10  -5    0.35    1.07
   2  10   5    1.50    1.08
  -2  10  -5   -0.83    1.32
  -3 -10  -5    0.18    1.29
  -3 -10  -5   -0.85    0.95
   3  10   5    2.39    1.60
  -3  10  -5    0.20    1.35
   4 -10   5    2.13    0.94
  -4 -10  -5    0.35    1.04
   5 -10   5    2.63    0.69
   3  11  -5   -0.99    0.99
  -1 -11   5    2.88    1.25
   1 -11  -5    2.08    1.26
  -1 -11   5    2.90    1.74
   0 -11   5    9.60    2.07
   0 -11  -5   12.29    2.23
   0 -11  -5    9.18    1.94
   0 -11   5   13.06    2.26
   0  11  -5   14.98    2.30
  -1 -11  -5   -1.29    1.21
   1 -11   5    0.68    1.55
  -1 -11  -5   -0.61    1.14
   1  11   5    1.74    1.01
   2  11   5   14.00    1.62
   2  12  -5    0.33    0.85
  -9   0   6   -1.66    1.16
  -8   0   6    1.36    1.52
  -8   0   6    2.91    1.20
  -7   0   6   -2.60    1.51
  -7   0   6   -0.73    1.21
   7   0  -6    1.88    2.33
  -6   0   6    2.62    1.68
  -6   0   6    5.22    1.29
   6   0  -6    8.80    2.35
  -5   0   6   -1.31    1.04
  -5   0   6   -1.91    1.18
   5   0  -6   -0.43    2.02
  -5   0   6    0.02    1.00
  -5   0   6   -1.70    0.82
   4   0  -6    4.73    0.81
  -4   0   6    1.52    1.19
  -4   0   6    2.78    0.86
  -4   0   6    2.86    0.95
   4   0  -6    4.79    1.72
  -4   0   6    4.27    0.94
  -3   0   6   -0.28    0.70
   3   0  -6   -0.08    0.70
   3   0  -6   -0.73    0.79
  -3   0   6   -0.81    1.01
   3   0  -6    0.22    1.35
  -3   0   6   -0.15    0.65
  -3   0   6   -1.38    0.93
  -2   0   6    0.79    0.92
  -2   0   6    0.89    0.83
   2   0  -6    4.25    1.16
  -2   0   6    2.90    0.76
   2   0  -6    2.66    0.71
  -2   0   6    2.81    1.01
  -2   0   6    2.77    0.73
  -1   0   6   -0.47    0.62
   1   0  -6    1.67    1.06
  -1   0   6   -0.93    0.76
  -1   0   6   -0.46    0.83
  -1   0   6   -0.46    0.84
   1   0  -6   -0.91    0.85
  -1   0   6   -0.47    0.72
   1   0  -6   -0.53    0.64
   0   0   6    1.13    0.81
   0   0  -6    1.79    1.15
   0   0   6    1.17    0.60
   0   0   6    0.37    0.75
   0   0  -6    1.10    0.56
   0   0   6    0.27    0.78
   0   0  -6    0.39    0.82
   0   0   6    0.76    0.85
   1   0   6   -0.05    0.82
  -1   0  -6   -0.33    0.96
  -1   0  -6   -0.08    1.20
  -1   0  -6   -0.42    0.81
   1   0   6   -1.08    0.73
   1   0   6   -0.22    0.81
  -2   0  -6   85.44    6.38
   2   0   6   83.44    6.10
  -2   0  -6   85.88    6.30
   2   0   6   86.16    6.49
   2   0   6   92.12    5.34
   3   0   6    1.31    0.83
  -3   0  -6   -0.59    1.24
   3   0   6   -0.02    0.65
  -3   0  -6   -0.25    0.51
  -3   0  -6   -0.40    1.37
   3   0   6    0.31    0.90
   4   0   6    9.09    1.58
  -4   0  -6    7.59    1.23
  -4   0  -6    4.97    1.46
  -4   0  -6    6.71    0.99
  -4   0  -6    4.25    1.72
   4   0   6    4.76    0.83
   4   0   6    6.17    1.25
  -5   0  -6   -1.05    1.53
   5   0   6   -0.79    1.25
  -5   0  -6   -0.76    1.77
  -5   0  -6    0.08    0.52
   5   0   6   -0.25    1.15
  -5   0  -6   -1.89    1.16
   6   0   6   14.04    2.19
  -6   0  -6    8.08    2.14
  -6   0  -6   11.82    2.04
  -7   0  -6   -0.94    1.98
   7   0   6    1.57    1.37
  -7   0  -6   -1.62    1.84
  -8   0  -6   19.83    3.01
  -9  -1   6    1.79    1.23
  -9   1   6    3.65    1.28
  -8  -1   6    2.07    1.58
  -8  -1   6    2.26    1.21
  -8   1   6    2.42    0.86
  -8   1   6    0.02    1.26
  -8   1   6    2.26    1.56
   8   1  -6    4.11    2.14
  -7  -1   6   36.02    4.33
  -7  -1   6   45.52    3.58
  -7  -1   6   45.46    3.41
  -7   1   6   48.44    3.60
  -7   1   6   39.70    4.25
  -7   1   6   42.83    3.38
   7   1  -6   46.18    4.51
  -6  -1   6   14.51    3.21
  -6  -1   6   18.71    2.20
  -6  -1   6   20.32    2.27
   6  -1  -6   23.22    3.29
   6   1  -6   21.64    3.21
  -6   1   6   18.35    2.17
  -5  -1   6   56.03    4.46
  -5  -1   6   56.26    4.99
  -5  -1   6   63.30    3.89
  -5  -1   6   58.77    3.77
  -5  -1   6   54.78    4.14
  -5  -1   6   60.24    3.95
   5  -1  -6   58.77    4.77
  -5   1   6   56.58    3.91
   5   1  -6   52.06    4.72
  -5   1   6   52.19    3.73
   5   1  -6   55.43    3.78
  -5   1   6   55.38    4.53
  -5   1   6   52.07    4.16
   4  -1  -6   28.37    2.31
   4  -1  -6   31.70    3.38
  -4  -1   6   31.31    2.37
   4  -1  -6   28.75    2.97
  -4  -1   6   28.87    2.73
  -4  -1   6   30.06    2.20
  -4  -1   6   24.23    3.21
  -4   1   6   27.09    2.53
  -4   1   6   27.21    2.76
  -4   1   6   29.66    2.37
   4   1  -6   29.68    2.25
  -4   1   6   26.87    2.26
   4   1  -6   28.32    3.08
   3  -1  -6  142.37    9.84
   3  -1  -6  130.93    9.61
  -3  -1   6  137.94    9.71
   3  -1  -6  132.23    9.80
  -3  -1   6  146.56    8.88
  -3   1   6  139.53    8.84
   3   1  -6  154.61    8.89
   3   1  -6  155.65   10.44
  -3   1   6  135.74    9.72
  -3   1   6  141.48   10.37
  -3   1   6  160.47    9.69
  -3   1   6  141.07    9.65
   3   1  -6  123.38    9.82
   2  -1  -6  100.31    7.22
   2  -1  -6  105.18    6.61
  -2  -1   6  110.09    6.62
  -2  -1   6  100.71    7.85
  -2  -1   6  103.28    7.25
  -2  -1   6   96.53    7.20
  -2   1   6  109.64    7.38
  -2   1   6  108.70    7.78
   2   1  -6  105.42    7.36
  -2   1   6  107.77    6.58
   2   1  -6  114.48    7.80
  -2   1   6  101.14    7.82
   2   1  -6  104.35    7.23
  -2   1   6  104.38    7.21
   2   1  -6  103.87    6.63
   1  -1  -6  134.74    9.07
  -1  -1   6  128.14    9.80
   1  -1  -6  130.01    8.25
  -1  -1   6  131.39    9.11
  -1  -1   6  128.54    8.27
   1  -1  -6  128.91    9.25
  -1   1   6  136.91    8.23
   1   1  -6  127.18    8.29
  -1   1   6  137.52    9.22
  -1   1   6  136.71    9.76
   1   1  -6  134.53    9.74
   1   1  -6  138.90    9.04
  -1   1   6  136.20    9.02
  -1   1   6  128.38    9.74
   0  -1   6   56.70    3.99
   0  -1  -6   57.85    4.44
   0  -1   6   49.88    3.58
   0  -1  -6   62.55    4.31
   0  -1  -6   55.77    4.01
   0  -1   6   54.12    4.35
   0   1   6   52.14    4.27
   0   1   6   57.15    4.33
   0   1  -6   50.20    3.58
   0   1  -6   55.28    3.91
   0   1   6   52.99    4.06
   0   1   6   50.94    3.94
   0   1  -6   62.89    4.27
  -1  -1  -6  232.79   15.19
   1  -1   6  220.59   15.42
   1  -1   6  223.41   13.89
  -1  -1  -6  217.18   15.47
   1  -1   6  245.57   16.38
   1   1   6  212.92   15.14
  -1   1  -6  243.04   15.14
   1   1   6  224.99   16.37
   1   1   6  206.62   16.35
  -1   1  -6  206.09   13.86
  -1   1  -6  211.13   15.44
  -1   1  -6  256.19   16.38
   1   1   6  228.20   15.40
  -1   1  -6  224.53   15.56
   2  -1   6  290.79   18.64
   2  -1   6  245.07   17.56
  -2  -1  -6  250.59   17.60
  -2  -1  -6  236.66   15.81
  -2   1  -6  261.81   17.80
   2   1   6  241.61   17.24
   2   1   6  232.30   18.63
   2   1   6  271.20   17.54
  -2   1  -6  289.51   18.67
  -2   1  -6  238.65   17.61
   2   1   6  261.48   15.42
   2   1   6  250.48   18.63
  -2   1  -6  270.43   17.25
  -3  -1  -6  205.98   13.25
   3  -1   6  190.24   11.66
  -3  -1  -6  187.89   12.08
   3  -1   6  200.60   11.71
  -3  -1  -6  184.37   13.38
  -3   1  -6  191.07   13.64
   3   1   6  195.18   11.73
  -3   1  -6  175.66   11.97
   3   1   6  205.53   13.29
  -3   1  -6  199.35   11.65
   3   1   6  197.86   11.66
   4  -1   6   85.56    6.28
  -4  -1  -6   92.30    5.91
  -4  -1  -6   84.95    6.30
  -4  -1  -6   87.45    6.22
  -4  -1  -6   78.87    6.33
   4  -1   6   83.02    5.49
  -4   1  -6   86.63    6.77
  -4   1  -6   88.52    5.37
   4   1   6   84.59    5.49
   4   1   6   99.42    6.17
   4   1   6   88.39    5.60
  -4   1  -6   86.09    6.28
  -5  -1  -6   37.43    3.62
  -5  -1  -6   40.53    4.35
  -5  -1  -6   43.81    3.48
  -5  -1  -6   47.32    3.76
  -5  -1  -6   44.01    2.88
   5  -1   6   41.23    3.20
   5   1   6   45.78    3.39
  -5   1  -6   44.38    2.85
  -5   1  -6   47.14    3.69
   5   1   6   43.11    3.21
  -5   1  -6   42.43    4.38
  -5   1  -6   44.35    3.49
  -6  -1  -6   43.69    4.66
  -6  -1  -6   49.08    4.07
   6  -1   6   43.16    3.50
  -6   1  -6   46.06    3.98
  -6   1  -6   42.34    4.62
   6   1   6   45.56    3.57
   7  -1   6   27.51    2.78
  -7  -1  -6   28.09    4.08
  -7  -1  -6   33.79    3.64
  -7   1  -6   35.93    3.46
   7   1   6   29.67    2.83
  -7   1  -6   25.57    4.05
  -8  -1  -6    0.48    1.91
  -8  -1  -6    8.23    1.94
  -8   1  -6    8.54    1.89
  -8   1  -6    0.36    1.91
  -8  -2   6    2.27    1.24
  -8  -2   6    0.14    1.49
   8   2  -6    4.51    2.38
  -8   2   6    0.70    1.51
  -8   2   6    3.63    1.07
  -8   2   6    2.02    1.26
  -7  -2   6   -2.65    1.46
  -7  -2   6   -0.04    1.34
  -7   2   6   -0.17    1.46
  -7   2   6   -1.52    1.20
  -6  -2   6   -0.25    1.31
  -6  -2   6   -0.87    1.49
  -6  -2   6   -0.66    1.32
   6  -2  -6    0.31    2.43
  -6   2   6    0.20    1.16
   6   2  -6    1.80    2.22
  -5  -2   6    0.99    0.87
   5  -2  -6    1.08    2.10
  -5  -2   6    0.25    1.21
  -5  -2   6   -0.92    1.49
  -5  -2   6    0.69    1.24
  -5  -2   6   -0.05    1.14
   5  -2  -6    1.25    2.15
   5   2  -6    2.11    0.79
  -5   2   6    0.90    0.95
  -5   2   6   -0.39    1.03
   5   2  -6    3.00    2.12
  -5   2   6    0.94    1.19
   4  -2  -6   -0.39    0.72
   4  -2  -6    2.12    1.86
  -4  -2   6   -0.77    1.31
  -4  -2   6   -0.36    1.04
  -4  -2   6    0.02    1.01
   4  -2  -6   -1.31    1.63
  -4  -2   6    1.28    0.78
   4   2  -6   -0.25    0.78
  -4   2   6   -0.56    0.86
  -4   2   6   -1.35    0.93
   4   2  -6    0.93    1.74
  -4   2   6   -1.20    0.87
  -4   2   6    0.09    0.96
   3  -2  -6    1.47    1.48
  -3  -2   6    0.47    1.17
  -3  -2   6    0.98    0.92
   3  -2  -6   -0.71    1.12
  -3  -2   6   -0.31    0.86
   3  -2  -6    1.19    0.74
   3   2  -6    1.60    0.65
   3   2  -6    2.20    0.82
  -3   2   6    0.96    0.64
  -3   2   6    0.94    0.87
  -3   2   6    0.80    0.75
   3   2  -6    3.19    1.50
  -2  -2   6   59.23    5.09
   2  -2  -6   62.43    4.92
  -2  -2   6   65.13    4.31
   2  -2  -6   72.20    5.18
  -2  -2   6   63.96    5.13
   2  -2  -6   67.73    4.67
   2   2  -6   66.44    4.99
  -2   2   6   73.41    5.03
   2   2  -6   59.12    4.32
  -2   2   6   66.65    4.83
  -2   2   6   64.38    4.67
   2   2  -6   68.97    4.66
  -2   2   6   70.72    4.25
  -1  -2   6    0.40    0.84
  -1  -2   6    0.49    0.80
   1  -2  -6   -0.05    0.76
  -1  -2   6    1.21    0.76
   1  -2  -6    1.84    1.27
   1  -2  -6   -0.59    0.94
  -1   2   6   -0.48    0.76
   1   2  -6    1.04    0.71
  -1   2   6   -0.38    0.68
  -1   2   6    0.10    0.74
   1   2  -6    0.76    0.68
   1   2  -6    0.83    0.57
   0  -2  -6   37.13    2.80
   0  -2   6   38.13    2.73
   0  -2   6   38.16    2.69
   0  -2   6   39.90    2.92
   0  -2  -6   32.38    3.05
   0  -2   6   33.60    2.55
   0  -2   6   34.18    3.03
   0  -2  -6   37.84    3.18
   0   2  -6   41.08    2.85
   0   2   6   37.79    2.85
   0   2  -6   32.69    2.48
   0   2   6   32.74    2.76
   0   2  -6   37.24    2.89
   0   2   6   36.67    3.00
  -1  -2  -6   11.25    1.86
  -1  -2  -6   14.30    1.56
   1  -2   6   12.94    1.47
   1  -2   6   14.19    1.68
  -1  -2  -6   11.76    1.80
   1  -2   6   12.73    1.37
   1  -2   6   12.88    1.41
   1   2   6   13.95    1.48
  -1   2  -6   16.30    1.45
   1   2   6   10.19    1.60
  -1   2  -6   16.83    1.88
   1   2   6   11.23    1.48
  -1   2  -6   14.21    1.23
   2  -2   6   46.15    3.40
   2  -2   6   38.65    3.21
  -2  -2  -6   39.57    3.57
  -2  -2  -6   35.92    2.94
  -2  -2  -6   41.32    3.35
   2   2   6   39.92    3.33
   2   2   6   46.85    3.16
  -2   2  -6   44.51    3.55
   2   2   6   38.93    2.81
   2   2   6   46.72    2.97
  -2   2  -6   40.77    2.80
  -2   2  -6   46.64    3.30
   3  -2   6   13.54    1.51
  -3  -2  -6    8.42    1.85
  -3  -2  -6    9.93    1.79
  -3   2  -6   12.91    2.48
   3   2   6    9.80    1.45
   3   2   6   11.55    1.76
  -3   2  -6   11.52    1.20
   3   2   6   13.77    1.45
  -4  -2  -6    2.86    1.23
   4  -2   6    5.79    1.57
  -4  -2  -6    2.92    1.45
  -4  -2  -6    3.12    1.26
   4  -2   6    4.11    1.08
   4   2   6    4.82    1.10
   4   2   6    5.49    0.86
  -4   2  -6    3.41    0.66
  -4   2  -6    3.72    1.65
   4   2   6    3.92    1.24
   5  -2   6    4.60    1.78
   5  -2   6    4.99    1.23
  -5  -2  -6    4.24    1.68
  -5  -2  -6    2.19    1.21
  -5   2  -6    4.98    1.83
   5   2   6    4.04    1.48
   5   2   6    5.37    1.23
  -5   2  -6    6.27    0.88
  -6  -2  -6    0.02    1.85
   6  -2   6    2.68    1.90
   6  -2   6    2.10    1.35
  -6  -2  -6    1.85    1.98
   6   2   6    1.87    1.29
  -6   2  -6    1.20    1.96
  -7  -2  -6   10.50    2.25
  -7  -2  -6    5.77    2.23
   7  -2   6    9.80    1.49
  -7   2  -6    5.49    2.17
   7   2   6   10.07    1.82
   7   2   6    9.90    1.51
  -7   2  -6    6.08    1.97
  -8  -2  -6   -2.27    1.77
  -8  -3   6   15.47    2.11
  -8   3   6   19.89    2.49
  -8   3   6   17.46    2.21
   8   3  -6   16.76    3.36
  -7  -3   6   -2.00    1.48
  -7  -3   6    0.33    1.40
   7  -3  -6    4.86    2.72
  -7   3   6   -0.05    1.28
   7   3  -6    2.21    2.32
  -6  -3   6   76.36    6.69
   6  -3  -6   80.27    6.95
  -6  -3   6   93.04    5.66
   6   3  -6   76.15    6.57
  -6   3   6   85.59    5.58
  -5  -3   6    6.55    1.34
   5  -3  -6    7.01    2.49
  -5  -3   6    4.43    1.59
  -5  -3   6    8.47    1.41
   5   3  -6   10.95    2.24
  -5   3   6    6.12    1.24
   5   3  -6    7.71    1.27
  -5   3   6    6.62    1.17
  -5   3   6    6.16    1.23
  -4  -3   6   99.41    7.87
   4  -3  -6   94.05    7.13
  -4  -3   6  117.01    6.76
   4  -3  -6  106.24    7.79
  -4   3   6  103.45    6.64
  -4   3   6  102.30    7.23
  -4   3   6  106.12    7.23
   4   3  -6  100.49    6.67
  -4   3   6  107.05    7.65
  -3  -3   6    1.01    1.13
   3  -3  -6    0.03    0.78
   3  -3  -6    2.90    1.64
  -3  -3   6    1.97    1.00
  -3  -3   6    0.90    0.88
   3  -3  -6   -0.75    1.01
   3   3  -6    1.14    1.62
  -3   3   6    0.13    0.80
  -3   3   6    0.09    0.94
   3   3  -6    1.34    0.62
   3   3  -6    0.38    0.82
   3   3  -6    1.58    0.80
  -3   3   6    1.63    0.64
  -2  -3   6  472.31   38.23
   2  -3  -6  549.86   36.12
  -2  -3   6  543.31   33.18
   2  -3  -6  513.74   38.97
  -2   3   6  567.94   38.94
  -2   3   6  545.80   33.14
  -2   3   6  572.82   36.67
   2   3  -6  559.32   38.96
   2   3  -6  537.96   36.11
   2   3  -6  531.86   33.22
  -2   3   6  546.54   36.12
   1  -3  -6   21.15    2.63
  -1  -3   6   27.31    2.09
   1  -3  -6   27.58    2.16
   1  -3  -6   24.30    2.48
  -1  -3   6   22.43    2.46
  -1  -3   6   26.01    2.46
   1   3  -6   28.34    2.25
   1   3  -6   27.30    2.07
  -1   3   6   26.61    2.20
  -1   3   6   26.81    2.21
  -1   3   6   28.72    2.31
  -1   3   6   27.02    1.86
   0  -3   6  289.14   16.31
   0  -3   6  276.93   18.74
   0  -3   6  269.52   18.10
   0  -3   6  240.35   19.12
   0  -3  -6  265.51   17.72
   0  -3  -6  267.63   18.06
   0  -3  -6  253.70   19.13
   0   3   6  261.86   17.98
   0   3   6  251.59   18.78
   0   3  -6  259.91   16.27
   0   3  -6  264.19   19.09
   0   3   6  264.76   17.72
   0   3  -6  269.12   18.71
   0   3   6  254.48   19.09
   0   3  -6  267.28   18.14
  -1  -3  -6   22.22    1.89
   1  -3   6   21.31    1.90
  -1  -3  -6   19.90    2.23
   1  -3   6   24.67    2.22
  -1  -3  -6   21.78    2.28
   1  -3   6   22.13    1.87
  -1   3  -6   22.55    1.72
   1   3   6   24.65    1.95
   1   3   6   21.43    1.69
  -1   3  -6   26.07    2.29
  -1   3  -6   25.64    1.98
   1   3   6   18.01    2.16
   1   3   6   22.15    2.06
   1   3   6   19.93    1.92
  -2  -3  -6  285.57   18.22
   2  -3   6  246.91   18.14
   2  -3   6  269.82   15.90
  -2  -3  -6  255.23   17.85
   2  -3   6  281.96   19.29
  -2  -3  -6  250.79   19.31
   2  -3   6  238.17   18.31
  -2   3  -6  266.33   16.42
   2   3   6  261.77   19.27
   2   3   6  259.88   16.36
  -2   3  -6  276.10   18.42
   2   3   6  301.17   18.18
   3  -3   6    5.71    1.49
   3  -3   6    3.28    0.85
   3  -3   6    4.77    0.93
  -3  -3  -6    2.11    1.17
  -3  -3  -6    4.25    1.17
   3   3   6    3.10    0.82
  -3   3  -6    3.19    0.71
   3   3   6    3.95    0.79
   3   3   6    4.06    1.36
   3   3   6    3.60    0.88
   3   3   6    2.12    0.70
  -3   3  -6    6.40    1.50
   4  -3   6   43.51    3.15
  -4  -3  -6   36.89    3.52
  -4  -3  -6   41.36    3.55
   4  -3   6   48.89    3.92
  -4  -3  -6   42.69    3.54
  -4   3  -6   46.40    2.83
   4   3   6   43.31    3.43
  -4   3  -6   45.87    4.24
   4   3   6   44.93    3.09
   5  -3   6    6.12    1.95
  -5  -3  -6    6.19    1.74
   5  -3   6    3.48    1.25
  -5  -3  -6    1.06    1.26
  -5  -3  -6    1.38    1.09
   5   3   6    3.19    1.58
  -5   3  -6    5.85    1.84
  -5   3  -6    3.55    0.55
   5   3   6    3.61    1.19
  -6  -3  -6   70.17    5.14
   6  -3   6   62.52    4.55
   6  -3   6   76.60    5.54
   6   3   6   64.83    4.78
  -6   3  -6   62.61    5.75
   6   3   6   61.62    4.49
   7  -3   6    1.43    1.24
  -7  -3  -6    4.07    2.07
  -7  -3  -6    1.29    1.91
   7  -3   6   -0.49    1.95
  -7   3  -6    1.17    1.96
   7   3   6    0.79    1.55
  -8  -4   6    0.73    1.00
  -7  -4   6    3.66    1.47
   7  -4  -6    2.55    2.68
   7   4  -6    4.04    2.36
  -7   4   6    2.52    1.33
  -6  -4   6    6.50    1.57
   6  -4  -6    6.37    2.81
   6   4  -6    6.83    2.35
  -6   4   6    5.51    1.37
  -5  -4   6    1.42    1.31
   5  -4  -6    3.62    2.41
  -5  -4   6   -0.91    1.40
   5   4  -6    4.03    2.06
  -5   4   6    0.00    1.15
  -5   4   6    0.75    1.20
  -5   4   6   -0.83    0.96
   4  -4  -6    1.77    2.11
   4  -4  -6   -1.49    1.06
  -4  -4   6   -0.11    1.14
  -4  -4   6    0.45    1.28
  -4   4   6   -0.67    1.10
   4   4  -6    2.51    1.81
  -4   4   6   -0.59    0.94
   4   4  -6    0.70    0.87
  -4   4   6   -0.31    1.02
   4   4  -6    0.20    0.81
   3  -4  -6    0.48    0.75
  -3  -4   6    0.08    0.94
   3  -4  -6   -0.16    1.02
   3  -4  -6    2.56    1.89
  -3  -4   6    1.13    1.05
  -3  -4   6    0.12    1.15
  -3   4   6   -0.25    1.07
   3   4  -6    0.73    1.77
   3   4  -6    0.48    0.61
  -3   4   6    0.78    0.65
  -3   4   6    0.28    0.90
   3   4  -6   -0.75    0.78
   2  -4  -6   -0.18    0.95
  -2  -4   6    0.27    1.01
  -2  -4   6   -0.38    0.92
   2  -4  -6    0.07    0.75
  -2  -4   6   -0.18    0.91
   2   4  -6    0.10    0.59
  -2   4   6    0.57    0.63
   2   4  -6   -0.01    0.78
  -2   4   6    0.82    0.66
  -2   4   6    0.04    0.75
   2   4  -6   -0.29    0.66
  -2   4   6   -0.18    0.97
  -1  -4   6    0.53    0.98
   1  -4  -6   -1.83    1.22
  -1  -4   6   -0.39    0.89
   1  -4  -6   -0.29    0.87
  -1  -4   6    0.19    0.88
  -1  -4   6    0.36    0.58
   1  -4  -6    0.54    0.76
  -1   4   6    0.24    0.83
   1   4  -6   -0.25    0.58
   1   4  -6    1.07    0.95
   1   4  -6    0.21    0.74
  -1   4   6   -1.03    0.90
  -1   4   6    0.52    0.65
  -1   4   6    0.29    0.64
   1   4  -6   -0.08    0.68
   0  -4  -6   10.25    1.34
   0  -4  -6   10.78    1.60
   0  -4   6    9.68    1.77
   0  -4   6   10.95    1.77
   0  -4   6   12.05    1.51
   0  -4   6   10.77    1.31
   0  -4  -6    8.05    1.71
   0   4   6    9.10    1.33
   0   4  -6   11.69    1.75
   0   4   6   10.15    1.48
   0   4   6    9.96    1.71
   0   4  -6   12.11    1.38
   0   4  -6   10.42    1.23
   0   4   6    8.24    1.43
   0   4  -6    9.74    1.34
  -1  -4  -6   -0.43    0.94
   1  -4   6    0.09    0.67
  -1  -4  -6   -0.29    1.05
   1  -4   6    0.31    0.62
  -1  -4  -6    0.03    0.72
   1  -4   6   -0.42    0.88
   1   4   6    0.37    0.67
  -1   4  -6    0.79    0.63
   1   4   6   -0.82    0.87
  -1   4  -6    1.93    1.10
   1   4   6    0.37    0.72
  -1   4  -6   -0.09    0.56
   1   4   6   -0.02    0.61
   1   4   6    0.03    0.75
  -1   4  -6   -0.07    0.60
  -2  -4  -6    2.17    0.73
   2  -4   6    2.05    0.83
  -2  -4  -6    0.93    1.01
   2  -4   6    1.66    0.91
   2  -4   6    0.95    0.69
  -2  -4  -6    1.48    1.13
   2   4   6    1.37    0.66
   2   4   6    1.49    0.77
   2   4   6    1.65    0.78
  -2   4  -6    3.91    1.26
  -2   4  -6    1.32    0.61
  -2   4  -6    2.34    0.67
   2   4   6    1.80    0.69
  -3  -4  -6    7.47    1.35
   3  -4   6    5.80    1.03
   3  -4   6   12.10    1.87
   3  -4   6    8.94    1.67
   3   4   6    9.32    1.37
   3   4   6    7.22    1.39
   3   4   6    9.48    1.56
  -3   4  -6   10.24    1.20
  -3   4  -6    7.83    1.61
   4  -4   6    0.00    1.03
  -4  -4  -6   -0.75    1.19
   4  -4   6    0.74    1.79
  -4   4  -6    0.17    0.48
   4   4   6    0.00    0.77
  -4   4  -6    1.93    1.61
  -4   4  -6   -0.26    0.58
   4   4   6    0.89    1.49
  -5  -4  -6    0.07    1.22
   5  -4   6    1.58    2.02
   5  -4   6   -0.78    1.21
  -5   4  -6    1.63    1.85
  -5   4  -6   -0.38    0.35
   5   4   6   -0.09    1.61
  -6  -4  -6    4.17    1.32
   6  -4   6    3.19    1.29
  -6  -4  -6    5.69    1.95
   6  -4   6    5.32    2.28
   6   4   6    4.73    1.17
   6   4   6    3.17    1.80
  -6   4  -6    3.61    1.96
  -7  -4  -6    5.43    1.24
   7  -4   6    4.11    2.19
  -7  -4  -6    4.57    1.90
   7   4   6    2.41    1.73
  -8  -5   6   -1.05    0.80
  -8  -5   6    0.16    0.93
  -7  -5   6    5.35    1.65
   7  -5  -6    2.13    2.30
   7   5  -6    4.69    1.63
   6  -5  -6    4.20    2.72
  -6  -5   6    1.15    1.59
  -6  -5   6    0.69    1.37
   6   5  -6    3.27    2.22
  -6   5   6   -0.33    1.34
  -6   5   6    1.22    1.30
   5  -5  -6   33.92    4.53
  -5  -5   6   29.91    3.71
  -5  -5   6   40.91    3.00
   5   5  -6   33.19    3.69
  -5   5   6   34.25    2.93
  -5   5   6   34.05    3.11
  -5   5   6   32.32    2.68
   4  -5  -6    3.15    2.35
  -4  -5   6   -0.34    1.39
   4  -5  -6   -0.71    1.14
  -4  -5   6    0.78    1.18
  -4  -5   6   -0.44    1.02
   4   5  -6    1.86    1.81
   4   5  -6   -0.93    0.84
   4   5  -6    0.43    0.73
  -4   5   6    0.84    0.58
   4   5  -6   -0.36    0.49
  -4   5   6   -1.94    1.24
  -4   5   6   -0.37    0.48
  -4   5   6   -0.44    1.07
  -3  -5   6   28.88    3.23
  -3  -5   6   25.91    2.95
  -3  -5   6   32.29    2.52
   3  -5  -6   25.53    3.97
   3  -5  -6   33.67    3.02
  -3   5   6   31.90    2.44
  -3   5   6   31.16    2.60
  -3   5   6   33.02    2.81
   3   5  -6   31.34    2.47
   3   5  -6   34.39    2.65
   3   5  -6   29.02    2.59
   3   5  -6   25.55    2.40
  -2  -5   6    2.22    0.97
   2  -5  -6    0.74    1.07
  -2  -5   6    0.90    1.05
  -2  -5   6    1.31    0.70
  -2  -5   6    0.81    1.23
   2   5  -6    2.22    0.85
   2   5  -6    1.08    0.64
  -2   5   6    1.94    0.73
  -2   5   6    1.14    1.09
   2   5  -6    1.78    0.79
  -2   5   6    1.87    0.93
  -2   5   6    1.73    0.81
   1  -5  -6   96.19    6.30
   1  -5  -6   89.84    6.62
   1  -5  -6   84.05    6.34
  -1  -5   6   89.59    6.15
   1  -5  -6   87.25    6.03
  -1  -5   6   88.53    6.61
  -1  -5   6   75.94    6.60
   1   5  -6   81.32    6.28
  -1   5   6   92.24    6.55
   1   5  -6   88.75    5.60
   1   5  -6   93.56    6.43
  -1   5   6   83.03    6.51
   1   5  -6   83.93    6.47
  -1   5   6   86.09    6.12
  -1   5   6   84.99    6.12
   0  -5   6    0.84    0.98
   0  -5   6    0.58    0.70
   0  -5   6    1.00    1.07
   0  -5   6    0.44    1.15
   0  -5  -6    0.90    0.74
   0  -5  -6   -0.08    0.96
   0  -5  -6    0.42    0.97
   0  -5  -6   -0.23    1.21
   0   5   6    0.45    0.98
   0   5  -6    0.23    1.08
   0   5  -6    1.42    0.65
   0   5  -6   -0.13    0.66
   0   5   6    0.67    0.70
   0   5   6    0.14    0.75
   0   5  -6    0.25    0.57
   0   5   6    1.67    0.86
  -1  -5  -6  111.65    8.63
   1  -5   6  114.78    8.15
  -1  -5  -6  115.16    8.19
  -1  -5  -6  112.78    8.21
   1  -5   6  127.04    8.66
  -1   5  -6  115.10    8.55
  -1   5  -6  109.68    7.31
   1   5   6  119.77    7.28
  -1   5  -6  115.72    8.32
   1   5   6  114.23    8.49
   1   5   6  107.43    8.07
   1   5   6  117.31    7.99
   1   5   6  122.01    8.60
  -1   5  -6  123.64    8.38
  -2  -5  -6   24.29    2.52
   2  -5   6   29.56    2.05
  -2  -5  -6   23.15    2.55
   2  -5   6   29.09    2.60
   2  -5   6   22.95    2.28
   2   5   6   20.92    2.45
   2   5   6   24.92    2.32
   2   5   6   24.13    2.27
  -2   5  -6   24.80    2.00
  -2   5  -6   27.35    2.25
  -2   5  -6   28.88    2.91
   2   5   6   26.00    2.04
   3  -5   6  208.55   14.44
   3  -5   6  237.04   15.14
   3  -5   6  215.58   12.47
  -3  -5  -6  224.84   14.30
  -3  -5  -6  199.39   15.12
  -3  -5  -6  232.83   14.91
   3   5   6  185.59   15.06
  -3   5  -6  205.51   12.86
   3   5   6  194.49   14.85
  -3   5  -6  210.70   15.07
   3   5   6  211.17   12.87
   3   5   6  176.82   12.69
  -3   5  -6  188.03   14.51
   4  -5   6   10.38    1.73
   4  -5   6   15.54    3.07
  -4  -5  -6   12.91    2.00
   4   5   6    9.98    1.85
  -4   5  -6    8.13    1.86
   5  -5   6   92.38    5.81
  -5  -5  -6  100.53    6.61
   5   5   6   84.94    6.14
  -5   5  -6   81.25    7.02
   6  -5   6    8.78    2.37
  -6  -5  -6    7.70    1.45
   6  -5   6    5.66    1.37
   6   5   6    8.58    1.98
  -6   5  -6    5.38    2.06
   7  -5   6   19.76    2.18
  -7  -5  -6   26.70    2.39
   7   5   6   24.18    2.91
  -7   5  -6   18.34    3.43
  -8  -5  -6   10.99    1.30
   7  -6  -6   -0.92    2.59
  -7  -6   6   -1.28    1.11
  -7  -6   6   -1.63    1.34
   7   6  -6    2.10    2.05
  -7   6   6    1.16    1.29
  -6  -6   6   -1.86    1.20
  -6  -6   6   -1.41    1.61
   6  -6  -6   -0.04    2.88
  -6   6   6   -0.34    1.32
   6   6  -6    3.10    2.16
  -6   6   6    0.95    1.35
  -5  -6   6    0.09    1.55
   5  -6  -6    2.09    2.71
  -5  -6   6    1.10    1.28
   5   6  -6    4.16    2.02
  -5   6   6    1.48    1.31
  -5   6   6    1.76    1.46
   4  -6  -6   -0.06    1.32
  -4  -6   6   -0.21    1.12
   4  -6  -6    1.17    2.64
  -4  -6   6   -1.33    1.13
  -4  -6   6   -0.84    1.48
  -4   6   6    0.58    1.35
  -4   6   6    0.17    0.40
  -4   6   6   -0.43    1.10
   4   6  -6    1.43    1.80
   3  -6  -6    3.17    2.53
   3  -6  -6    5.23    1.31
  -3  -6   6    1.68    1.18
  -3  -6   6    2.33    1.46
  -3  -6   6    3.13    0.76
  -3  -6   6    6.40    1.18
   3   6  -6    4.08    0.84
   3   6  -6    5.45    1.02
   3   6  -6    2.44    1.79
   3   6  -6    3.46    0.70
  -2  -6   6   -0.31    0.73
  -2  -6   6    0.87    1.10
   2  -6  -6   -0.35    0.92
  -2  -6   6   -0.88    1.03
   2  -6  -6    0.65    1.08
  -2  -6   6   -0.57    1.37
   2   6  -6   -0.34    1.14
   2   6  -6    0.00    0.63
   2   6  -6   -0.35    0.56
   2   6  -6    0.99    0.74
  -2   6   6    0.63    0.87
  -2   6   6    0.85    1.16
  -1  -6   6   13.16    1.95
  -1  -6   6    8.59    1.64
   1  -6  -6   10.60    1.98
   1  -6  -6   12.93    1.92
  -1  -6   6   10.54    1.50
   1  -6  -6    7.37    1.68
   1   6  -6   10.30    1.35
   1   6  -6   11.09    1.59
  -1   6   6   14.77    1.91
   1   6  -6    9.94    2.02
   1   6  -6   11.32    1.37
  -1   6   6   10.07    1.83
  -1   6   6   12.55    1.50
   0  -6  -6    0.64    1.04
   0  -6   6    0.29    1.21
   0  -6  -6    0.57    0.98
   0  -6  -6   -0.02    1.33
   0  -6   6    0.16    1.06
   0  -6   6    0.59    0.75
   0   6  -6    1.23    0.68
   0   6   6    0.67    0.80
   0   6   6    1.60    0.68
   0   6   6   -0.13    1.01
   0   6  -6    0.35    1.26
   0   6  -6   -0.23    0.67
   0   6  -6    0.40    0.56
   1  -6   6    7.09    1.30
  -1  -6  -6    9.90    1.85
  -1  -6  -6    7.97    1.50
   1  -6   6   11.81    2.18
   1  -6   6    8.04    1.48
  -1  -6  -6    8.42    1.77
   1   6   6   10.16    1.75
   1   6   6   11.31    1.44
  -1   6  -6   10.33    1.22
  -1   6  -6    8.24    1.22
  -1   6  -6    9.48    1.35
   1   6   6    8.93    1.67
  -1   6  -6    7.79    1.49
   2  -6   6    5.94    1.22
  -2  -6  -6    4.76    1.37
  -2  -6  -6    4.95    1.16
  -2  -6  -6    5.33    1.05
   2   6   6    5.07    1.06
   2   6   6    5.87    0.90
  -2   6  -6    5.25    1.58
  -2   6  -6    5.33    1.00
   2   6   6    7.48    1.29
  -3  -6  -6    1.44    1.27
  -3  -6  -6    1.00    1.30
  -3  -6  -6    0.35    1.00
   3  -6   6    0.50    0.94
   3  -6   6    0.17    1.10
   3   6   6    0.60    0.80
   3   6   6    1.22    0.64
   3   6   6    0.42    1.59
  -3   6  -6    1.02    1.56
   4  -6   6    1.85    2.21
   4  -6   6   -0.58    1.04
  -4  -6  -6    0.30    1.28
   4  -6   6    0.08    1.06
  -4   6  -6    1.29    1.66
   4   6   6    0.13    1.75
  -5  -6  -6    0.12    1.32
   5  -6   6    0.11    2.21
   5  -6   6    0.09    1.15
  -5   6  -6    0.40    1.78
   5   6   6   -0.17    1.80
   6  -6   6    7.23    1.32
  -6  -6  -6    9.78    1.99
   6  -6   6    8.95    2.44
   6   6   6    4.41    1.67
  -7  -6  -6    4.15    0.98
   7  -6   6   -0.44    1.96
  -6  -7   6    6.25    1.43
   6   7  -6   10.11    2.07
  -6   7   6   10.55    1.98
  -5  -7   6    2.12    1.36
   5  -7  -6    3.49    1.52
   5  -7  -6    5.64    2.92
  -5  -7   6    1.23    1.63
  -5   7   6    4.18    1.37
  -5   7   6    5.49    1.62
   5   7  -6    5.84    2.03
  -4  -7   6   15.35    3.10
   4  -7  -6   16.53    3.37
   4  -7  -6   25.03    2.89
  -4   7   6   23.75    2.37
  -4   7   6   25.89    2.71
   4   7  -6   19.62    2.97
   3  -7  -6    3.96    1.36
  -3  -7   6    1.04    0.67
  -3  -7   6    5.47    1.21
  -3  -7   6    2.32    1.16
  -3  -7   6    2.43    1.57
   3  -7  -6    0.94    0.74
   3  -7  -6    4.01    2.55
   3   7  -6    2.69    1.81
  -2  -7   6   54.64    5.09
   2  -7  -6   56.56    4.54
   2  -7  -6   68.79    4.94
  -2  -7   6   53.61    4.95
  -2  -7   6   68.33    4.24
   2  -7  -6   61.13    4.86
  -2  -7   6   52.13    4.40
  -2   7   6   70.30    4.61
   2   7  -6   56.96    4.73
   1  -7  -6   26.91    2.96
   1  -7  -6   28.35    2.78
  -1  -7   6   24.57    2.28
  -1  -7   6   26.26    3.12
  -1  -7   6   24.63    2.84
   1  -7  -6   26.67    2.53
   1   7  -6   25.93    2.81
  -1   7   6   29.83    2.62
   0  -7   6   52.23    4.58
   0  -7  -6   57.10    4.53
   0  -7  -6   50.18    4.30
   0  -7   6   55.82    4.73
   0  -7  -6   62.47    4.48
   0   7  -6   59.68    4.26
   0   7  -6   46.23    4.47
   0   7   6   58.99    4.19
  -1  -7  -6   10.99    1.99
  -1  -7  -6   12.01    2.16
   1  -7   6   14.05    2.54
   1  -7   6   10.93    2.21
  -1   7  -6   11.13    1.45
   1   7   6   12.22    1.82
  -1   7  -6    9.20    1.68
  -2  -7  -6   54.21    4.76
  -2  -7  -6   62.59    4.65
   2  -7   6   62.60    4.84
   2   7   6   58.02    4.40
   3  -7   6   16.20    2.29
  -3  -7  -6   14.35    2.26
  -3  -7  -6   13.37    2.06
   3   7   6   10.41    1.97
  -3   7  -6   10.90    1.92
   4  -7   6   51.25    4.88
  -4  -7  -6   46.23    3.96
  -4  -7  -6   42.10    4.19
   4  -7   6   51.15    4.10
   5  -7   6    4.61    2.43
  -5  -7  -6    4.72    1.38
   5  -7   6    3.52    1.10
  -5   7  -6    0.28    1.74
   5   7   6    4.94    1.96
   6  -7   6   25.12    3.55
   6  -7   6   19.19    1.84
   6   7   6   22.51    2.83
  -6   7  -6   14.92    2.42
  -6   8   6    1.69    1.17
  -6   8   6   -0.47    1.30
   6   8  -6   -0.59    1.72
  -5  -8   6   -0.03    1.05
   5  -8  -6    1.13    1.45
   5  -8  -6   -1.35    2.68
  -5   8   6    2.02    1.48
   5   8  -6    1.27    1.85
  -5   8   6   -2.21    1.25
   4  -8  -6    2.42    2.91
  -4  -8   6   -1.72    1.27
  -4  -8   6   -0.69    1.18
  -4  -8   6   -1.07    1.58
   4  -8  -6    0.93    1.41
  -4   8   6    3.27    1.48
   4   8  -6    1.98    1.75
  -3  -8   6    0.28    1.28
   3  -8  -6    1.67    1.39
  -3  -8   6   -0.38    1.53
  -3  -8   6   -1.18    1.32
   3   8  -6   -1.12    1.73
  -3   8   6    3.19    1.43
  -2  -8   6   -0.26    1.56
   2  -8  -6    1.22    1.24
  -2  -8   6   -1.35    1.35
  -2  -8   6   -1.01    1.25
  -2   8   6    1.50    1.30
  -1  -8   6   -0.15    1.19
   1  -8  -6    0.56    1.12
  -1  -8   6    0.05    1.48
   1  -8  -6    0.63    1.56
  -1   8   6    1.31    1.28
   1   8  -6    1.57    1.24
   0  -8   6    0.55    1.54
   0  -8  -6   -1.41    1.50
   0  -8  -6   -0.31    1.04
   0  -8   6   -0.75    1.16
   0   8  -6    0.34    1.28
   0   8   6    0.01    1.14
  -1  -8  -6    1.18    1.06
   1  -8   6    0.07    1.47
   1  -8   6   -0.44    1.21
  -1  -8  -6    0.74    1.40
  -1   8  -6   -0.12    1.47
   1   8   6    0.43    1.18
  -2  -8  -6   -1.27    1.37
   2  -8   6   -0.55    1.22
  -2  -8  -6   -0.45    1.06
   2   8   6   -0.71    1.15
  -2   8  -6    0.27    1.50
  -3  -8  -6   -0.15    1.04
  -3  -8  -6    0.08    1.33
   3  -8   6    0.26    1.22
  -3   8  -6    0.23    1.49
   3   8   6   -1.31    1.73
  -4  -8  -6   -0.26    1.33
   4  -8   6   -0.22    1.15
  -4  -8  -6   -0.25    1.34
   4  -8   6   -0.81    2.38
   4   8   6   -0.74    1.75
  -4   8  -6   -1.90    1.64
   5  -8   6    2.28    0.84
  -5  -8  -6    2.69    1.29
   5  -8   6   -2.03    1.82
  -5  -8  -6    2.50    1.10
   5   8   6    0.75    1.72
  -6  -9   6    2.72    0.77
   5  -9  -6    6.67    2.61
   5  -9  -6    6.76    1.50
  -5  -9   6    7.33    1.64
   5   9  -6    5.91    1.83
   4  -9  -6    1.61    2.68
  -4  -9   6    2.36    1.24
  -4  -9   6    1.42    1.23
  -4  -9   6    0.60    1.53
   4  -9  -6    5.35    1.51
   4   9  -6    3.93    1.73
   3  -9  -6   13.61    2.45
  -3  -9   6    6.62    1.52
  -3  -9   6    8.10    1.85
  -3  -9   6   10.92    2.35
   3   9  -6    8.79    1.96
  -2  -9   6   21.19    3.42
   2  -9  -6   24.22    2.96
  -2   9   6   28.32    2.83
   1  -9  -6   11.73    2.23
  -1  -9   6    6.82    1.85
  -1  -9   6    5.98    1.49
   1  -9  -6    8.03    1.82
   1   9  -6    8.30    1.55
  -1   9   6   12.16    2.06
   0  -9  -6   21.57    2.76
   0  -9   6   18.74    3.11
   0  -9  -6   20.25    2.56
   0  -9   6   19.93    2.65
   0   9  -6   18.97    2.77
   0   9   6   21.31    2.39
   1  -9   6   12.51    2.33
  -1  -9  -6    9.48    1.72
  -1  -9  -6    9.92    2.11
   1  -9   6   10.07    1.98
  -1   9  -6    7.80    1.68
  -2  -9  -6   24.58    2.90
   2  -9   6   29.22    3.56
  -2  -9  -6   22.14    2.79
   2  -9   6   27.95    3.03
   2   9   6   28.39    2.61
   3  -9   6    2.04    1.28
  -3  -9  -6    1.25    1.09
  -3  -9  -6    0.01    1.12
   3   9   6    1.09    1.68
  -4  -9  -6   18.21    2.32
  -4  -9  -6   17.91    2.15
   4  -9   6   20.33    3.64
   4   9   6   15.80    2.79
  -5 -10   6    7.11    1.16
   4 -10  -6    1.74    1.25
  -4 -10   6    2.67    0.88
  -3 -10   6   -0.19    1.48
   3 -10  -6    0.59    1.29
   3  10  -6   -0.38    1.56
  -3  10   6    1.00    1.36
  -2 -10   6   -0.60    1.58
  -2  10   6    1.67    1.26
   1 -10  -6    3.88    1.58
  -1 -10   6    2.89    1.71
   1  10  -6    4.92    1.32
  -1  10   6    2.71    1.09
   0 -10  -6    3.29    1.57
   0 -10   6    2.16    1.80
   0 -10  -6    0.52    1.12
   0  10   6    5.56    1.30
   0  10  -6    0.89    1.26
  -1 -10  -6    0.50    1.39
  -1 -10  -6   -0.68    0.99
   1 -10   6    0.54    1.70
   1  10   6    1.56    1.27
   2 -10   6    2.77    1.68
  -2 -10  -6    2.36    1.38
  -2  10  -6    3.40    1.44
   2  10   6    4.55    1.22
   3 -10   6    1.49    1.17
   3  10   6    1.83    1.59
  -5 -10  -6   -0.76    0.68
   3  11  -6   -0.87    1.10
   1 -11  -6    3.75    1.22
   0 -11  -6    0.11    1.28
   0 -11   6    1.06    1.56
   0  11   6    1.11    1.18
  -1 -11  -6   10.17    1.97
   1  11   6   10.50    1.73
  -9   0   7   -1.11    0.99
   8   0  -7    0.71    2.37
  -8   0   7    2.34    0.94
  -8   0   7   -1.60    1.27
  -8   0   7   -1.02    1.38
  -7   0   7   -1.02    1.17
  -7   0   7   -0.78    1.69
   7   0  -7    3.83    2.41
  -6   0   7   -0.65    1.64
   6   0  -7    1.85    2.30
  -6   0   7   -1.04    1.11
   5   0  -7    4.89    2.11
  -5   0   7   -0.29    1.13
  -5   0   7    0.31    1.04
  -5   0   7    1.17    0.91
   4   0  -7   -0.59    0.80
   4   0  -7   -0.05    1.83
  -4   0   7   -0.53    0.79
  -4   0   7   -0.54    0.96
   4   0  -7    0.37    0.70
   3   0  -7    1.33    0.80
  -3   0   7    0.70    1.04
  -3   0   7    2.81    1.12
  -3   0   7    1.19    0.82
  -3   0   7    2.82    0.78
  -3   0   7    0.89    0.89
   3   0  -7    0.59    0.94
   3   0  -7    3.74    1.47
  -3   0   7    2.15    0.85
   2   0  -7   -0.77    0.72
  -2   0   7    0.03    0.96
   2   0  -7    0.87    1.26
  -2   0   7   -0.37    0.99
  -2   0   7   -0.02    0.75
  -2   0   7   -0.69    0.73
  -1   0   7    0.01    0.78
   1   0  -7   -0.16    0.90
  -1   0   7    1.33    1.01
  -1   0   7    1.16    0.73
  -1   0   7    0.77    0.92
  -1   0   7   -0.15    0.77
   1   0  -7    1.05    1.27
   0   0   7    0.94    0.69
   0   0   7   -1.39    0.77
   0   0  -7   -0.64    1.29
   0   0   7   -0.86    0.81
   0   0  -7   -1.69    0.85
   0   0  -7    0.00    0.62
   0   0   7    0.07    0.90
   0   0   7    0.01    0.93
   1   0   7   13.98    1.86
  -1   0  -7   17.86    2.26
  -1   0  -7   13.12    2.12
  -1   0  -7   13.46    1.67
   1   0   7   14.96    1.98
   1   0   7   13.22    1.80
  -2   0  -7   -2.43    1.25
   2   0   7   -0.87    0.73
  -2   0  -7   -1.38    0.84
   2   0   7   -1.18    0.75
  -2   0  -7    2.20    1.42
   2   0   7   -0.27    0.87
  -3   0  -7    1.58    1.43
  -3   0  -7   -0.49    1.07
   3   0   7    1.66    0.90
   3   0   7    0.63    0.95
   3   0   7    0.58    0.71
  -3   0  -7   -0.13    1.46
  -4   0  -7   -2.18    1.35
   4   0   7    0.53    1.06
   4   0   7   -0.47    1.19
  -4   0  -7   -0.07    0.55
  -5   0  -7    1.89    1.82
   5   0   7    1.78    1.26
  -5   0  -7    1.26    0.47
  -5   0  -7    2.42    1.00
  -5   0  -7    0.59    1.53
   5   0   7    1.91    1.21
   6   0   7   -0.07    1.32
  -6   0  -7   -1.24    1.69
  -6   0  -7   -0.68    1.96
  -7   0  -7   -0.87    1.97
   7   0   7    1.73    1.40
  -7   0  -7    3.39    1.84
  -9  -1   7    0.61    0.98
  -9   1   7   -1.27    0.78
  -9   1   7    0.48    1.03
  -8  -1   7    2.15    0.91
  -8  -1   7    0.29    1.41
  -8   1   7    2.54    1.15
   8   1  -7    3.33    2.41
  -8   1   7    1.51    1.25
  -7  -1   7    7.73    1.56
  -7  -1   7    6.71    1.42
   7  -1  -7    7.51    2.57
  -7   1   7    5.82    1.39
  -7   1   7    6.83    1.49
   7   1  -7    8.09    2.65
   6  -1  -7   24.24    3.42
  -6  -1   7   22.85    2.37
  -6  -1   7   17.37    3.56
  -6   1   7   20.91    2.24
   6   1  -7   26.04    3.58
  -5  -1   7    9.73    1.78
  -5  -1   7    8.63    1.51
   5  -1  -7    9.81    2.27
  -5  -1   7    6.66    1.87
  -5  -1   7    8.90    1.50
   5   1  -7   11.64    2.30
  -5   1   7    8.09    1.25
  -5   1   7    8.12    1.49
  -5   1   7    6.78    1.47
   5   1  -7    7.25    1.31
  -5   1   7    7.71    1.37
  -4  -1   7   64.71    4.09
   4  -1  -7   58.43    4.30
  -4  -1   7   57.59    5.19
  -4  -1   7   61.11    4.52
   4  -1  -7   61.08    4.80
  -4   1   7   58.39    4.56
   4   1  -7   56.28    4.80
  -4   1   7   64.54    4.33
  -4   1   7   64.69    4.06
  -4   1   7   63.28    4.46
   4   1  -7   51.22    4.33
   4   1  -7   58.50    4.04
  -3  -1   7   16.13    1.56
   3  -1  -7   17.80    1.55
   3  -1  -7   12.77    1.67
   3  -1  -7   18.15    2.17
  -3  -1   7   17.08    1.55
  -3  -1   7   12.12    2.18
   3   1  -7   15.02    1.62
  -3   1   7   11.27    2.07
   3   1  -7   16.81    2.20
  -3   1   7   13.82    1.78
  -3   1   7   14.39    1.82
  -3   1   7   14.10    1.50
  -3   1   7   13.68    1.86
   3   1  -7   16.07    1.89
   2  -1  -7  112.60    8.35
  -2  -1   7  108.75    9.09
   2  -1  -7  120.59    8.42
  -2  -1   7  123.42    7.65
  -2  -1   7  127.06    8.41
   2  -1  -7  116.20    7.64
  -2   1   7  120.08    7.61
  -2   1   7  130.34    9.02
   2   1  -7  138.97    9.05
   2   1  -7  113.78    8.50
   2   1  -7  119.64    7.67
  -2   1   7  129.73    8.37
  -2   1   7  119.99    9.04
  -2   1   7  125.54    8.51
   2   1  -7  120.46    8.36
  -1  -1   7  110.52    7.08
  -1  -1   7   97.85    8.45
   1  -1  -7  110.14    7.07
  -1  -1   7  121.73    7.83
   1  -1  -7  115.77    8.01
   1  -1  -7  116.65    7.82
   1   1  -7  116.43    8.36
  -1   1   7  119.27    7.93
  -1   1   7  111.96    8.38
  -1   1   7  113.28    7.76
   1   1  -7  119.17    7.76
  -1   1   7  107.52    8.40
  -1   1   7  115.90    7.04
   1   1  -7  103.71    7.10
   0  -1  -7  265.22   17.75
   0  -1   7  244.13   16.23
   0  -1   7  271.27   17.98
   0  -1  -7  268.96   18.09
   0   1   7  280.92   18.03
   0   1   7  237.85   19.11
   0   1   7  272.05   19.13
   0   1   7  248.09   17.70
   0   1  -7  266.99   17.71
   0   1  -7  305.07   19.14
   0   1  -7  236.65   16.23
   1  -1   7  178.12   10.95
  -1  -1  -7  180.71   12.00
   1  -1   7  190.24   12.95
   1  -1   7  179.72   12.16
  -1  -1  -7  181.58   12.28
  -1   1  -7  167.20   12.21
   1   1   7  158.96   11.93
  -1   1  -7  185.94   12.31
  -1   1  -7  200.00   12.93
   1   1   7  175.31   12.91
  -1   1  -7  176.69   11.92
   1   1   7  175.94   12.15
  -1   1  -7  159.35   10.91
   1   1   7  162.33   12.91
   2  -1   7  197.50   13.22
   2  -1   7  173.37   12.44
  -2  -1  -7  167.39   12.54
  -2  -1  -7  186.35   12.28
  -2   1  -7  204.81   13.25
   2   1   7  170.72   12.20
   2   1   7  182.91   12.41
   2   1   7  180.82   13.21
  -2   1  -7  188.54   12.21
  -2   1  -7  185.09   12.69
   2   1   7  165.15   13.19
  -2   1  -7  165.14   12.53
   2   1   7  181.38   10.93
  -3  -1  -7   73.14    6.07
   3  -1   7   89.47    5.21
   3  -1   7   81.75    5.87
   3  -1   7   86.41    5.21
  -3  -1  -7   82.99    5.42
  -3   1  -7   76.47    6.15
   3   1   7   87.38    5.85
   3   1   7   86.90    5.20
  -3   1  -7   74.98    5.20
   3   1   7   81.83    5.24
  -3   1  -7   86.92    6.38
  -4  -1  -7  214.25   13.92
   4  -1   7  240.42   13.51
  -4  -1  -7  225.50   15.23
  -4  -1  -7  214.61   15.75
   4  -1   7  209.88   13.41
  -4   1  -7  208.51   15.70
  -4   1  -7  218.01   13.37
   4   1   7  227.12   13.50
   4   1   7  220.75   13.41
   4   1   7  246.14   15.27
  -5  -1  -7   34.06    2.92
  -5  -1  -7   36.99    3.26
   5  -1   7   33.49    2.79
  -5  -1  -7   33.99    4.01
  -5   1  -7   31.94    3.92
  -5   1  -7   33.89    3.28
   5   1   7   34.81    2.82
   5   1   7   35.50    3.03
  -5   1  -7   34.47    2.29
  -6  -1  -7   91.17    7.41
  -6  -1  -7  100.21    6.49
   6  -1   7   89.89    5.99
  -6   1  -7   93.43    6.45
  -6   1  -7   81.32    7.33
   6   1   7   96.18    6.09
   6   1   7   91.08    5.98
  -7  -1  -7   11.77    2.39
   7  -1   7   13.77    2.21
  -7   1  -7   18.74    2.84
   7   1   7   14.14    2.27
  -7   1  -7   10.22    2.37
  -9  -2   7   -1.73    0.94
  -9   2   7    1.07    0.85
  -8  -2   7    1.15    0.91
  -8  -2   7    2.07    1.36
   8   2  -7    4.13    2.31
  -8   2   7    1.66    1.40
  -8   2   7    2.35    1.21
  -7  -2   7   -0.59    1.31
  -7  -2   7   -1.31    1.62
  -7  -2   7   -0.12    1.40
  -7   2   7    1.80    1.42
   7   2  -7    5.05    2.46
  -7   2   7    1.63    1.26
  -6  -2   7    1.43    1.29
  -6  -2   7    0.07    1.26
   6  -2  -7    1.29    2.32
  -6  -2   7   -0.37    1.69
   6   2  -7    3.24    2.27
  -5  -2   7    0.35    1.16
  -5  -2   7    0.03    1.59
  -5  -2   7    0.51    1.13
   5  -2  -7    0.23    2.05
   5  -2  -7    1.44    2.06
  -5   2   7    1.97    1.07
  -5   2   7    0.42    1.05
   5   2  -7    3.05    2.07
  -5   2   7   -0.61    0.95
  -4  -2   7    2.87    1.64
   4  -2  -7    5.08    1.91
   4  -2  -7    7.45    2.01
  -4  -2   7    9.28    1.67
   4  -2  -7    6.39    1.00
  -4   2   7    5.83    1.24
  -4   2   7    4.28    0.86
  -4   2   7    4.78    1.06
   4   2  -7    9.15    1.99
  -4   2   7    4.64    1.09
  -4   2   7    7.11    1.33
   4   2  -7    8.08    1.35
   3  -2  -7   -0.48    0.83
  -3  -2   7   -0.02    0.99
  -3  -2   7    0.05    1.33
   3  -2  -7    1.20    1.26
  -3  -2   7   -0.13    0.98
  -3   2   7    0.63    0.73
  -3   2   7    0.20    0.79
  -3   2   7   -0.38    0.97
   3   2  -7    0.21    0.77
   3   2  -7    0.44    0.68
   3   2  -7    1.76    0.86
  -3   2   7    0.18    0.68
   3   2  -7    1.39    1.72
  -2  -2   7    2.93    0.89
  -2  -2   7    0.53    0.98
   2  -2  -7    1.28    1.39
  -2  -2   7    0.50    1.18
   2   2  -7    1.78    0.85
   2   2  -7    1.34    0.79
  -2   2   7    1.27    0.89
  -2   2   7   -0.16    0.92
   2   2  -7    1.49    0.67
  -2   2   7   -0.31    0.72
  -1  -2   7    3.95    1.10
   1  -2  -7    6.22    1.49
   1  -2  -7    5.93    1.09
  -1  -2   7    4.75    1.13
   1  -2  -7    5.34    1.23
  -1  -2   7    7.40    1.24
  -1  -2   7    8.19    1.14
   1  -2  -7    6.78    1.06
  -1   2   7    5.36    0.94
  -1   2   7    6.02    0.96
   1   2  -7    6.34    1.22
  -1   2   7    5.11    0.98
  -1   2   7    6.88    1.01
   1   2  -7    6.99    1.20
   1   2  -7    6.19    1.15
   0  -2   7    2.46    0.97
   0  -2  -7    2.02    1.29
   0  -2   7    2.63    0.85
   0  -2  -7    1.90    1.03
   0  -2   7    5.54    1.10
   0  -2  -7    1.46    1.16
   0   2   7    3.70    0.94
   0   2  -7    3.94    0.72
   0   2   7    2.96    0.88
   0   2  -7    3.55    0.67
  -1  -2  -7   -0.20    0.91
   1  -2   7    0.24    0.68
   1  -2   7    0.25    0.59
   1  -2   7   -0.31    0.88
   1  -2   7   -0.13    0.83
  -1  -2  -7   -1.30    1.15
  -1  -2  -7    0.27    1.10
  -1   2  -7    0.05    0.58
   1   2   7    0.69    0.74
   1   2   7   -0.44    0.77
  -1   2  -7    0.88    1.03
  -1   2  -7    0.13    0.58
   1   2   7    0.10    0.73
   1   2   7    0.68    0.86
  -2  -2  -7   -0.50    1.21
   2  -2   7    0.62    0.88
   2  -2   7   -0.56    0.75
  -2  -2  -7   -0.92    1.21
   2  -2   7    0.56    0.79
  -2  -2  -7    0.83    0.86
  -2   2  -7    0.31    0.54
   2   2   7   -0.84    0.94
   2   2   7    0.25    0.74
  -2   2  -7    0.36    1.19
  -2   2  -7    0.91    0.60
   2   2   7    0.50    1.02
  -3  -2  -7   -1.00    1.20
   3  -2   7    1.43    0.95
  -3  -2  -7   -0.41    1.09
   3   2   7    0.34    0.72
  -3   2  -7    0.37    0.63
   3   2   7    0.13    1.15
  -3   2  -7    0.71    0.58
   3   2   7   -0.47    0.74
   3   2   7    0.72    0.95
  -3   2  -7    1.66    1.42
  -3   2  -7    0.36    1.48
  -4  -2  -7    4.63    1.31
  -4  -2  -7    7.45    1.49
   4  -2   7    8.12    1.63
   4  -2   7   10.10    1.70
  -4  -2  -7    6.75    1.57
  -4   2  -7    5.41    1.83
   4   2   7    9.83    1.51
   4   2   7    6.39    1.38
  -4   2  -7    9.34    1.05
  -4   2  -7    6.74    0.94
   4   2   7   10.09    1.69
   5  -2   7    3.61    1.22
  -5  -2  -7    1.95    1.64
  -5  -2  -7    1.52    1.02
   5  -2   7    3.03    1.65
  -5  -2  -7    1.63    1.36
   5   2   7    2.77    1.24
   5   2   7    3.44    1.49
  -5   2  -7    1.72    0.47
  -5   2  -7    1.61    1.89
  -6  -2  -7   -1.20    1.81
   6  -2   7    0.54    1.27
  -6  -2  -7    0.39    2.02
  -6   2  -7   -1.82    1.99
   6   2   7   -0.56    1.59
   6   2   7    0.60    1.37
  -7  -2  -7    1.31    1.90
  -7  -2  -7   -0.35    1.92
   7  -2   7    0.35    1.18
   7   2   7   -0.20    1.54
  -7   2  -7   -1.31    1.61
  -7   2  -7   -1.49    1.95
   7   2   7    1.53    1.34
  -8  -3   7    0.87    0.97
   8   3  -7    1.32    2.45
  -8   3   7    2.41    1.27
  -8   3   7    2.55    1.34
  -7  -3   7   13.84    2.23
   7   3  -7   15.05    2.82
  -7   3   7   13.08    2.19
  -6  -3   7    3.18    1.43
   6  -3  -7    5.26    2.47
  -6  -3   7    1.10    1.66
  -6   3   7    2.49    1.26
   6   3  -7    4.55    2.31
  -5  -3   7   59.26    3.76
  -5  -3   7   47.59    4.67
   5  -3  -7   51.34    4.92
   5   3  -7   48.15    4.66
  -5   3   7   42.37    3.69
  -5   3   7   53.10    3.64
  -5   3   7   49.62    3.88
   4  -3  -7    6.57    2.08
  -4  -3   7    4.08    1.59
  -4  -3   7    7.63    1.34
   4  -3  -7    6.56    1.26
   4   3  -7    5.78    0.98
  -4   3   7    6.32    1.10
   4   3  -7    7.97    1.99
   4   3  -7    6.00    1.32
  -4   3   7    5.96    1.21
   3  -3  -7   58.56    4.71
  -3  -3   7   54.96    4.78
   3  -3  -7   57.13    4.15
  -3  -3   7   49.63    4.64
   3  -3  -7   59.17    4.70
  -3  -3   7   61.02    3.96
   3   3  -7   49.73    4.74
  -3   3   7   60.29    3.85
   3   3  -7   63.02    4.19
  -3   3   7   59.92    4.44
   3   3  -7   52.81    3.90
   3   3  -7   59.87    4.47
  -3   3   7   60.05    4.28
  -2  -3   7   54.32    3.52
  -2  -3   7   50.93    4.25
   2  -3  -7   48.41    4.21
   2  -3  -7   54.08    4.29
   2  -3  -7   51.10    3.77
  -2  -3   7   47.48    4.18
  -2   3   7   52.86    3.41
  -2   3   7   46.58    3.83
  -2   3   7   50.39    3.87
  -2   3   7   51.28    4.02
   2   3  -7   51.39    3.97
   2   3  -7   52.39    3.56
   2   3  -7   53.34    3.72
   1  -3  -7  149.27   10.78
   1  -3  -7  161.77   11.35
  -1  -3   7  151.22    9.61
  -1  -3   7  138.58   11.09
   1  -3  -7  168.99   10.49
  -1  -3   7  144.97   11.33
  -1   3   7  148.54   10.44
  -1   3   7  145.78   10.61
   1   3  -7  155.55    9.63
   1   3  -7  163.76   11.25
  -1   3   7  163.19   11.27
   0  -3   7    5.12    1.02
   0  -3  -7    3.22    0.95
   0  -3   7    5.65    1.09
   0  -3  -7    2.20    1.07
   0  -3   7    4.70    0.96
   0  -3  -7    1.28    1.30
   0  -3   7    2.46    1.00
   0   3   7    3.34    0.93
   0   3   7    3.57    0.85
   0   3  -7    3.88    0.73
   0   3   7    3.64    0.83
   0   3  -7    5.18    1.10
   1  -3   7  215.87   15.18
  -1  -3  -7  207.52   16.21
   1  -3   7  208.12   15.31
  -1  -3  -7  224.09   15.00
   1  -3   7  228.81   16.20
  -1  -3  -7  229.88   15.31
   1   3   7  240.65   15.23
  -1   3  -7  228.05   15.41
  -1   3  -7  206.91   13.74
   1   3   7  214.98   14.98
   1   3   7  206.41   15.87
   1   3   7  226.81   16.17
  -1   3  -7  251.51   16.16
   2  -3   7   38.13    3.35
  -2  -3  -7   36.31    3.74
  -2  -3  -7   42.25    3.61
   2  -3   7   50.18    3.68
   2   3   7   46.44    3.32
  -2   3  -7   50.24    3.48
  -2   3  -7   41.84    2.95
   2   3   7   44.32    3.55
  -2   3  -7   47.34    3.83
   2   3   7   41.28    2.94
   3  -3   7  230.72   14.48
   3  -3   7  215.48   16.68
   3  -3   7  250.26   17.54
  -3  -3  -7  224.70   16.59
   3   3   7  250.54   14.47
   3   3   7  256.07   14.66
  -3   3  -7  236.58   16.87
  -3   3  -7  240.53   14.92
   3   3   7  267.18   16.55
  -3   3  -7  264.41   17.53
   3   3   7  218.00   17.50
  -4  -3  -7    4.85    1.23
  -4  -3  -7    7.04    1.48
  -4  -3  -7    6.98    1.52
   4  -3   7    7.52    1.23
   4   3   7    9.40    1.68
   4   3   7    9.01    1.42
  -4   3  -7    7.81    1.04
  -4   3  -7    8.28    0.94
  -4   3  -7    6.01    1.85
   4   3   7    5.72    1.55
   5  -3   7  124.29    8.04
  -5  -3  -7  111.59    7.39
   5  -3   7  103.87    6.91
  -5  -3  -7  103.74    7.89
   5   3   7  114.18    7.12
  -5   3  -7  101.76    8.40
  -5   3  -7  112.66    6.70
   5   3   7  106.23    6.87
  -6  -3  -7    8.93    1.99
   6  -3   7    8.54    1.51
   6  -3   7    9.60    2.09
  -6  -3  -7    7.37    1.54
  -6   3  -7    6.14    2.16
   6   3   7    6.30    1.41
   6   3   7    8.49    1.83
  -7  -3  -7    9.88    1.66
   7   3   7    9.88    1.44
  -8  -4   7    0.67    0.99
   7  -4  -7    1.08    2.48
  -7  -4   7   -1.98    1.51
  -7  -4   7   -0.04    1.40
   7   4  -7   -0.17    2.06
  -7   4   7    0.86    1.09
  -6  -4   7   -1.43    1.60
  -6  -4   7    2.02    1.43
  -6   4   7   -0.08    1.27
   6   4  -7    4.88    2.38
  -5  -4   7    1.32    1.59
   5  -4  -7    5.03    2.34
  -5  -4   7    2.78    1.35
  -5   4   7    1.46    1.20
  -5   4   7    1.54    0.88
  -5   4   7    1.19    1.25
   5   4  -7    5.19    2.16
   4  -4  -7    3.13    1.34
   4  -4  -7    4.54    2.16
   4  -4  -7    3.60    0.86
  -4  -4   7    4.96    1.23
  -4  -4   7    0.10    1.47
  -4   4   7    5.67    1.21
  -4   4   7    4.65    1.28
   4   4  -7    4.76    1.91
  -4   4   7    3.25    1.09
   4   4  -7    2.71    0.73
   4   4  -7    2.79    0.85
  -3  -4   7    6.86    1.19
   3  -4  -7    4.05    1.94
   3  -4  -7    4.02    1.24
  -3  -4   7    3.10    1.39
   3  -4  -7    7.22    1.24
   3   4  -7    4.79    0.84
  -3   4   7    5.76    1.01
  -3   4   7    6.04    1.24
   3   4  -7    4.91    1.01
   3   4  -7    3.95    0.94
   3   4  -7    2.63    1.90
   2  -4  -7   -1.44    1.60
   2  -4  -7    0.71    1.09
   2  -4  -7    1.13    1.71
  -2  -4   7    0.82    1.17
   2  -4  -7    1.91    0.87
  -2  -4   7    0.41    1.02
  -2  -4   7    1.77    1.04
  -2   4   7    1.44    0.74
  -2   4   7    0.42    1.09
   2   4  -7    1.43    0.79
   2   4  -7    1.46    0.65
  -2   4   7    1.51    0.77
  -2   4   7    1.03    0.78
   1  -4  -7    0.59    0.83
  -1  -4   7    1.50    0.64
  -1  -4   7    0.85    0.95
   1  -4  -7   -0.97    1.41
  -1  -4   7    0.85    1.05
  -1  -4   7    0.37    0.98
   1  -4  -7    0.32    1.02
  -1   4   7    1.47    0.73
   1   4  -7    0.92    1.04
   1   4  -7    2.22    0.77
  -1   4   7    0.95    1.03
  -1   4   7    1.40    0.77
   1   4  -7    1.05    0.59
   1   4  -7    1.06    0.66
   0  -4  -7    5.99    0.97
   0  -4   7    4.74    1.10
   0  -4  -7    4.95    1.14
   0  -4   7    7.07    1.20
   0  -4   7    7.46    1.16
   0  -4  -7    6.55    1.34
   0  -4  -7    3.91    1.38
   0  -4   7    4.87    1.16
   0   4   7    6.33    1.31
   0   4  -7    9.81    1.85
   0   4   7    6.60    1.10
   0   4  -7    6.57    1.21
   0   4  -7    5.90    1.18
   0   4   7    7.17    1.43
   0   4   7    5.22    1.04
  -1  -4  -7    0.31    1.27
  -1  -4  -7    0.54    0.85
   1  -4   7    0.81    0.96
   1  -4   7    1.19    0.69
   1  -4   7    1.62    0.72
  -1  -4  -7    0.74    1.04
  -1   4  -7    0.91    0.60
  -1   4  -7    1.24    0.63
   1   4   7    1.67    0.74
  -1   4  -7    3.34    1.22
   1   4   7    1.53    0.75
   1   4   7    0.31    0.94
   1   4   7    1.55    0.87
   1   4   7    0.67    0.58
  -2  -4  -7   -0.07    1.25
   2  -4   7   -0.71    0.76
  -2  -4  -7    0.40    0.78
   2  -4   7   -0.11    1.01
   2  -4   7   -0.32    0.89
  -2  -4  -7   -1.00    1.04
   2   4   7   -0.02    0.66
   2   4   7    0.77    0.79
   2   4   7   -0.14    0.79
  -2   4  -7   -0.61    0.61
  -2   4  -7    1.30    1.40
   2   4   7    0.73    0.71
  -2   4  -7    0.52    0.66
   3  -4   7   23.68    2.05
  -3  -4  -7   21.36    2.56
   3  -4   7   26.43    2.46
   3  -4   7   18.11    2.17
   3   4   7   22.41    1.95
   3   4   7   24.95    2.65
  -3   4  -7   22.11    1.86
   3   4   7   24.29    2.14
  -3   4  -7   23.63    2.06
  -3   4  -7   23.00    3.15
   4  -4   7    3.95    1.19
   4  -4   7    5.32    1.79
  -4  -4  -7    3.81    1.34
  -4   4  -7    1.43    1.81
   4   4   7    5.04    1.11
   4   4   7    2.05    1.60
  -5  -4  -7   -0.18    1.35
   5  -4   7   -0.50    1.20
   5  -4   7    0.96    1.96
   5   4   7    0.85    1.13
   5   4   7   -0.81    1.66
  -5   4  -7    0.68    1.91
   6  -4   7    1.91    1.37
   6  -4   7    0.93    2.06
  -6  -4  -7    1.20    1.35
  -6   4  -7   -0.66    2.07
   6   4   7    1.59    1.82
   6   4   7    1.70    1.20
   7  -4   7    1.01    1.20
   7  -4   7   -1.21    1.84
  -7  -4  -7    3.43    1.11
  -7   4  -7    0.08    1.87
   7   4   7    0.84    1.70
  -8  -5   7    2.12    0.86
  -7  -5   7   -0.81    1.26
   7  -5  -7   -2.80    1.92
   7   5  -7    2.04    2.19
  -7   5   7    0.26    1.24
  -6  -5   7   34.28    3.11
   6  -5  -7   30.10    4.81
  -6   5   7   36.97    3.07
  -6   5   7   35.08    3.13
   6   5  -7   31.29    4.01
   5  -5  -7    4.80    2.61
  -5  -5   7    3.20    1.40
  -5  -5   7    0.05    1.58
  -5   5   7    1.98    1.24
   5   5  -7    6.22    2.18
  -5   5   7    3.29    1.41
  -4  -5   7   39.93    4.12
  -4  -5   7   56.03    3.64
   4  -5  -7   44.73    4.86
  -4  -5   7   42.13    4.36
  -4   5   7   48.11    3.77
  -4   5   7   52.08    3.55
  -4   5   7   52.98    3.91
   4   5  -7   50.22    3.81
   3  -5  -7    1.38    2.16
  -3  -5   7   -0.60    0.63
  -3  -5   7   -0.26    1.34
  -3  -5   7   -0.25    1.12
   3  -5  -7   -0.13    1.16
  -3   5   7    0.12    1.17
   3   5  -7    0.06    0.90
   3   5  -7   -1.10    1.83
   3   5  -7    1.57    0.73
  -3   5   7    0.76    0.95
   2  -5  -7  173.16   12.83
  -2  -5   7  195.02   11.87
  -2  -5   7  167.94   13.73
  -2  -5   7  198.15   13.10
   2  -5  -7  202.24   13.96
   2  -5  -7  180.71   13.28
  -2   5   7  181.94   13.84
   2   5  -7  177.97   11.86
  -2   5   7  200.49   11.78
  -2   5   7  202.84   12.93
   2   5  -7  189.73   13.84
  -2   5   7  197.43   13.73
   2   5  -7  207.25   13.65
  -2   5   7  180.41   13.00
   1  -5  -7    2.39    1.17
  -1  -5   7    1.83    1.10
   1  -5  -7    4.08    1.08
  -1  -5   7    3.99    0.77
   1  -5  -7    3.80    0.89
  -1  -5   7    2.37    1.26
   1  -5  -7   -0.10    1.56
  -1  -5   7    4.65    1.17
  -1   5   7    3.61    0.82
  -1   5   7    3.12    1.13
   1   5  -7    4.90    0.88
  -1   5   7    3.46    1.01
   1   5  -7    2.95    0.68
  -1   5   7    3.76    0.83
   1   5  -7    3.01    0.82
   1   5  -7    3.16    1.13
   0  -5  -7  153.90   10.93
   0  -5   7  177.09   11.37
   0  -5   7  153.68   11.54
   0  -5   7  159.73   10.87
   0  -5  -7  152.49   10.63
   0  -5  -7  165.07   10.98
   0  -5  -7  150.03   11.53
   0   5  -7  156.15    9.78
   0   5   7  151.25   11.34
   0   5   7  151.07   10.80
   0   5   7  143.03   10.65
   0   5  -7  168.74   11.46
   0   5   7  157.58   11.47
   0   5  -7  165.33   11.25
   0   5  -7  140.75   10.96
   1  -5   7    0.15    0.74
  -1  -5  -7    0.51    0.76
   1  -5   7    0.06    0.70
   1  -5   7    0.70    1.04
  -1  -5  -7   -0.81    1.11
  -1  -5  -7    0.10    0.89
  -1  -5  -7   -1.91    1.27
   1  -5   7    0.76    1.04
   1   5   7    0.33    0.81
  -1   5  -7    0.06    0.56
  -1   5  -7    2.98    1.39
   1   5   7   -0.77    1.03
  -1   5  -7    1.01    0.64
   1   5   7    0.01    0.80
   1   5   7    0.34    0.74
   1   5   7   -0.23    0.64
   2  -5   7  212.08   13.76
   2  -5   7  200.96   11.30
  -2  -5  -7  182.88   12.65
   2  -5   7  177.78   13.00
  -2  -5  -7  206.97   13.04
  -2  -5  -7  180.62   13.75
   2   5   7  186.41   12.70
   2   5   7  184.28   11.61
   2   5   7  187.06   12.90
  -2   5  -7  173.11   13.17
  -2   5  -7  188.07   11.67
   2   5   7  169.80   13.46
   2   5   7  189.19   13.70
  -2   5  -7  184.55   13.66
   3  -5   7    1.73    1.04
   3  -5   7    1.03    1.04
   3  -5   7    0.50    1.74
   3   5   7    1.31    0.69
   3   5   7   -0.27    0.74
   3   5   7    0.95    1.58
   3   5   7    0.24    0.72
  -3   5  -7    2.58    1.60
  -4  -5  -7   91.71    6.35
   4  -5   7   87.42    5.49
  -4   5  -7   75.04    6.67
   4   5   7   89.20    5.91
   5  -5   7    0.12    1.25
   5  -5   7    3.32    2.07
  -5  -5  -7   -0.54    1.41
  -5   5  -7    1.88    1.90
   5   5   7    1.59    1.85
   6  -5   7   85.41    6.02
  -6  -5  -7   74.80    5.50
   6  -5   7   66.27    4.87
  -6   5  -7   61.72    6.12
   6   5   7   72.62    5.22
   7  -5   7    1.83    1.11
   7  -5   7   -1.18    1.75
  -7  -5  -7    3.98    0.99
  -7  -6   7   -0.55    1.44
   7  -6  -7    1.74    2.31
  -7  -6   7   -1.19    1.00
   7   6  -7    0.99    2.03
  -6  -6   7    0.41    1.60
  -6  -6   7    2.94    1.34
   6  -6  -7    2.60    2.78
   6   6  -7    5.23    2.30
  -6   6   7    4.00    1.45
  -6   6   7    2.18    1.32
   5  -6  -7   -0.61    1.42
  -5  -6   7   -0.96    1.56
  -5  -6   7   -1.80    1.32
   5  -6  -7   -0.11    2.51
  -5   6   7   -0.33    1.22
   5   6  -7    3.57    2.13
  -5   6   7   -0.50    1.44
  -4  -6   7    0.36    1.27
  -4  -6   7   -0.87    1.17
   4  -6  -7   -0.89    2.53
   4  -6  -7    1.52    1.37
  -4  -6   7    0.40    1.50
  -4   6   7    1.14    1.16
  -4   6   7    2.09    0.39
   4   6  -7    0.17    0.72
   4   6  -7    2.77    1.98
  -4   6   7    1.17    1.40
   3  -6  -7    0.98    1.36
  -3  -6   7   -1.31    1.17
  -3  -6   7   -0.65    1.49
   3  -6  -7    1.04    2.43
  -3  -6   7    0.47    1.13
  -3   6   7    0.76    1.34
  -3   6   7    0.63    1.04
   2  -6  -7    1.13    1.17
  -2  -6   7    0.98    1.19
  -2  -6   7    0.44    0.70
  -2  -6   7   -0.02    1.18
  -2  -6   7    0.38    1.43
   2   6  -7    1.97    0.68
   2   6  -7    1.37    1.21
  -2   6   7    1.77    1.26
   1  -6  -7    2.75    1.07
  -1  -6   7    0.44    1.36
  -1  -6   7    2.08    0.73
  -1  -6   7    1.95    1.22
   1  -6  -7    1.35    1.13
  -1  -6   7    1.00    1.16
   1  -6  -7   -0.10    1.61
  -1   6   7    1.02    1.21
  -1   6   7    2.46    0.90
  -1   6   7    2.60    0.79
   1   6  -7    2.25    1.20
   1   6  -7    2.71    0.76
   1   6  -7    1.46    0.71
   0  -6   7    0.56    1.14
   0  -6  -7    1.05    1.08
   0  -6  -7    0.28    1.46
   0  -6   7    0.54    0.74
   0  -6  -7    0.09    1.03
   0  -6   7    0.69    1.25
   0   6  -7    0.52    0.67
   0   6   7    1.12    1.17
   0   6   7    1.95    0.87
   0   6  -7    0.21    0.64
   0   6  -7    0.00    1.35
   0   6  -7    0.51    0.53
   0   6   7    1.53    0.80
  -1  -6  -7    1.46    1.44
   1  -6   7    1.20    0.77
  -1  -6  -7    3.00    1.15
  -1  -6  -7    2.07    0.91
   1  -6   7    1.52    1.17
   1   6   7    2.69    1.11
   1   6   7    2.69    0.89
   1   6   7    1.49    0.69
  -1   6  -7    1.68    0.66
   1   6   7    3.15    0.80
  -1   6  -7    2.41    1.41
  -2  -6  -7    1.53    1.15
   2  -6   7    0.89    1.13
   2  -6   7    2.42    0.92
  -2  -6  -7    1.49    1.42
   2   6   7    1.52    0.70
   2   6   7    1.28    1.11
  -2   6  -7    2.49    1.57
   2   6   7    1.98    0.86
   3  -6   7   13.67    1.68
  -3  -6  -7   11.47    2.21
  -3  -6  -7    9.69    2.09
   3  -6   7    7.38    2.09
   3  -6   7   13.09    2.18
  -3   6  -7    8.79    1.89
   3   6   7    9.96    1.86
   3   6   7   10.44    1.58
   4  -6   7   -0.25    1.09
  -4  -6  -7    1.15    1.41
   4  -6   7   -0.23    2.06
  -4   6  -7   -0.61    1.72
   4   6   7   -0.54    1.78
   5  -6   7   -1.30    2.11
  -5  -6  -7    1.01    1.36
   5  -6   7   -0.92    1.21
   5   6   7   -1.26    1.83
  -5   6  -7   -1.04    1.86
  -6  -6  -7    0.79    1.20
   6  -6   7   -0.94    2.15
   6  -6   7    0.32    1.13
   6   6   7    0.78    1.79
  -6   6  -7   -2.81    1.82
  -7  -6  -7    8.15    1.40
  -6  -7   7    4.60    1.79
  -6  -7   7    6.21    1.42
   6   7  -7   11.05    2.32
  -5  -7   7    2.44    1.43
   5  -7  -7    5.85    1.57
  -5  -7   7    2.76    1.77
   5  -7  -7    3.20    2.75
  -5   7   7    6.07    1.41
   5   7  -7    5.82    2.13
  -5   7   7    9.01    1.68
   4  -7  -7   11.63    3.14
   4  -7  -7   18.94    2.79
  -4  -7   7   14.14    2.14
  -4   7   7   13.82    2.11
   4   7  -7   12.87    2.39
  -4   7   7   18.90    2.54
  -3  -7   7   17.15    2.91
  -3  -7   7   13.00    1.56
   3  -7  -7   17.41    3.04
  -3  -7   7   16.06    2.57
   3   7  -7   14.95    2.41
  -2  -7   7   20.82    3.19
  -2  -7   7   21.31    1.98
  -2  -7   7   26.56    2.38
   2  -7  -7   17.40    3.23
   2  -7  -7   24.96    2.83
  -2  -7   7   19.82    2.70
  -2   7   7   25.53    2.62
   2   7  -7   21.98    2.60
   1  -7  -7   40.38    3.56
   1  -7  -7   42.94    4.02
  -1  -7   7   43.46    4.13
   1  -7  -7   50.35    3.98
  -1  -7   7   51.45    3.49
  -1   7   7   46.36    3.66
   1   7  -7   37.69    3.84
   0  -7   7   11.59    2.42
   0  -7  -7   11.05    2.13
   0  -7  -7    8.71    1.81
   0  -7   7   10.03    2.14
   0   7  -7    9.41    1.30
   0   7   7   11.47    1.98
   0   7  -7    9.22    1.61
   1  -7   7   75.12    5.86
   1  -7   7   80.40    5.91
  -1  -7  -7   68.92    5.80
  -1  -7  -7   80.85    5.67
  -1   7  -7   67.24    5.45
   1   7   7   71.43    5.36
  -2  -7  -7   15.89    2.24
   2  -7   7   11.49    1.49
  -2  -7  -7   14.26    2.38
   2  -7   7   18.86    2.41
   2   7   7   15.55    1.99
  -2   7  -7   14.77    2.76
  -3  -7  -7   44.89    3.82
  -3  -7  -7   49.06    3.80
   3   7   7   39.74    3.71
  -3   7  -7   37.91    4.24
  -4  -7  -7   16.56    2.38
   4  -7   7   20.21    2.06
   4  -7   7   24.44    3.64
  -4  -7  -7   18.03    2.55
   4   7   7   17.88    3.00
   5  -7   7   14.47    2.62
   5  -7   7   12.34    1.85
  -5  -7  -7   14.45    2.12
   6  -7   7    5.30    2.09
   6  -7   7    3.62    0.90
  -6   8   7    3.52    1.20
  -5  -8   7   -1.38    1.21
   5  -8  -7    1.56    1.43
   5  -8  -7   -3.77    2.42
  -5  -8   7    0.64    1.03
  -5  -8   7   -0.40    1.58
  -5   8   7    1.58    1.21
  -5   8   7    0.97    1.25
   5   8  -7    1.25    1.55
  -4  -8   7    2.65    1.40
  -4  -8   7    3.87    1.75
  -4  -8   7    4.44    1.35
   4  -8  -7    5.40    2.89
  -4   8   7    6.58    1.33
   4   8  -7    8.68    2.10
  -3  -8   7   -1.60    1.27
  -3  -8   7   -0.89    1.60
   3  -8  -7    0.07    1.41
  -3  -8   7   -2.23    1.37
   3  -8  -7   -1.94    2.52
  -3   8   7    0.98    1.50
  -3   8   7   -0.27    1.07
   3   8  -7   -3.07    1.84
  -2  -8   7   -0.48    1.39
  -2  -8   7   -0.65    1.56
   2  -8  -7    0.92    1.35
  -2  -8   7   -0.88    1.20
   2   8  -7    1.63    1.24
  -2   8   7    0.87    1.41
   1  -8  -7   -1.20    1.67
  -1  -8   7    0.09    1.47
   1  -8  -7    0.40    1.11
  -1  -8   7   -0.69    1.24
   1   8  -7    2.05    1.31
  -1   8   7    0.38    1.34
   0  -8   7   -0.88    1.54
   0  -8   7    0.19    1.19
   0  -8  -7   -0.77    1.57
   0  -8  -7    1.25    1.14
   0   8   7   -0.23    1.25
   0   8  -7    0.67    1.40
   1  -8   7    0.30    1.48
  -1  -8  -7    0.99    1.56
  -1  -8  -7    0.44    1.14
   1  -8   7   -1.45    1.22
   1   8   7   -0.37    1.23
  -1   8  -7   -0.75    1.48
  -2  -8  -7   -0.73    1.49
  -2  -8  -7    0.73    1.14
   2  -8   7   -0.31    1.25
  -2   8  -7   -0.40    1.54
   2   8   7    0.97    1.18
  -3  -8  -7    0.75    1.47
   3  -8   7    0.91    1.28
  -3  -8  -7    1.31    1.08
  -3   8  -7   -0.73    1.60
   3   8   7    0.09    1.74
  -4  -8  -7    1.07    1.14
   4  -8   7   -0.14    1.16
  -4  -8  -7    1.12    1.04
   4  -8   7   -0.79    2.30
   4   8   7   -0.77    1.31
   5  -8   7   -1.18    0.77
  -5  -8  -7    1.32    1.35
   5  -8   7    1.09    0.97
   5   8   7    0.47    1.80
   5  -9  -7    3.56    2.42
  -5  -9   7    2.00    1.02
  -5  -9   7    4.64    0.93
   5  -9  -7    3.78    1.19
  -5   9   7    6.51    1.25
   5   9  -7    4.64    1.67
  -4  -9   7    1.39    1.67
  -4  -9   7    2.57    1.23
   4  -9  -7    2.23    2.39
  -4  -9   7    3.11    1.31
   4   9  -7    2.47    1.62
  -4   9   7    4.39    1.19
  -3  -9   7    7.60    1.51
  -3  -9   7    7.31    1.51
   3  -9  -7    8.22    2.63
  -3   9   7   11.51    2.15
   3   9  -7    9.97    2.05
  -2  -9   7    6.44    1.82
  -2  -9   7    4.68    1.44
  -1  -9   7   16.30    3.09
   1  -9  -7   18.30    2.62
   1  -9  -7   19.44    2.94
  -1  -9   7   12.98    2.61
   1   9  -7   16.84    2.58
  -1   9   7   21.52    2.51
   0  -9   7    2.30    1.71
   0  -9  -7    3.04    1.24
   0  -9   7    1.15    1.21
   0  -9  -7    1.54    1.64
   0   9   7    3.98    1.40
   0   9  -7    2.11    1.45
   1  -9   7   11.88    2.47
  -1  -9  -7   11.57    2.28
   1  -9   7   10.85    2.05
  -1  -9  -7   12.54    2.61
   1   9   7   13.58    2.11
   2  -9   7   13.38    2.38
  -2  -9  -7    8.85    1.80
  -2  -9  -7   11.63    2.24
   2   9   7   12.83    2.00
   3  -9   7   20.55    2.69
  -3  -9  -7   14.35    2.23
  -3  -9  -7   15.86    2.32
   3   9   7   15.12    2.41
  -4  -9  -7    9.43    1.83
   4  -9   7    9.58    2.38
   4   9   7    5.36    1.96
  -5  -9  -7    9.41    1.23
  -4 -10   7    2.92    0.98
  -4  10   7   -0.76    0.83
   4  10  -7    1.01    1.42
   3 -10  -7    1.17    1.32
   3 -10  -7    6.19    2.04
  -3 -10   7    1.94    1.13
   3  10  -7    0.58    1.47
  -2 -10   7   -0.48    1.17
  -2 -10   7   -0.85    1.54
   2 -10  -7    0.75    1.29
  -2  10   7    2.20    1.39
  -1 -10   7   -1.51    1.21
   1 -10  -7    0.73    1.26
   1 -10  -7    0.44    1.59
  -1  10   7    0.91    1.29
   0 -10  -7   -0.18    1.11
   0 -10  -7   -0.12    1.55
   0 -10   7    0.77    1.68
   0 -10   7   -1.19    1.25
   0  10   7    2.13    1.12
  -1 -10  -7    0.07    1.00
   1 -10   7    0.93    1.69
  -1 -10  -7    0.46    1.14
   1 -10   7   -0.95    1.33
  -1  10  -7    1.23    1.34
   1  10   7    2.79    1.25
   2 -10   7   -1.42    1.40
  -2 -10  -7   -0.07    1.04
   2 -10   7    0.22    1.25
  -2 -10  -7    0.76    1.37
   2  10   7   -0.02    0.99
  -2  10  -7    0.45    1.39
  -3 -10  -7    2.11    0.94
   3 -10   7    1.88    1.13
   0 -11   7    7.63    1.66
   1 -11   7    4.81    1.43
   2 -11   7   12.41    2.20
   2  11   7   14.03    1.49
   8   0  -8   26.41    3.80
  -8   0   8   23.24    2.46
  -8   0   8   28.47    2.50
   7   0  -8   -1.26    2.43
  -7   0   8   -1.07    1.22
  -7   0   8   -0.84    1.74
   6   0  -8   18.75    3.31
  -6   0   8   10.69    2.07
  -6   0   8   16.31    2.05
   5   0  -8   -0.57    2.14
  -5   0   8   -0.50    0.75
  -5   0   8   -0.55    1.08
  -5   0   8   -1.78    1.04
  -4   0   8   56.56    3.69
  -4   0   8   57.01    3.95
   4   0  -8   51.78    3.62
   4   0  -8   57.97    4.49
  -4   0   8   52.33    3.55
  -4   0   8   46.24    4.04
   4   0  -8   47.70    3.90
  -3   0   8   -0.74    1.16
  -3   0   8   -0.45    0.91
  -3   0   8   -0.69    1.09
   3   0  -8    0.95    1.58
  -3   0   8   -0.77    0.82
   3   0  -8   -0.55    0.78
   2   0  -8   57.93    4.02
  -2   0   8   49.53    3.97
  -2   0   8   50.48    3.44
   2   0  -8   49.95    3.49
  -2   0   8   53.60    4.19
  -2   0   8   54.02    3.86
   2   0  -8   45.17    3.84
   1   0  -8   -0.12    1.45
  -1   0   8    0.83    1.09
  -1   0   8   -0.62    0.81
  -1   0   8   -0.15    0.76
  -1   0   8   -0.33    1.01
  -1   0   8   -1.41    0.82
   0   0   8   11.55    1.33
   0   0  -8   12.72    2.22
   0   0  -8   11.73    1.31
   0   0   8   12.84    1.81
   0   0   8   13.38    1.75
   0   0   8   10.65    1.98
   0   0   8   11.83    1.70
   0   0  -8   11.43    1.62
   1   0   8   -1.16    0.98
  -1   0  -8    1.31    1.48
   1   0   8   -0.04    0.86
   2   0   8   10.81    1.92
   2   0   8    9.05    1.62
   2   0   8    8.97    1.59
  -2   0  -8    8.52    1.52
  -2   0  -8    7.72    1.60
  -2   0  -8   13.01    2.47
   3   0   8    0.95    1.00
   3   0   8   -1.16    0.75
   3   0   8   -1.09    0.98
  -3   0  -8    1.83    1.49
  -3   0  -8   -1.74    1.08
   3   0   8   -0.06    0.78
   4   0   8    3.25    1.11
  -4   0  -8    3.51    1.57
  -4   0  -8    0.74    1.31
  -4   0  -8    0.03    1.77
   4   0   8    1.60    1.23
  -5   0  -8   -1.87    1.83
   5   0   8    0.53    1.27
   5   0   8    0.28    1.33
  -5   0  -8   -1.67    1.43
  -6   0  -8    3.11    1.67
   6   0   8    2.96    1.38
  -6   0  -8    0.19    2.01
   7   0   8   -1.00    1.19
  -7   0  -8    2.70    1.71
  -9   1   8    1.41    0.77
  -8  -1   8   -0.03    1.14
  -8   1   8    2.33    1.29
  -8   1   8    1.11    1.11
   8   1  -8    3.37    2.34
  -7  -1   8   15.32    2.17
   7  -1  -8   17.86    3.58
   7   1  -8   16.78    2.98
  -7   1   8   13.27    2.09
  -6  -1   8    4.39    1.34
  -6  -1   8    1.34    1.95
   6  -1  -8    6.75    2.40
  -6   1   8    3.77    1.23
   6   1  -8    6.21    2.50
   5  -1  -8   18.18    3.01
  -5  -1   8   16.33    1.99
  -5  -1   8   13.74    2.15
   5  -1  -8   16.18    1.55
  -5  -1   8   16.34    1.75
  -5   1   8   14.16    1.60
   5   1  -8   17.22    3.13
  -5   1   8   15.38    1.95
  -5   1   8   15.23    2.14
  -5   1   8   15.71    1.69
  -4  -1   8   34.06    2.46
  -4  -1   8   27.69    3.50
  -4  -1   8   34.11    2.48
   4  -1  -8   25.89    2.42
   4  -1  -8   32.95    3.23
   4   1  -8   30.25    3.32
  -4   1   8   29.80    2.39
  -4   1   8   28.23    2.73
   4   1  -8   28.60    2.31
  -4   1   8   22.24    2.72
  -3  -1   8   66.66    4.23
  -3  -1   8   55.08    5.17
   3  -1  -8   67.88    4.22
   3  -1  -8   64.05    4.84
  -3  -1   8   61.88    5.01
  -3  -1   8   69.09    4.58
   3  -1  -8   61.02    4.60
  -3   1   8   59.95    5.07
   3   1  -8   58.07    4.61
  -3   1   8   72.55    4.98
  -3   1   8   66.82    4.71
  -3   1   8   64.99    4.19
  -3   1   8   65.32    4.67
   3   1  -8   61.54    4.24
   3   1  -8   53.74    4.88
   2  -1  -8   53.70    4.39
   2  -1  -8   53.63    4.13
  -2  -1   8   60.21    3.76
   2  -1  -8   54.53    3.73
  -2  -1   8   57.95    4.06
  -2   1   8   48.85    4.47
  -2   1   8   61.80    4.44
  -2   1   8   60.16    4.21
   2   1  -8   53.10    3.75
  -2   1   8   58.21    3.69
   2   1  -8   50.42    4.32
   2   1  -8   60.61    4.44
  -2   1   8   52.49    4.11
   2   1  -8   51.84    4.08
  -1  -1   8  172.07   11.09
   1  -1  -8  165.55   11.08
  -1  -1   8  186.69   12.27
   1  -1  -8  186.24   12.43
   1  -1  -8  179.13   12.18
  -1  -1   8  155.80   13.17
  -1   1   8  192.43   13.11
  -1   1   8  168.32   13.09
  -1   1   8  183.14   11.06
  -1   1   8  179.49   12.12
   1   1  -8  185.03   13.10
   1   1  -8  161.73   11.10
   1   1  -8  191.90   12.14
  -1   1   8  192.59   12.35
   0  -1   8   53.55    4.57
   0  -1  -8   63.26    4.51
   0  -1   8   52.33    3.66
   0  -1  -8   55.80    4.12
   0  -1   8   56.16    4.06
   0   1   8   48.65    4.42
   0   1   8   52.95    4.11
   0   1  -8   62.29    4.38
   0   1  -8   54.23    3.97
   0   1   8   57.09    4.40
   0   1   8   51.86    4.07
   0   1  -8   52.22    3.62
   1  -1   8  324.60   22.77
   1  -1   8  320.08   21.41
  -1  -1  -8  329.95   21.52
  -1  -1  -8  330.00   21.11
   1  -1   8  296.39   19.30
   1   1   8  319.43   22.73
  -1   1  -8  354.39   22.77
   1   1   8  308.77   21.39
  -1   1  -8  275.94   19.27
  -1   1  -8  298.67   21.46
  -1   1  -8  326.74   21.62
   1   1   8  291.39   22.72
   1   1   8  285.86   21.03
  -1   1  -8  325.36   21.06
   2  -1   8  103.05    7.12
  -2  -1  -8   85.78    6.86
   2  -1   8   93.38    6.65
  -2  -1  -8   96.45    6.59
  -2   1  -8   87.78    6.86
  -2   1  -8  103.90    7.10
   2   1   8   90.43    7.04
   2   1   8   88.16    7.07
  -2   1  -8   96.99    6.97
   2   1   8   90.75    5.85
  -2   1  -8   95.36    6.47
   2   1   8   90.39    6.62
   3  -1   8  180.39   10.55
  -3  -1  -8  161.71   12.16
   3  -1   8  165.86   11.99
  -3  -1  -8  165.96   10.86
   3   1   8  186.50   10.55
   3   1   8  179.90   11.98
  -3   1  -8  167.58   12.19
  -3   1  -8  181.20   11.79
  -3   1  -8  179.34   12.40
   3   1   8  168.11   12.73
   3   1   8  174.58   10.57
  -4  -1  -8   70.90    5.00
  -4  -1  -8   71.39    6.04
   4  -1   8   72.52    4.75
   4  -1   8   79.64    4.83
   4   1   8   73.12    4.85
  -4   1  -8   68.43    5.97
   4   1   8   73.14    4.77
  -4   1  -8   71.37    4.51
   4   1   8   73.99    5.26
  -5  -1  -8   99.87    6.91
   5  -1   8  104.50    6.56
  -5  -1  -8  105.10    7.30
  -5  -1  -8   99.84    7.98
  -5   1  -8   96.04    7.99
  -5   1  -8   99.87    6.89
   5   1   8  102.06    6.62
  -5   1  -8   98.99    6.31
   5   1   8  103.07    6.55
   5   1   8  119.16    7.29
  -6  -1  -8   26.69    4.11
   6  -1   8   30.08    2.88
  -6  -1  -8   35.37    3.25
  -6   1  -8   33.61    3.22
   6   1   8   30.94    3.03
  -6   1  -8   26.05    4.02
   6   1   8   29.92    2.87
  -7  -1  -8   40.02    3.58
  -7   1  -8   41.43    3.54
   7   1   8   38.10    3.20
  -9   2   8    0.46    0.78
  -8  -2   8    2.48    1.14
   8   2  -8    3.32    2.46
  -8   2   8    1.55    1.24
  -8   2   8    2.19    1.21
  -7  -2   8    6.48    1.42
   7   2  -8    9.77    2.63
  -7   2   8    6.40    1.38
   6  -2  -8    1.13    2.38
  -6  -2   8   -0.01    1.24
  -6  -2   8   -0.57    1.77
   6   2  -8    2.34    2.44
  -6   2   8   -0.85    1.15
  -5  -2   8    1.47    1.21
   5  -2  -8    1.46    2.06
   5  -2  -8    1.61    2.08
  -5  -2   8    0.05    1.12
  -5  -2   8    0.00    1.70
   5  -2  -8    0.63    0.72
   5   2  -8    4.05    2.34
  -5   2   8    0.62    0.93
  -5   2   8   -1.38    1.10
  -4  -2   8    1.83    1.16
   4  -2  -8    0.25    0.83
  -4  -2   8   -0.58    1.11
  -4  -2   8   -1.10    1.62
   4  -2  -8   -0.26    1.96
  -4  -2   8    0.46    1.03
   4  -2  -8    1.85    1.82
  -4   2   8    0.66    0.96
  -4   2   8    1.43    1.13
  -4   2   8    0.74    0.98
   4   2  -8    0.40    0.78
  -4   2   8    1.51    0.86
  -4   2   8    1.32    0.74
   4   2  -8    2.43    2.05
   4   2  -8   -0.15    0.73
  -3  -2   8   32.43    2.66
  -3  -2   8   24.57    3.11
   3  -2  -8   26.90    2.52
  -3  -2   8   32.84    2.51
  -3  -2   8   29.37    3.63
  -3  -2   8   36.62    2.56
  -3   2   8   28.06    2.96
   3   2  -8   25.76    2.35
  -3   2   8   31.45    2.38
   3   2  -8   32.67    2.75
  -3   2   8   30.82    2.70
   3   2  -8   33.26    2.61
   3   2  -8   29.75    3.24
  -3   2   8   32.39    2.79
  -2  -2   8   -0.36    1.33
  -2  -2   8    0.54    0.71
   2  -2  -8   -1.33    0.94
  -2  -2   8   -0.39    1.13
   2  -2  -8    0.52    0.73
   2  -2  -8   -0.74    1.30
  -2  -2   8    0.50    0.89
   2  -2  -8    2.41    1.55
  -2   2   8   -1.32    0.82
  -2   2   8   -0.75    0.71
  -2   2   8   -0.17    0.92
  -2   2   8   -0.95    1.01
   2   2  -8    0.58    0.86
   2   2  -8    0.35    0.71
   2   2  -8    0.05    0.78
  -1  -2   8    1.02    0.89
   1  -2  -8    2.41    1.52
  -1  -2   8    1.42    0.72
  -1  -2   8    0.27    1.14
  -1  -2   8    0.14    1.13
   1  -2  -8   -1.53    0.97
   1  -2  -8    0.05    0.73
   1   2  -8    0.45    0.79
  -1   2   8    0.55    0.96
  -1   2   8   -0.87    0.83
  -1   2   8   -0.04    0.92
   1   2  -8    0.12    0.66
  -1   2   8    0.07    0.68
   1   2  -8    0.52    0.74
   0  -2   8    8.75    1.71
   0  -2   8    9.23    1.37
   0  -2  -8    6.96    1.65
   0  -2   8    5.94    1.33
   0  -2   8    6.62    1.08
   0  -2  -8    9.20    1.64
   0  -2  -8   11.20    2.21
   0  -2   8    9.28    1.16
   0   2  -8    7.84    1.26
   0   2  -8   10.40    1.41
   0   2  -8    9.25    1.28
   0   2   8    8.62    1.69
   0   2   8    8.11    1.61
   0   2   8    9.25    1.52
   0   2  -8   12.12    1.69
   1  -2   8   13.16    1.58
   1  -2   8   14.85    1.72
   1  -2   8   15.15    1.67
  -1  -2  -8   12.17    2.27
  -1  -2  -8   13.65    2.43
  -1  -2  -8   13.43    1.87
   1  -2   8   15.43    2.19
  -1   2  -8   18.30    2.23
   1   2   8   14.29    1.78
   1   2   8   15.04    1.75
   1   2   8   11.36    1.94
  -1   2  -8   16.60    1.53
  -1   2  -8   16.74    1.73
  -1   2  -8   13.86    1.33
   2  -2   8   71.29    5.01
  -2  -2  -8   61.64    5.21
   2  -2   8   72.88    5.34
  -2   2  -8   76.38    5.27
   2   2   8   64.63    4.89
  -2   2  -8   63.54    4.39
   2   2   8   71.02    4.49
   2   2   8   66.48    5.30
  -2   2  -8   68.11    5.36
   2   2   8   61.72    5.33
   2   2   8   71.62    4.96
  -2   2  -8   71.41    4.81
  -3  -2  -8   -0.10    1.41
  -3  -2  -8    2.14    1.11
   3  -2   8    3.03    1.02
   3  -2   8    3.45    1.05
   3   2   8    2.32    0.88
  -3   2  -8    2.87    0.65
   3   2   8    4.04    1.07
  -3   2  -8    1.95    0.73
   3   2   8    2.04    1.23
  -3   2  -8    3.74    0.75
  -3   2  -8    2.71    1.64
  -3   2  -8    2.93    1.58
   4  -2   8    2.28    1.12
  -4  -2  -8    0.60    1.42
  -4  -2  -8    2.57    1.35
  -4   2  -8    2.44    1.81
   4   2   8    1.78    1.32
   4   2   8    2.64    1.16
   4   2   8    2.00    0.87
  -4   2  -8    1.60    0.55
  -5  -2  -8    1.22    1.42
  -5  -2  -8    1.50    1.62
   5  -2   8    3.25    1.25
  -5   2  -8    1.62    0.40
   5   2   8    1.19    1.51
  -5   2  -8    1.34    0.35
  -5   2  -8    2.40    1.97
   5   2   8    3.71    1.28
  -6  -2  -8   -0.55    1.97
  -6  -2  -8    0.57    1.75
   6  -2   8    2.17    1.39
  -6   2  -8   -0.61    1.60
   6   2   8    0.29    1.65
   6   2   8    2.12    1.39
  -6   2  -8   -0.92    2.02
  -7  -2  -8   -0.36    1.24
   7  -2   8    0.29    1.23
  -7  -2  -8   -0.97    1.92
  -7   2  -8   -0.80    1.09
   7   2   8    3.29    1.37
   7   2   8    0.04    1.07
  -7  -3   8    0.95    1.42
   7   3  -8    2.19    2.39
  -7   3   8    0.95    1.23
   6  -3  -8   20.46    3.78
  -6  -3   8   22.06    2.50
   6   3  -8   22.77    3.60
  -6   3   8   20.30    2.35
   5  -3  -8    0.50    0.61
  -5  -3   8   -0.17    1.31
   5  -3  -8    2.48    2.08
  -5  -3   8   -0.49    1.69
  -5   3   8   -0.76    1.10
  -5   3   8   -0.05    1.17
   5   3  -8    2.10    2.25
  -5   3   8   -0.83    0.83
  -4  -3   8   19.59    3.34
  -4  -3   8   31.07    2.45
   4  -3  -8   25.19    3.13
   4  -3  -8   26.95    2.20
   4   3  -8   18.95    3.22
  -4   3   8   29.26    2.26
   4   3  -8   21.63    2.09
   4   3  -8   23.72    2.34
  -4   3   8   26.62    2.51
  -3  -3   8    0.11    1.43
   3  -3  -8   -0.84    1.31
   3  -3  -8    1.79    0.88
  -3  -3   8    0.10    1.17
  -3  -3   8    1.80    1.06
   3   3  -8    1.11    0.92
  -3   3   8   -0.16    1.08
   3   3  -8    0.25    0.79
  -3   3   8    1.38    0.75
   3   3  -8    0.59    0.68
   3   3  -8    1.81    1.97
  -3   3   8    1.23    0.87
   2  -3  -8   46.18    4.08
   2  -3  -8   43.68    3.49
   2  -3  -8   46.15    4.06
  -2  -3   8   46.40    3.27
  -2  -3   8   41.67    4.10
  -2   3   8   48.27    3.66
  -2   3   8   47.91    3.14
   2   3  -8   49.12    3.50
   2   3  -8   45.55    3.30
  -2   3   8   44.40    3.59
  -2   3   8   49.53    3.80
   2   3  -8   47.62    3.69
  -1  -3   8    1.18    0.99
   1  -3  -8   -0.33    1.57
   1  -3  -8   -1.06    1.17
  -1  -3   8    1.50    0.73
   1  -3  -8    0.21    0.94
  -1  -3   8    0.18    1.08
  -1  -3   8    0.45    1.09
   1   3  -8    1.22    0.78
  -1   3   8    0.29    0.91
   1   3  -8    0.72    0.61
   1   3  -8    1.05    0.79
  -1   3   8   -0.23    0.97
  -1   3   8    0.04    0.78
   0  -3   8   86.42    5.74
   0  -3   8   87.80    6.24
   0  -3   8   89.45    6.80
   0  -3   8  101.12    6.61
   0  -3  -8   87.80    6.24
   0  -3  -8   82.59    6.57
   0  -3  -8   84.20    6.82
   0   3  -8   91.99    6.62
   0   3  -8   81.09    5.66
   0   3  -8   96.93    6.42
   0   3   8   85.78    6.21
   0   3   8   85.73    6.68
   0   3   8   91.97    6.32
  -1  -3  -8    4.59    1.51
   1  -3   8    7.13    1.29
   1  -3   8    9.01    1.62
   1  -3   8    7.40    1.33
   1  -3   8    9.16    1.94
  -1  -3  -8    6.11    1.17
  -1  -3  -8    4.98    1.31
  -1   3  -8    6.60    1.12
   1   3   8    8.58    1.46
  -1   3  -8    9.11    1.33
   1   3   8    7.57    1.63
  -1   3  -8   10.76    2.05
   1   3   8    6.92    1.18
   2  -3   8  161.70   12.44
  -2  -3  -8  165.32   13.24
   2  -3   8  175.28   12.36
   2  -3   8  203.03   13.19
  -2  -3  -8  177.48   12.51
  -2   3  -8  181.80   12.66
  -2   3  -8  169.29   11.14
  -2   3  -8  197.25   13.11
   2   3   8  175.82   13.12
   2   3   8  192.36   12.37
   2   3   8  174.15   12.17
  -3  -3  -8   -0.18    1.30
   3  -3   8    0.90    1.06
  -3   3  -8    0.25    0.60
  -3   3  -8    0.66    1.69
   3   3   8    0.44    1.02
   3   3   8   -0.59    0.81
   3   3   8   -0.64    1.40
   4  -3   8  159.19    9.63
  -4  -3  -8  145.41    9.99
  -4  -3  -8  147.48   11.05
   4   3   8  166.25    9.62
  -4   3  -8  148.49    9.79
   4   3   8  171.86   10.93
  -4   3  -8  155.19   11.41
   4   3   8  164.33    9.80
  -5  -3  -8    5.49    1.65
   5  -3   8    4.88    1.81
   5  -3   8    5.27    1.30
  -5  -3  -8    3.23    1.51
   5   3   8    4.97    1.29
   5   3   8    2.92    1.62
  -5   3  -8    3.21    2.01
  -6  -3  -8  106.35    8.12
  -6  -3  -8  117.64    7.58
   6  -3   8  122.55    8.15
   6  -3   8  112.82    7.14
  -6   3  -8  100.81    8.64
   6   3   8  106.15    7.09
   6   3   8  114.26    7.33
   7  -3   8    4.08    1.33
  -7  -3  -8    4.27    2.01
  -7  -3  -8    4.30    1.76
  -7   3  -8    0.77    2.00
   7   3   8    1.74    1.61
   7   3   8    4.13    1.27
  -8  -4   8    2.86    1.05
   7  -4  -8    2.09    2.32
  -7  -4   8    3.69    1.42
  -7   4   8    3.19    1.13
   7   4  -8    5.23    2.38
  -6  -4   8   -1.06    1.74
  -6  -4   8    4.07    1.48
   6  -4  -8    3.12    2.39
  -6   4   8    2.51    1.30
  -6   4   8    2.48    1.35
   6   4  -8    6.51    2.46
   5  -4  -8   -1.05    1.44
   5  -4  -8    2.86    2.27
  -5  -4   8   -1.85    1.65
  -5  -4   8   -0.02    1.31
  -5   4   8   -0.89    1.22
   5   4  -8    2.16    2.25
  -5   4   8   -1.01    1.11
  -4  -4   8    1.33    1.22
  -4  -4   8   -0.21    1.12
   4  -4  -8    1.79    0.72
   4  -4  -8   -1.25    1.27
   4  -4  -8   -0.62    2.02
  -4  -4   8   -0.48    1.54
  -4   4   8   -0.01    1.17
   4   4  -8    1.21    0.74
   4   4  -8   -0.81    0.54
   4   4  -8    2.43    2.11
  -4   4   8   -0.20    1.01
  -3  -4   8   19.81    3.31
  -3  -4   8   30.77    2.47
   3  -4  -8   27.15    3.36
   3  -4  -8   26.80    2.34
   3  -4  -8   31.48    3.15
   3   4  -8   21.98    2.45
   3   4  -8   26.13    2.36
  -3   4   8   28.46    2.24
  -3   4   8   29.33    2.67
   3   4  -8   25.66    2.20
  -3   4   8   31.98    2.54
   2  -4  -8    0.84    0.89
  -2  -4   8    1.62    1.09
   2  -4  -8   -1.75    1.22
   2  -4  -8   -0.15    1.78
  -2  -4   8   -0.60    1.13
  -2  -4   8    0.14    1.28
   2   4  -8    1.26    0.79
   2   4  -8    0.61    0.64
  -2   4   8    0.06    0.78
  -2   4   8   -0.15    1.12
   2   4  -8   -0.35    0.80
  -2   4   8    1.04    0.79
  -1  -4   8   -1.29    1.12
  -1  -4   8    0.04    1.06
  -1  -4   8    0.01    0.62
   1  -4  -8   -1.08    0.86
   1  -4  -8   -1.65    1.65
   1  -4  -8   -0.97    1.14
  -1  -4   8    0.22    1.14
  -1   4   8   -1.36    1.08
   1   4  -8    1.06    0.79
  -1   4   8    0.04    0.82
  -1   4   8    0.24    0.77
   1   4  -8   -0.76    0.63
   0  -4   8   15.22    2.34
   0  -4   8   14.12    1.59
   0  -4   8   15.72    2.17
   0  -4  -8   11.57    2.22
   0  -4   8   14.90    1.60
   0  -4  -8   13.96    1.80
   0  -4  -8   13.51    1.71
   0  -4   8   14.04    1.82
   0   4  -8   14.28    1.50
   0   4   8   15.54    1.73
   0   4  -8   16.27    1.63
   0   4  -8   18.55    2.28
   0   4   8   14.67    1.88
   0   4   8   13.26    2.01
   0   4   8   11.54    1.82
  -1  -4  -8    3.81    1.48
  -1  -4  -8    4.84    1.02
   1  -4   8    2.78    0.79
  -1  -4  -8    2.68    1.27
   1  -4   8    2.45    1.16
   1   4   8    5.48    0.95
   1   4   8    4.36    1.00
   1   4   8    4.70    0.92
  -1   4  -8    4.28    1.44
  -1   4  -8    4.75    0.78
   1   4   8    4.68    1.12
  -2  -4  -8   13.57    2.42
   2  -4   8   15.46    1.81
  -2  -4  -8   14.98    1.73
  -2  -4  -8   17.30    2.54
   2  -4   8   15.37    1.79
   2  -4   8   14.90    1.91
   2  -4   8   21.13    2.34
   2   4   8   14.14    1.95
  -2   4  -8   21.03    2.88
   2   4   8   16.74    1.98
  -2   4  -8   18.56    1.74
   2   4   8   16.07    1.54
   2   4   8   20.35    1.87
   2   4   8   14.64    1.96
  -2   4  -8   18.30    1.53
   3  -4   8    5.08    1.18
  -3  -4  -8    3.32    1.50
   3  -4   8    5.68    1.12
   3   4   8    5.28    1.57
  -3   4  -8    4.95    1.78
   3   4   8    5.29    0.86
  -3   4  -8    5.91    1.01
   3   4   8    5.56    1.03
   3   4   8    4.55    0.88
  -4  -4  -8   21.73    2.79
   4  -4   8   26.09    2.94
   4  -4   8   23.23    2.32
  -4   4  -8   21.65    3.65
   4   4   8   21.34    2.79
   5  -4   8    1.93    1.83
  -5  -4  -8    0.81    1.44
   5  -4   8    2.66    1.26
   5   4   8    1.34    1.17
  -5   4  -8   -0.39    2.01
   5   4   8    0.80    1.70
  -6  -4  -8   -0.52    1.36
   6  -4   8   -0.79    1.85
   6  -4   8    0.55    1.31
   6   4   8   -2.20    1.79
   6   4   8    0.96    1.21
  -6   4  -8   -2.27    2.04
   7  -4   8   -0.49    1.49
   7  -4   8    1.65    1.22
   7   4   8   -0.64    1.60
  -7   4  -8   -2.97    1.99
   7   4   8    1.82    0.95
  -7  -5   8    5.28    1.37
   7   5  -8    8.37    2.41
  -7   5   8    6.13    1.32
   6  -5  -8    1.20    2.50
  -6  -5   8    0.69    1.43
  -6  -5   8   -1.81    1.71
   6   5  -8    3.83    2.44
  -6   5   8    0.97    1.28
  -6   5   8    2.71    1.30
  -5  -5   8   25.33    2.59
   5  -5  -8   18.54    3.99
  -5   5   8   24.81    2.68
   5   5  -8   22.16    3.54
  -5   5   8   21.74    2.40
   4  -5  -8    7.17    2.34
   4  -5  -8    6.85    1.65
  -4  -5   8    9.05    1.43
   4   5  -8   11.41    2.33
  -4   5   8    8.82    1.61
  -4   5   8   11.03    1.76
   3  -5  -8   64.13    5.82
  -3  -5   8   72.45    4.72
  -3  -5   8   58.56    5.66
   3  -5  -8   75.47    5.64
  -3   5   8   71.65    4.60
   3   5  -8   66.63    4.91
  -3   5   8   70.05    5.27
  -3   5   8   74.07    5.15
   3   5  -8   65.24    5.26
  -2  -5   8   12.88    2.33
   2  -5  -8   13.15    2.46
   2  -5  -8   15.05    1.62
  -2  -5   8   12.48    2.64
  -2  -5   8   14.32    1.92
  -2   5   8   17.06    1.81
  -2   5   8   17.82    2.22
   2   5  -8   12.89    1.50
  -2   5   8   13.51    2.10
   2   5  -8   13.63    1.57
  -2   5   8   14.80    1.59
   1  -5  -8   80.54    5.57
   1  -5  -8   78.34    5.79
  -1  -5   8   72.39    6.12
   1  -5  -8   77.56    6.10
   1  -5  -8   80.63    6.21
  -1  -5   8   81.64    5.26
  -1  -5   8   84.41    5.62
   1   5  -8   74.90    5.90
  -1   5   8   77.52    5.64
  -1   5   8   81.83    6.00
  -1   5   8   80.14    5.68
  -1   5   8   76.82    6.02
   1   5  -8   83.49    5.85
   1   5  -8   67.11    5.82
   1   5  -8   82.13    5.16
   0  -5  -8   16.58    2.48
   0  -5   8   21.30    2.23
   0  -5   8   19.22    1.82
   0  -5   8   16.76    2.50
   0  -5  -8   18.60    1.83
   0  -5  -8   15.09    2.08
   0  -5   8   17.12    2.50
   0  -5  -8   12.56    2.66
   0   5   8   20.28    2.02
   0   5   8   16.08    2.13
   0   5  -8   16.86    1.75
   0   5  -8   16.66    1.62
   0   5   8   18.67    2.25
   0   5  -8   19.38    1.82
   0   5  -8   19.40    2.41
   0   5   8   17.97    1.93
   1  -5   8  139.56    9.64
  -1  -5  -8  142.72    9.42
   1  -5   8  133.05    9.52
  -1  -5  -8  125.19    9.66
  -1  -5  -8  136.86   10.27
   1  -5   8  148.32   10.28
  -1  -5  -8  150.48    9.80
   1   5   8  137.20   10.16
   1   5   8  136.20    9.46
   1   5   8  137.25    8.56
  -1   5  -8  146.03    8.65
   1   5   8  140.72    9.59
  -1   5  -8  135.58   10.11
  -1   5  -8  132.26    9.84
   1   5   8  123.52   10.00
   2  -5   8    4.80    1.06
   2  -5   8    4.57    1.21
  -2  -5  -8    0.83    1.50
  -2  -5  -8    1.96    1.26
  -2  -5  -8    5.50    0.89
   2  -5   8    3.45    0.80
   2   5   8    4.81    0.79
   2   5   8    3.38    0.98
  -2   5  -8    6.64    1.67
   2   5   8    5.10    0.90
   2   5   8    4.08    1.17
  -2   5  -8    5.31    0.96
   3  -5   8   59.80    4.45
  -3  -5  -8   52.53    4.41
   3  -5   8   63.21    4.52
   3  -5   8   55.40    3.68
  -3  -5  -8   46.99    4.51
   3   5   8   55.45    4.24
  -3   5  -8   50.06    4.75
   3   5   8   56.55    4.16
   3   5   8   51.09    3.62
  -3   5  -8   49.14    4.11
  -4  -5  -8    2.98    1.53
   4  -5   8    4.85    1.25
  -4   5  -8    4.22    1.97
   4   5   8    2.35    1.79
  -5  -5  -8   65.53    5.12
   5  -5   8   77.52    5.43
   5  -5   8   65.45    4.45
  -5   5  -8   54.86    5.71
   5   5   8   61.12    4.90
   6  -5   8   -0.24    1.32
  -6  -5  -8    0.66    1.35
   6  -5   8    0.17    1.93
   6   5   8   -1.52    1.47
   7  -5   8   10.23    1.94
  -7  -5  -8   13.89    1.66
   7  -6  -8    0.50    2.00
  -7  -6   8   -1.63    0.89
  -6  -6   8    1.12    1.27
   6  -6  -8   -0.72    2.48
   6   6  -8   -0.17    1.65
  -6   6   8    3.03    1.38
  -6   6   8    1.55    1.21
  -5  -6   8    4.03    1.44
  -5  -6   8    1.26    1.80
   5  -6  -8   -0.31    2.58
  -5   6   8    3.99    1.53
   5   6  -8    5.75    2.25
  -5   6   8    3.37    1.26
   4  -6  -8    5.88    2.60
   4  -6  -8    5.79    1.61
  -4  -6   8    7.18    1.40
   4   6  -8    7.83    2.25
  -4   6   8    9.55    1.67
  -4   6   8    6.80    1.30
  -3  -6   8    3.12    1.26
   3  -6  -8    2.91    1.40
  -3  -6   8    0.56    1.62
   3  -6  -8    4.39    2.43
  -3   6   8    4.45    1.06
  -3   6   8    3.94    1.42
  -2  -6   8    4.69    0.81
  -2  -6   8    4.32    1.34
   2  -6  -8    3.97    1.41
  -2  -6   8    2.45    1.59
  -2   6   8    5.84    0.96
  -2   6   8    6.58    1.41
  -1  -6   8    0.97    1.45
  -1  -6   8    2.51    1.29
   1  -6  -8    2.03    1.28
  -1  -6   8    1.38    1.20
   1  -6  -8    0.84    1.86
  -1  -6   8    2.61    0.77
  -1   6   8    3.00    1.25
  -1   6   8    3.42    0.92
   1   6  -8    2.39    1.29
   1   6  -8    2.59    0.65
   0  -6   8    8.26    1.46
   0  -6  -8    6.27    1.22
   0  -6   8    7.24    1.41
   0  -6  -8    7.91    1.83
   0  -6  -8   10.14    2.22
   0  -6   8    9.25    1.57
   0   6  -8    7.32    1.58
   0   6   8   10.67    1.88
   0   6  -8   11.05    1.34
   1  -6   8    2.20    0.84
  -1  -6  -8    3.85    1.29
   1  -6   8    4.54    1.27
  -1  -6  -8    2.38    1.62
  -1  -6  -8    3.76    0.88
   1  -6   8    3.77    1.25
   1   6   8    4.65    0.78
   1   6   8    5.18    1.26
   1   6   8    7.49    1.52
  -1   6  -8    4.36    1.58
   2  -6   8    2.88    1.25
  -2  -6  -8    2.51    1.25
  -2  -6  -8    2.17    1.59
   2  -6   8    4.12    1.00
   2   6   8    3.44    0.86
   2   6   8    3.27    0.72
   2   6   8    2.83    1.17
  -2   6  -8    4.58    1.72
   3  -6   8    7.83    1.36
   3  -6   8    8.89    1.23
  -3  -6  -8    6.02    1.38
   3  -6   8    9.07    2.01
  -3  -6  -8    9.24    1.67
   3   6   8    7.83    1.26
   3   6   8    6.89    1.84
  -3   6  -8    5.95    1.93
   4  -6   8    4.62    1.19
  -4  -6  -8    4.57    1.50
   4  -6   8    4.06    2.05
   4  -6   8    2.94    1.21
   4   6   8    1.59    1.87
  -4   6  -8    3.92    1.93
   5  -6   8   -0.84    1.21
   5  -6   8   -1.77    1.98
  -5  -6  -8    1.15    1.45
   5   6   8   -0.55    1.87
  -5   6  -8   -0.12    1.95
  -6  -6  -8    3.46    1.18
   6  -6   8    1.29    1.00
   6  -6   8    1.67    1.89
   6   6   8    1.45    1.73
  -6   6  -8   -2.37    1.82
  -6  -7   8    1.38    1.73
   6  -7  -8   -1.49    2.29
  -6  -7   8    0.86    1.26
   6   7  -8    4.57    2.08
  -5  -7   8    3.13    1.49
   5  -7  -8    6.11    1.66
   5  -7  -8    4.23    2.60
  -5   7   8    6.60    1.38
   5   7  -8    6.62    2.19
  -5   7   8   11.48    2.32
   4  -7  -8   12.53    2.99
  -4  -7   8   12.01    2.08
  -4  -7   8    9.95    2.05
   4   7  -8   11.79    2.23
  -4   7   8   15.68    1.98
   3  -7  -8    4.76    1.57
  -3  -7   8    4.56    1.40
   3  -7  -8    4.43    2.60
  -3  -7   8    1.15    1.73
  -3   7   8    4.93    1.13
   3   7  -8   -0.57    2.14
  -3   7   8    7.90    1.60
   2  -7  -8   19.02    2.77
  -2  -7   8   16.30    2.26
  -2   7   8   20.28    2.39
   2   7  -8   15.85    2.55
  -1  -7   8    2.17    1.24
  -1  -7   8    3.03    1.57
   1  -7  -8    3.57    0.92
   1  -7  -8    5.95    1.37
   1  -7  -8    1.90    1.86
  -1  -7   8    7.10    1.45
  -1   7   8    6.61    1.45
   1   7  -8    4.63    1.39
   0  -7   8   13.57    2.53
   0  -7   8   16.29    2.70
   0  -7  -8   19.28    2.48
   0  -7  -8   16.65    2.78
   0   7  -8   15.92    2.74
   0   7   8   18.70    2.25
   1  -7   8   19.60    2.55
  -1  -7  -8   17.56    2.56
   1  -7   8   23.69    2.75
  -1  -7  -8   16.11    2.78
  -1   7  -8   17.32    2.90
   1   7   8   19.19    2.30
  -1   7  -8   16.85    1.66
  -2  -7  -8   34.55    3.38
  -2  -7  -8   32.16    3.33
   2  -7   8   38.01    3.41
   2   7   8   34.73    2.98
  -2   7  -8   26.28    3.67
   3  -7   8    1.85    1.04
   3  -7   8    2.02    1.27
  -3  -7  -8    1.52    1.21
  -3  -7  -8    1.71    1.56
  -3   7  -8    0.80    1.83
   3   7   8    3.03    1.75
  -4  -7  -8   28.85    3.01
   4  -7   8   33.06    2.97
  -4  -7  -8   23.54    2.86
   4  -7   8   27.05    2.41
   4  -7   8   30.99    3.68
  -4   7  -8   19.65    3.53
   4   7   8   23.66    3.21
   5  -7   8   11.72    1.91
  -5  -7  -8   13.70    2.09
   5  -7   8   13.89    2.37
   5   7   8    8.95    2.10
   6  -7   8   23.16    3.00
   6  -7   8   21.29    1.96
  -5  -8   8   -1.97    1.19
  -5  -8   8    0.04    1.02
  -5  -8   8   -1.37    1.62
   5  -8  -8    2.21    1.44
  -5   8   8    2.42    1.43
  -5   8   8    1.17    0.97
   5   8  -8    1.11    1.89
  -4  -8   8   -2.15    1.56
  -4  -8   8   -1.25    1.36
   4  -8  -8    0.87    1.53
   4  -8  -8    0.71    2.69
  -4  -8   8   -0.54    1.23
  -4   8   8    2.90    1.54
   4   8  -8    1.40    1.85
  -4   8   8    1.69    1.17
  -3  -8   8   -1.36    1.38
   3  -8  -8    0.15    1.49
  -3  -8   8   -1.25    1.66
   3  -8  -8    0.62    2.64
  -3  -8   8   -0.65    1.26
  -3   8   8    0.87    1.51
   3   8  -8   -2.79    1.98
   2  -8  -8    0.69    1.41
  -2  -8   8   -1.67    1.62
   2  -8  -8    0.69    1.92
  -2  -8   8   -1.37    1.30
   2   8  -8    0.60    1.26
  -2   8   8    0.64    1.44
   1  -8  -8    0.51    1.84
   1  -8  -8    1.26    1.20
  -1  -8   8   -1.01    1.54
  -1  -8   8   -0.96    1.19
  -1   8   8    0.31    1.37
   1   8  -8    1.85    1.34
   0  -8  -8    0.25    1.19
   0  -8  -8   -0.54    1.75
   0  -8   8   -1.57    1.20
   0  -8   8   -0.79    1.52
   0   8   8    0.98    1.32
   0   8  -8    1.63    1.50
   1  -8   8    5.04    1.40
  -1  -8  -8    6.72    1.38
   1  -8   8    6.44    1.64
  -1  -8  -8    5.34    1.76
   1   8   8    6.79    1.40
  -1   8  -8    4.41    1.70
   2  -8   8   -0.92    1.23
  -2  -8  -8    1.38    1.22
  -2  -8  -8    1.01    1.60
   2   8   8    0.61    1.22
  -2   8  -8   -0.99    1.62
  -3  -8  -8    2.38    1.21
  -3  -8  -8    3.27    1.54
   3  -8   8    1.48    1.30
  -3   8  -8    0.06    1.70
   3   8   8    2.06    1.67
  -4  -8  -8    1.23    1.02
   4  -8   8   -0.10    1.12
  -4  -8  -8   -0.46    1.36
   4  -8   8   -0.64    2.13
   4   8   8   -0.51    1.71
  -4   8  -8   -2.64    1.74
   5  -8   8    1.47    1.89
   5  -8   8    4.07    0.78
   5  -9  -8    2.41    1.14
  -5   9   8    1.93    0.88
  -4  -9   8    6.50    1.93
  -4  -9   8    6.75    1.39
   4  -9  -8    6.20    1.43
   4   9  -8    9.66    2.06
  -3  -9   8   -0.72    1.31
  -3  -9   8   -1.98    1.53
   3  -9  -8    0.33    1.42
   3  -9  -8    0.76    2.40
  -3  -9   8   -2.45    1.34
  -3   9   8    0.81    1.45
   3   9  -8   -1.08    1.82
  -2  -9   8    1.36    1.66
   2  -9  -8    2.39    1.40
  -2  -9   8    1.68    1.39
  -1  -9   8    3.60    1.69
   1  -9  -8    5.12    1.89
   1  -9  -8    2.96    1.45
  -1  -9   8    1.08    1.29
   1   9  -8    4.75    1.37
  -1   9   8    6.51    1.54
   0  -9   8   10.89    2.51
   0  -9  -8   13.39    2.47
   0  -9   8   14.53    2.99
   0  -9  -8   15.97    2.83
   0   9  -8   12.84    2.60
   0   9   8   18.28    2.37
  -1  -9  -8    7.71    1.48
   1  -9   8    7.11    1.54
  -1  -9  -8    9.54    1.88
   1  -9   8   10.36    1.86
   1   9   8   12.47    2.01
  -1   9  -8    5.58    1.70
   2  -9   8    8.34    1.54
  -2  -9  -8    5.16    1.49
  -2  -9  -8    7.20    1.41
   2   9   8    9.44    1.87
  -3  -9  -8    5.02    1.26
  -3  -9  -8    6.02    1.59
   3  -9   8    4.16    1.30
  -3   9  -8    2.88    1.67
   3   9   8    6.94    1.72
   4  -9   8    5.22    2.06
  -4  10   8    2.55    0.70
  -3 -10   8    1.37    1.11
   3 -10  -8    2.54    1.48
   3 -10  -8    5.01    1.88
   3  10  -8    1.55    1.52
  -2 -10   8    0.35    1.21
  -2 -10   8    0.38    1.54
   2 -10  -8    1.46    1.32
  -2  10   8    3.12    1.53
  -1 -10   8   -2.09    1.50
   1 -10  -8    3.51    1.58
   1 -10  -8    1.20    1.28
  -1 -10   8   -0.76    1.32
  -1  10   8    0.86    1.32
   0 -10   8    2.25    1.53
   0 -10  -8    3.55    1.32
   0 -10   8    2.55    1.40
   0 -10  -8    5.22    1.59
   0  10  -8    3.75    1.39
  -1 -10  -8    1.36    1.50
  -1 -10  -8    1.06    1.10
   1 -10   8    0.37    1.51
   1 -10   8    0.42    1.35
   1  10   8    1.66    0.91
  -1  10  -8    1.70    1.38
  -2 -10  -8    3.76    1.13
   2 -10   8    3.83    1.27
   2 -10   8    1.79    1.35
   2  10   8    4.19    1.06
  -3 -10  -8    1.89    0.92
   1 -11  -8   26.08    2.50
   1 -11   8   19.13    2.53
   8   0  -9    4.98    2.37
  -8   0   9    0.60    1.13
  -7   0   9    8.91    1.52
   7   0  -9   12.63    2.80
  -6   0   9    0.60    1.71
  -6   0   9   -0.82    1.17
   6   0  -9    1.86    2.44
  -5   0   9   22.15    1.86
  -5   0   9   25.46    2.29
  -5   0   9   17.65    2.35
   5   0  -9   26.39    3.43
  -4   0   9   -0.97    0.90
  -4   0   9   -1.12    1.36
  -4   0   9   -0.94    1.23
   4   0  -9    0.51    0.77
   4   0  -9    2.01    2.08
  -4   0   9   -0.51    1.05
   3   0  -9   18.84    2.29
   3   0  -9   26.39    2.12
  -3   0   9   26.12    2.32
  -3   0   9   24.78    2.12
   3   0  -9   25.36    2.81
  -3   0   9   27.28    2.55
  -3   0   9   21.51    2.59
  -2   0   9   -0.11    0.86
   2   0  -9   -0.01    1.64
  -2   0   9   -1.04    0.85
   2   0  -9   -0.99    0.96
   2   0  -9   -0.80    0.81
  -2   0   9    0.13    1.22
  -2   0   9    0.13    0.91
  -2   0   9   -0.22    1.07
   1   0  -9   13.04    1.82
   1   0  -9   13.08    2.36
  -1   0   9   15.66    1.49
  -1   0   9   11.78    2.23
  -1   0   9   14.82    1.82
   1   0  -9   10.57    1.42
  -1   0   9   12.33    1.94
  -1   0   9   12.50    1.89
   0   0  -9    0.53    0.69
   0   0  -9    1.55    1.57
   0   0   9    0.35    1.14
   0   0   9    0.28    0.85
   0   0   9   -0.15    1.04
   0   0   9    0.14    0.94
   0   0  -9   -0.75    0.98
   0   0   9   -0.62    0.81
  -1   0  -9   58.18    4.55
   1   0   9   53.32    4.62
   1   0   9   58.05    4.53
  -1   0  -9   49.77    3.70
  -1   0  -9   56.36    4.22
  -1   0  -9   62.87    4.67
   1   0   9   60.25    4.31
  -2   0  -9   -2.01    1.45
   2   0   9   -0.62    0.78
   2   0   9   -0.22    1.04
  -2   0  -9    3.30    1.71
   2   0   9    0.56    0.85
  -2   0  -9   -1.57    0.89
   3   0   9   51.00    3.63
  -3   0  -9   49.79    3.66
   3   0   9   49.27    3.93
  -3   0  -9   53.68    4.53
   3   0   9   53.95    4.33
  -3   0  -9   53.94    4.71
   4   0   9    0.66    1.14
  -4   0  -9   -0.85    1.15
  -4   0  -9    2.09    1.61
  -4   0  -9   -0.57    1.75
   5   0   9   26.08    2.63
  -5   0  -9   24.33    3.85
  -5   0  -9   29.23    2.85
   5   0   9   28.33    2.64
  -6   0  -9    0.87    1.61
   6   0   9   -0.31    1.38
  -6   0  -9   -1.49    2.01
  -7   0  -9   -3.08    1.86
  -7   0  -9    0.78    1.16
   7   0   9    4.09    1.43
  -8   1   9    6.58    1.39
  -7  -1   9   15.92    2.29
   7  -1  -9   17.93    3.49
  -7   1   9   15.16    2.15
   7   1  -9   17.42    3.11
  -6  -1   9   15.07    2.11
  -6   1   9   12.71    1.95
   6   1  -9   14.88    2.85
   5  -1  -9    8.18    2.40
  -5  -1   9    3.10    1.22
  -5  -1   9    4.52    0.96
  -5  -1   9    1.07    1.89
  -5  -1   9    6.10    1.26
   5   1  -9    8.05    2.42
  -5   1   9    2.68    1.14
  -5   1   9    4.96    1.15
  -5   1   9    6.35    1.35
  -5   1   9    4.97    0.84
   4  -1  -9   44.78    3.86
  -4  -1   9   44.45    3.12
  -4  -1   9   32.84    3.82
   4  -1  -9   39.65    3.13
  -4  -1   9   38.63    3.27
  -4  -1   9   42.90    3.01
  -4  -1   9   37.66    4.26
  -4   1   9   45.63    2.99
   4   1  -9   38.93    2.88
  -4   1   9   32.52    3.66
   4   1  -9   33.97    3.11
   4   1  -9   38.12    3.90
  -4   1   9   45.14    3.41
  -3  -1   9   25.04    2.13
  -3  -1   9   24.19    2.12
   3  -1  -9   21.03    2.20
   3  -1  -9   22.31    2.04
  -3  -1   9   22.36    2.49
  -3   1   9   22.40    2.02
  -3   1   9   16.89    2.65
   3   1  -9   19.45    2.18
  -3   1   9   22.74    2.42
   3   1  -9   21.53    2.02
   3   1  -9   23.55    2.92
  -3   1   9   28.06    2.38
  -3   1   9   25.06    2.38
  -2  -1   9   41.24    3.05
   2  -1  -9   38.10    3.17
   2  -1  -9   37.99    3.61
  -2  -1   9   40.55    2.85
   2  -1  -9   34.67    2.79
  -2   1   9   39.94    3.22
   2   1  -9   39.96    3.09
   2   1  -9   36.43    2.81
  -2   1   9   41.23    2.76
  -2   1   9   40.75    3.34
  -2   1   9   33.28    3.48
   2   1  -9   40.72    3.35
   1  -1  -9   16.85    2.51
   1  -1  -9   10.75    1.46
  -1  -1   9   15.40    1.56
  -1  -1   9   14.44    1.73
   1  -1  -9   10.70    1.87
   1   1  -9   13.50    1.55
  -1   1   9   14.10    1.91
  -1   1   9   10.79    2.04
  -1   1   9   12.63    1.46
   1   1  -9   14.62    1.85
  -1   1   9   13.75    1.95
   1   1  -9   13.56    1.72
  -1   1   9   14.56    1.91
   0  -1   9   42.82    3.23
   0  -1  -9   43.17    3.31
   0  -1   9   36.03    3.73
   0  -1   9   39.77    2.89
   0  -1  -9   46.00    3.71
   0   1  -9   37.13    2.79
   0   1   9   36.15    3.53
   0   1  -9   44.68    3.44
   0   1  -9   39.06    3.10
   0   1   9   41.80    3.47
   0   1   9   41.35    3.27
   0   1   9   36.26    3.17
  -1  -1  -9   59.72    4.30
   1  -1   9   61.06    4.31
   1  -1   9   50.41    3.85
   1  -1   9   60.10    4.79
  -1  -1  -9   58.90    4.70
   1   1   9   55.42    4.26
  -1   1  -9   57.01    4.63
  -1   1  -9   63.15    4.57
   1   1   9   59.01    4.57
  -1   1  -9   58.91    4.56
   1   1   9   54.05    4.24
  -1   1  -9   56.77    4.15
   1   1   9   54.39    4.62
  -1   1  -9   48.92    3.72
   2  -1   9  123.36    8.47
   2  -1   9  126.44    9.05
   2  -1   9  119.24    8.94
  -2  -1  -9  115.00    8.72
  -2  -1  -9  126.88    8.39
   2   1   9  122.07    7.45
  -2   1  -9  119.07    8.29
   2   1   9  116.94    8.45
  -2   1  -9  122.04    8.78
  -2   1  -9  113.34    8.70
   2   1   9  120.93    9.00
   2   1   9  121.33    9.03
   3  -1   9   11.44    1.71
  -3  -1  -9   11.17    1.92
  -3  -1  -9   11.49    2.00
   3  -1   9    7.98    1.64
   3  -1   9   11.99    1.40
  -3   1  -9   10.30    1.98
   3   1   9   12.18    1.66
  -3   1  -9   10.12    1.42
   3   1   9    9.47    1.36
   3   1   9   11.49    1.83
  -3   1  -9    9.76    1.92
   3   1   9   11.49    1.84
   3   1   9   12.89    2.07
   4  -1   9   36.50    2.92
  -4  -1  -9   36.67    3.04
  -4  -1  -9   39.79    4.08
  -4  -1  -9   35.40    3.02
  -4  -1  -9   31.87    3.62
  -4   1  -9   35.15    3.70
   4   1   9   38.58    2.99
   4   1   9   41.54    2.92
  -4   1  -9   37.39    4.12
   4   1   9   36.05    3.00
  -4   1  -9   35.26    3.04
  -5  -1  -9   26.97    2.80
  -5  -1  -9   22.97    3.14
   5  -1   9   28.42    2.57
  -5  -1  -9   25.94    3.72
  -5   1  -9   24.89    2.82
   5   1   9   25.38    2.71
   5   1   9   30.61    2.61
   5   1   9   28.15    2.29
  -5   1  -9   20.32    3.84
  -6  -1  -9   43.45    4.87
   6  -1   9   49.93    3.65
  -6  -1  -9   48.93    3.92
  -6   1  -9   50.99    3.95
   6   1   9   48.10    3.64
  -6   1  -9   39.00    4.91
   6   1   9   44.59    3.67
  -7  -1  -9   14.30    2.40
  -7  -1  -9   15.50    2.24
   7  -1   9   18.76    2.29
  -7   1  -9   10.43    2.35
   7   1   9   14.26    2.15
   7   1   9   11.53    2.15
  -7   1  -9   16.84    2.26
  -8  -2   9    4.61    1.26
  -7  -2   9   -3.01    1.81
  -7  -2   9    0.89    1.31
  -7   2   9    1.39    1.20
   7   2  -9    2.55    2.57
  -6  -2   9    3.17    2.08
   6  -2  -9    9.55    2.54
  -6  -2   9   11.15    2.05
   6   2  -9   11.23    2.66
  -6   2   9    6.58    1.37
  -5  -2   9    2.30    0.88
  -5  -2   9    2.78    1.06
   5  -2  -9    4.81    0.78
  -5  -2   9    0.66    1.88
  -5  -2   9    3.98    1.31
   5  -2  -9    3.84    2.24
   5   2  -9    7.16    2.54
  -5   2   9    3.40    1.19
  -5   2   9    4.82    1.33
  -4  -2   9   20.45    2.09
   4  -2  -9   16.62    1.82
  -4  -2   9   17.42    1.80
   4  -2  -9   16.84    2.78
  -4   2   9   17.99    2.20
  -4   2   9   14.39    2.37
   4   2  -9   18.17    3.04
  -4   2   9   15.79    1.89
  -4   2   9   17.79    1.92
   4   2  -9   15.28    1.96
   4   2  -9   16.88    1.77
   3  -2  -9    4.36    1.09
  -3  -2   9    6.25    1.22
  -3  -2   9    7.20    1.44
  -3   2   9   10.33    1.89
  -3   2   9    4.86    1.18
   3   2  -9    5.62    0.99
   3   2  -9    7.04    1.54
   3   2  -9    7.48    1.43
  -3   2   9    6.41    1.00
   3   2  -9    7.64    2.09
  -3   2   9    6.14    1.04
  -3   2   9    8.07    1.34
   2  -2  -9   47.20    3.15
  -2  -2   9   44.81    3.40
  -2  -2   9   49.28    3.23
   2  -2  -9   38.40    3.46
   2  -2  -9   47.53    3.98
  -2  -2   9   37.06    4.17
  -2  -2   9   40.32    4.24
  -2   2   9   44.07    3.55
  -2   2   9   50.48    3.64
  -2   2   9   46.21    3.74
  -2   2   9   45.86    3.08
   2   2  -9   45.20    3.67
   2   2  -9   42.15    3.14
  -2   2   9   41.37    3.86
   2   2  -9   50.70    3.45
  -1  -2   9   12.55    1.57
   1  -2  -9   13.11    1.82
  -1  -2   9   12.75    1.65
   1  -2  -9   16.67    2.56
  -1   2   9   12.40    1.75
  -1   2   9   12.61    1.87
  -1   2   9    8.69    1.96
   1   2  -9   11.42    1.61
   1   2  -9   13.11    1.59
   1   2  -9   12.20    1.49
  -1   2   9   11.76    1.86
   0  -2   9   87.32    5.93
   0  -2   9   91.86    7.18
   0  -2   9   98.21    6.89
   0  -2   9   89.78    6.49
   0  -2  -9   90.20    6.54
   0  -2  -9  101.88    6.92
   0   2   9   86.40    6.47
   0   2   9   96.87    7.00
   0   2  -9   90.40    6.64
   0   2  -9   84.46    5.89
   0   2   9   97.50    6.59
   0   2  -9   92.56    6.40
   0   2  -9   97.98    6.93
   0   2   9   84.85    7.00
   1  -2   9    0.85    1.20
   1  -2   9    0.56    1.00
  -1  -2  -9   -1.52    1.54
  -1  -2  -9    0.33    1.10
   1  -2   9    1.00    0.81
   1   2   9    0.77    1.10
   1   2   9   -0.07    0.87
  -1   2  -9    0.65    0.68
  -1   2  -9    1.43    1.29
  -1   2  -9    0.13    0.66
   1   2   9    0.79    0.86
  -1   2  -9    0.19    0.74
   1   2   9   -0.68    0.99
  -2  -2  -9   27.11    3.38
   2  -2   9   38.02    2.84
   2  -2   9   38.01    3.20
  -2  -2  -9   34.02    2.87
  -2   2  -9   27.50    2.31
   2   2   9   29.12    3.09
   2   2   9   32.69    2.78
  -2   2  -9   36.35    2.86
  -2   2  -9   35.38    3.55
   2   2   9   33.40    2.67
   2   2   9   31.41    2.76
  -2   2  -9   33.43    2.58
   2   2   9   31.01    2.99
   3  -2   9    2.54    1.11
  -3  -2  -9    3.51    1.18
  -3  -2  -9   -0.13    1.56
   3  -2   9    3.07    1.12
   3  -2   9    3.84    0.87
   3   2   9    1.47    1.11
  -3   2  -9    2.22    1.76
  -3   2  -9    1.97    0.57
   3   2   9    2.74    0.91
   3   2   9    1.82    0.84
   3   2   9    1.84    1.28
  -3   2  -9    2.85    1.72
   3   2   9    2.13    1.02
  -3   2  -9    2.63    0.74
  -4  -2  -9   13.62    2.13
   4  -2   9   14.43    1.97
  -4  -2  -9   11.66    1.88
  -4   2  -9   10.62    1.92
  -4   2  -9    9.56    1.07
   4   2   9   10.48    1.60
   4   2   9   15.46    1.94
   4   2   9   14.85    1.67
  -4   2  -9   10.90    2.20
  -5  -2  -9   -0.09    1.51
  -5  -2  -9   -0.40    1.52
  -5  -2  -9   -0.53    1.93
   5  -2   9    0.66    1.30
  -5   2  -9   -1.84    2.00
   5   2   9   -0.22    1.52
   5   2   9    0.87    1.30
  -6  -2  -9    0.38    1.93
   6  -2   9    2.64    1.32
  -6  -2  -9    1.25    1.44
  -6  -2  -9    1.85    1.60
   6   2   9   -0.02    1.61
   6   2   9    3.04    1.40
  -6   2  -9   -1.20    1.48
  -6   2  -9   -1.78    2.06
  -7  -2  -9    0.42    1.93
  -7  -2  -9    2.57    1.48
   7  -2   9    1.44    1.31
  -7   2  -9    0.68    1.32
  -7   2  -9   -2.45    1.89
   7   2   9   -0.93    1.11
   7   2   9   -1.01    1.40
  -7  -3   9    9.17    1.61
  -7   3   9    8.46    1.63
   7   3  -9    6.93    2.21
  -6  -3   9    0.42    1.39
   6  -3  -9    4.64    2.19
  -6  -3   9   -1.62    1.83
  -6   3   9    1.01    1.28
  -6   3   9   -0.71    1.19
   6   3  -9    4.85    2.61
   5  -3  -9   11.86    2.42
   5  -3  -9   13.94    2.62
  -5  -3   9   16.54    2.21
  -5   3   9   14.12    1.98
  -5   3   9   15.38    2.13
   5   3  -9   13.92    2.79
  -4  -3   9   -0.88    1.19
  -4  -3   9   -0.89    1.24
  -4  -3   9   -0.65    1.67
  -4  -3   9    0.04    0.99
   4  -3  -9    1.66    1.88
   4  -3  -9    1.01    0.76
   4   3  -9    0.87    2.11
  -4   3   9    0.70    0.69
  -4   3   9   -0.18    1.23
  -4   3   9    0.77    1.01
  -4   3   9   -1.11    1.00
   4   3  -9   -0.43    0.57
  -3  -3   9  161.19    9.54
   3  -3  -9  138.71   10.33
  -3  -3   9  148.79   11.28
   3  -3  -9  167.77   11.39
  -3  -3   9  129.09   11.27
  -3   3   9  144.80    9.44
   3   3  -9  136.35    9.51
   3   3  -9  160.97   10.36
  -3   3   9  149.20   11.11
   3   3  -9  158.63   11.14
  -3   3   9  164.12   10.41
   2  -3  -9    2.60    1.04
   2  -3  -9    4.86    1.75
   2  -3  -9    1.75    1.45
  -2  -3   9    4.14    1.08
  -2  -3   9    1.31    1.48
  -2  -3   9    3.39    0.89
  -2   3   9    3.16    0.93
  -2   3   9    2.86    0.82
  -2   3   9    2.63    1.17
   2   3  -9    4.17    0.89
   2   3  -9    3.35    0.95
  -2   3   9    2.93    1.03
   2   3  -9    2.31    0.76
   1  -3  -9  103.24    6.86
  -1  -3   9   93.32    7.34
  -1  -3   9   97.98    6.30
   1  -3  -9   94.72    7.28
   1  -3  -9   95.92    7.56
  -1  -3   9   96.52    6.83
  -1   3   9   96.90    6.83
  -1   3   9  100.30    7.33
   1   3  -9   99.08    7.27
   1   3  -9   94.76    6.25
  -1   3   9  100.71    6.94
   1   3  -9   93.32    6.75
   0  -3   9   -0.08    0.58
   0  -3   9    0.68    1.08
   0  -3  -9   -2.38    1.64
   0  -3  -9   -1.31    0.96
   0  -3   9    0.09    1.21
   0  -3   9   -0.28    1.07
   0  -3  -9   -1.08    1.34
   0  -3   9    0.21    0.76
   0   3  -9    2.39    1.22
   0   3  -9   -0.06    0.74
   0   3   9    0.13    1.07
   0   3   9   -0.27    0.85
   0   3  -9    0.18    0.62
   0   3  -9    0.59    0.77
   0   3   9   -0.70    0.88
  -1  -3  -9  224.34   16.64
  -1  -3  -9  226.65   17.62
   1  -3   9  223.80   16.45
  -1  -3  -9  240.86   16.27
   1  -3   9  233.21   16.57
   1  -3   9  265.84   17.60
   1  -3   9  250.54   14.95
   1   3   9  225.43   16.22
   1   3   9  240.98   16.48
  -1   3  -9  255.45   16.21
   1   3   9  245.21   17.52
  -1   3  -9  229.89   14.87
  -1   3  -9  264.28   17.50
  -1   3  -9  237.08   16.70
  -2  -3  -9    3.99    1.10
  -2  -3  -9    2.17    1.62
   2  -3   9    5.07    0.93
  -2  -3  -9    3.82    1.47
   2  -3   9    5.45    0.94
   2  -3   9    5.54    1.28
  -2   3  -9    5.95    1.69
   2   3   9    4.87    1.20
   2   3   9    3.99    1.02
   2   3   9    6.33    1.37
  -2   3  -9    4.05    0.81
  -2   3  -9    5.56    1.04
   2   3   9    5.22    1.00
  -3  -3  -9   68.08    5.61
   3  -3   9   74.52    4.74
   3   3   9   75.78    5.23
   3   3   9   65.79    5.50
  -3   3  -9   63.15    4.59
   3   3   9   77.26    4.96
   3   3   9   78.26    4.72
  -3   3  -9   76.61    5.49
  -3   3  -9   68.43    5.02
  -3   3  -9   71.98    5.94
  -4  -3  -9    9.37    1.84
  -4  -3  -9   13.61    2.10
   4  -3   9   14.15    1.95
   4   3   9   10.57    1.76
  -4   3  -9   10.19    2.15
  -4   3  -9    8.30    0.93
   5  -3   9   95.89    6.02
  -5  -3  -9   84.60    6.93
  -5  -3  -9   91.56    6.30
   5   3   9   95.88    6.24
  -5   3  -9   87.67    7.41
   5   3   9   99.30    6.00
  -6  -3  -9   -0.52    1.92
  -6  -3  -9    1.91    1.61
   6  -3   9    1.32    1.34
   6  -3   9    0.37    1.56
  -6  -3  -9    0.15    1.38
  -6   3  -9   -0.05    2.09
   6   3   9    2.15    1.34
   6   3   9   -1.37    1.69
  -7   3  -9   14.65    2.28
   7   3   9   18.44    2.50
   7  -4  -9   10.29    2.37
  -7  -4   9    5.65    1.29
  -7   4   9    8.36    1.44
   7   4  -9   10.47    2.69
  -6  -4   9   -2.02    1.82
   6  -4  -9    2.99    2.29
  -6  -4   9    1.28    1.41
  -6   4   9    2.34    1.33
  -6   4   9    0.84    1.26
   6   4  -9    4.45    2.52
  -5  -4   9   17.68    2.24
   5  -4  -9   14.91    2.70
   5   4  -9   16.45    3.45
  -5   4   9   15.72    2.33
  -5   4   9   15.71    2.10
  -4  -4   9    1.81    1.25
  -4  -4   9    0.69    1.72
  -4  -4   9   -1.02    1.21
   4  -4  -9   -1.44    1.46
  -4   4   9    2.03    0.68
  -4   4   9   -0.79    1.02
  -4   4   9    0.10    1.26
   4   4  -9    1.23    2.20
   3  -4  -9   76.32    5.85
  -3  -4   9   78.67    6.65
   3  -4  -9   79.04    6.54
  -3  -4   9   85.66    5.42
  -3   4   9   81.49    6.23
  -3   4   9   81.50    5.32
  -3   4   9   87.96    5.92
   3   4  -9   87.92    5.81
   3   4  -9   80.88    6.19
  -3   4   9   78.09    5.89
   2  -4  -9    0.45    1.85
  -2  -4   9   -0.60    1.29
   2  -4  -9   -0.42    0.91
  -2  -4   9    0.55    1.42
  -2  -4   9    2.46    1.21
   2  -4  -9   -0.89    1.39
  -2   4   9    0.44    1.16
  -2   4   9    1.28    0.94
   2   4  -9    0.64    0.66
   2   4  -9    2.03    0.83
   2   4  -9    1.21    0.84
  -2   4   9    0.93    0.82
  -2   4   9    1.73    0.84
   1  -4  -9   34.84    4.00
   1  -4  -9   38.87    3.13
  -1  -4   9   39.59    3.09
  -1  -4   9   38.96    3.64
   1  -4  -9   39.43    3.78
  -1  -4   9   35.82    3.79
  -1  -4   9   41.66    3.05
   1   4  -9   41.35    3.05
   1   4  -9   40.80    2.86
  -1   4   9   37.92    3.35
  -1   4   9   39.05    3.27
   1   4  -9   45.14    3.24
  -1   4   9   39.29    3.23
   0  -4  -9    9.17    1.60
   0  -4   9   10.07    1.88
   0  -4  -9    7.52    1.57
   0  -4   9    9.24    1.49
   0  -4  -9    5.82    1.84
   0  -4   9   11.52    1.43
   0   4   9   10.38    1.70
   0   4  -9   11.65    1.34
   0   4  -9   10.16    1.36
   0   4   9   10.22    1.66
   0   4   9   10.86    1.87
   0   4   9   10.31    1.42
   1  -4   9   18.84    1.86
   1  -4   9   18.17    1.85
   1  -4   9   18.13    2.62
  -1  -4  -9   16.97    1.95
  -1  -4  -9   15.23    2.80
  -1  -4  -9   12.91    2.61
  -1   4  -9   19.78    1.83
   1   4   9   20.01    1.99
  -1   4  -9   15.66    1.58
   1   4   9   19.34    2.23
  -1   4  -9   22.33    2.72
   1   4   9   19.55    2.14
   1   4   9   17.29    2.14
  -2  -4  -9   24.26    2.12
   2  -4   9   19.57    2.19
  -2  -4  -9   21.08    2.88
   2  -4   9   20.96    2.14
   2  -4   9   24.08    2.75
  -2  -4  -9   19.23    2.85
   2   4   9   24.88    2.32
  -2   4  -9   22.99    2.14
   2   4   9   26.07    2.39
  -2   4  -9   23.33    3.19
  -2   4  -9   23.15    1.82
   2   4   9   26.93    2.21
   3  -4   9    2.62    1.14
  -3  -4  -9    2.27    1.56
  -3  -4  -9    0.42    1.32
   3  -4   9    1.30    1.16
  -3   4  -9    0.88    0.47
   3   4   9    2.45    1.56
   3   4   9    1.20    0.71
  -3   4  -9    1.63    1.83
   4  -4   9   16.42    2.11
  -4  -4  -9   15.35    2.61
   4   4   9   14.49    2.61
  -4   4  -9   13.57    2.40
  -5  -4  -9    1.17    1.51
   5  -4   9    2.03    1.31
   5   4   9    0.44    1.72
  -5   4  -9    0.62    2.09
   6  -4   9    2.85    1.75
  -6  -4  -9    5.02    1.57
   6  -4   9    0.16    1.20
   6   4   9    1.39    1.75
   6   4   9    3.33    1.30
  -7  -5   9    2.33    1.20
   7  -5  -9    0.94    1.91
  -7   5   9    5.21    1.44
  -6  -5   9   18.93    2.46
   6   5  -9   15.69    2.97
  -6   5   9   20.01    2.36
  -6   5   9   22.73    2.43
   5  -5  -9   -1.58    1.57
  -5  -5   9   -1.18    1.76
  -5  -5   9    0.22    1.39
   5  -5  -9    2.80    2.23
   5   5  -9    2.74    2.30
  -5   5   9    0.19    1.35
  -5   5   9    0.83    1.18
   4  -5  -9    2.41    2.20
  -4  -5   9    1.89    1.74
   4  -5  -9    2.83    1.59
  -4   5   9    5.05    1.15
  -4   5   9    5.91    1.42
   4   5  -9    3.33    0.71
   4   5  -9    4.61    2.30
  -3  -5   9    5.08    1.32
   3  -5  -9    5.78    2.06
  -3  -5   9   -0.82    1.30
   3  -5  -9    2.52    1.50
  -3  -5   9    0.84    1.60
   3   5  -9   -1.03    2.16
  -3   5   9    4.57    1.40
   3   5  -9    2.06    0.81
  -3   5   9    4.03    1.02
   2  -5  -9   12.91    2.41
  -2  -5   9   15.52    2.75
  -2  -5   9   11.64    2.62
   2  -5  -9   17.14    2.65
  -2  -5   9   16.56    2.08
  -2   5   9   18.89    2.29
  -2   5   9   16.30    1.86
  -1  -5   9   -1.11    1.38
  -1  -5   9   -0.07    1.24
   1  -5  -9   -2.34    1.88
  -1  -5   9   -0.21    0.64
  -1  -5   9   -0.72    1.30
   1  -5  -9   -1.08    1.27
   1  -5  -9    0.96    0.79
  -1   5   9   -0.92    0.86
  -1   5   9   -0.45    1.23
   1   5  -9    1.56    0.69
  -1   5   9    0.44    0.89
   0  -5   9   19.60    2.91
   0  -5  -9   23.35    2.92
   0  -5  -9   24.16    3.30
   0  -5   9   27.33    2.91
   0  -5   9   26.35    2.50
   0  -5   9   26.39    2.23
   0  -5   9   21.98    2.26
   0  -5  -9   28.17    2.22
   0   5   9   25.57    2.33
   0   5  -9   24.32    1.96
   0   5  -9   22.86    2.90
   0   5   9   25.94    2.62
   0   5   9   24.40    2.47
  -1  -5  -9   10.89    2.40
  -1  -5  -9    8.22    1.94
  -1  -5  -9   13.08    1.54
   1  -5   9   11.64    1.53
   1  -5   9   13.77    2.44
   1  -5   9    9.23    1.52
  -1   5  -9   14.32    2.61
   1   5   9   11.12    1.96
   1   5   9   14.82    1.87
   2  -5   9   87.69    4.96
   2  -5   9   66.59    5.43
  -2  -5  -9   73.25    6.07
  -2  -5  -9   82.75    5.92
  -2  -5  -9   83.92    5.37
   2   5   9   66.69    5.72
  -2   5  -9   72.24    6.01
   2   5   9   76.52    5.50
  -3  -5  -9   -0.59    1.25
   3  -5   9    0.73    1.09
  -3  -5  -9   -1.02    1.59
   3  -5   9    0.77    1.17
   3   5   9    0.66    1.63
  -3   5  -9    0.70    1.79
   4  -5   9   53.08    4.23
  -4  -5  -9   46.36    4.18
   4  -5   9   48.27    4.09
   4  -5   9   46.62    3.50
   4   5   9   47.70    4.01
  -4   5  -9   42.82    4.80
   5  -5   9    3.65    1.34
  -5  -5  -9    3.36    1.60
   5  -5   9    5.33    1.90
   5   5   9    1.26    1.94
  -5   5  -9    2.38    2.17
   6  -5   9   34.56    2.89
  -6  -5  -9   38.20    3.31
   6  -5   9   41.15    3.77
  -6   5  -9   32.23    4.42
   6   5   9   31.36    3.44
   7  -5   9   -0.14    1.16
  -7   6   9   12.59    1.41
  -6  -6   9    0.24    1.30
  -6  -6   9   -0.92    1.76
   6  -6  -9   -1.56    2.17
   6   6  -9    5.27    2.40
  -6   6   9    2.63    1.09
  -6   6   9    2.40    1.27
  -5  -6   9    1.84    1.99
  -5  -6   9    3.22    1.35
   5  -6  -9    2.22    1.63
   5  -6  -9    1.09    2.46
  -5   6   9    3.52    1.26
   5   6  -9    4.84    2.26
  -5   6   9    4.45    1.52
  -4  -6   9   -0.02    1.81
   4  -6  -9    2.33    2.34
   4  -6  -9    0.27    1.65
  -4  -6   9    2.91    1.37
   4   6  -9    2.76    2.13
  -4   6   9    2.48    1.50
  -4   6   9    1.52    1.12
   3  -6  -9   20.10    2.91
  -3  -6   9   19.77    2.28
  -3   6   9   15.19    1.94
  -3   6   9   21.05    2.60
  -2  -6   9    0.54    1.56
  -2  -6   9    0.94    1.27
   2  -6  -9    1.11    1.37
   2  -6  -9    0.29    2.02
  -2  -6   9    0.98    1.28
  -2   6   9    1.15    1.37
  -1  -6   9    2.55    1.36
   1  -6  -9    3.22    1.04
  -1  -6   9    3.92    1.56
  -1  -6   9    5.69    0.85
  -1  -6   9    5.03    1.38
   1  -6  -9    3.89    2.08
   1  -6  -9    4.74    1.47
  -1   6   9    7.80    1.41
   1   6  -9    5.41    1.40
  -1   6   9    5.16    1.43
   0  -6   9    7.15    1.48
   0  -6   9    8.17    1.41
   0  -6  -9   10.80    2.29
   0  -6   9   14.74    2.27
   0  -6   9    9.59    1.60
   0  -6  -9    8.86    2.07
   0  -6  -9   10.28    1.63
   0   6  -9    7.56    1.65
   0   6   9   10.93    1.56
  -1  -6  -9   16.21    2.91
   1  -6   9   18.16    2.66
  -1  -6  -9   16.88    2.65
   1   6   9   17.09    2.22
  -1   6  -9   18.83    1.67
   1   6   9   18.44    1.52
  -1   6  -9   17.22    2.95
  -2  -6  -9   13.98    2.55
   2  -6   9   17.65    2.58
  -2  -6  -9   16.33    2.77
   2  -6   9   20.11    1.94
  -2   6  -9   13.93    3.04
   2   6   9   16.25    2.14
   3  -6   9   28.49    3.02
   3  -6   9   30.05    3.18
  -3  -6  -9   26.80    3.11
  -3  -6  -9   23.95    3.02
   3  -6   9   28.54    2.42
  -3   6  -9   20.77    3.53
   3   6   9   25.82    3.09
  -4  -6  -9    3.65    1.28
   4  -6   9    5.78    1.90
   4  -6   9    4.25    1.27
   4  -6   9    4.47    1.30
  -4  -6  -9    5.15    1.65
   4   6   9    3.11    1.91
  -4   6  -9    4.67    2.05
   5  -6   9    8.83    2.10
  -5  -6  -9   11.90    2.26
   5  -6   9    8.52    1.48
  -6  -6  -9    3.23    1.23
   6  -6   9    0.18    1.07
  -6   7   9    1.12    1.13
  -6   7   9    2.61    1.12
  -5  -7   9   -1.65    1.77
  -5  -7   9    1.81    1.43
   5  -7  -9    4.49    1.61
   5  -7  -9    1.94    2.53
   5   7  -9    0.83    1.51
  -5   7   9    4.43    1.23
   4  -7  -9    2.27    1.62
   4  -7  -9    3.12    2.50
  -4  -7   9   -0.49    1.81
  -4  -7   9   -0.87    1.37
  -4  -7   9    1.35    1.43
  -4   7   9    3.85    1.19
  -4   7   9    5.16    1.57
   4   7  -9    1.61    2.16
   3  -7  -9   17.56    2.88
  -3  -7   9   13.11    2.35
  -3   7   9   15.01    1.86
  -3   7   9   18.42    2.58
   2  -7  -9   10.80    2.30
  -2  -7   9    7.79    1.85
  -2  -7   9    5.80    1.51
   1  -7  -9   23.98    3.64
  -1  -7   9   23.66    3.37
   1  -7  -9   27.36    3.06
  -1  -7   9   25.40    2.65
  -1   7   9   28.57    2.81
   1   7  -9   18.38    2.86
   0  -7  -9   14.23    2.47
   0  -7   9    7.19    1.51
   0  -7  -9    9.94    2.16
   0  -7   9   10.05    1.70
   0   7   9   12.73    2.11
   0   7  -9    9.25    1.77
  -1  -7  -9   23.44    2.87
   1  -7   9   21.07    2.93
  -1  -7  -9   24.27    3.15
   1   7   9   25.64    2.58
  -1   7  -9   20.89    1.87
  -2  -7  -9   26.15    3.19
   2  -7   9   29.17    3.04
  -2  -7  -9   24.84    3.04
  -2   7  -9   20.64    3.42
   2   7   9   25.86    2.56
   3  -7   9   21.46    2.77
  -3  -7  -9   18.93    2.65
   3  -7   9   22.00    3.09
   3  -7   9   18.39    2.07
  -3  -7  -9   19.18    2.80
   3   7   9   16.58    2.73
   4  -7   9   17.62    3.12
  -4  -7  -9   14.32    2.33
   4  -7   9   16.77    1.93
   4  -7   9   18.77    2.49
  -4  -7  -9   14.71    2.40
   4   7   9   11.58    2.12
   5  -7   9   19.81    2.99
   5  -7   9   18.41    2.04
  -5  -7  -9   23.93    2.64
   5   7   9   17.17    2.87
   6  -7   9    5.75    1.61
   5  -8  -9    4.04    1.47
   5   8  -9    1.54    1.76
  -5   8   9    2.56    0.96
  -5   8   9    4.61    1.43
  -4  -8   9    1.23    1.60
   4  -8  -9    1.63    2.41
  -4  -8   9    0.66    1.32
  -4  -8   9    0.79    1.39
   4   8  -9    1.11    1.44
   3  -8  -9    0.39    1.53
   3  -8  -9   -2.67    2.38
  -3  -8   9   -1.65    1.35
  -3  -8   9   -1.37    1.43
  -3  -8   9   -1.31    1.75
  -3   8   9    0.87    1.51
   3   8  -9   -0.52    2.14
  -2  -8   9   18.72    2.41
  -2  -8   9   15.89    3.24
  -2  -8   9   12.85    2.79
   2   8  -9   18.27    2.58
  -1  -8   9   -1.43    1.53
  -1  -8   9   -1.62    1.27
   1  -8  -9   -0.33    1.29
   1  -8  -9   -0.48    2.03
   1   8  -9    1.05    1.39
  -1   8   9    0.69    1.38
   0  -8   9   11.80    2.42
   0  -8   9   10.20    1.81
   0  -8  -9   16.67    3.02
   0   8  -9   10.08    1.80
  -1  -8  -9    0.39    1.75
  -1  -8  -9    0.31    1.30
   1  -8   9   -1.36    1.26
  -1   8  -9    0.58    1.66
   1   8   9    0.22    1.30
  -2  -8  -9   10.58    2.34
  -2  -8  -9    8.62    1.90
   2  -8   9    8.17    1.59
  -2   8  -9    5.20    1.88
   2   8   9   11.12    2.00
   3  -8   9    2.63    1.87
  -3  -8  -9    1.17    1.10
  -3  -8  -9    1.78    1.19
   3  -8   9    0.70    1.29
   3   8   9    0.21    1.23
   4  -8   9   -0.56    1.96
  -4  -8  -9    3.46    1.07
   4  -8   9    1.32    1.19
   4  -8   9    1.51    0.89
  -4  -8  -9    1.71    1.47
  -4   8  -9   -2.00    1.80
   4   8   9    0.56    1.74
  -5  -9   9    1.10    0.66
   4  -9  -9   -1.46    1.77
  -4  -9   9   -1.15    1.06
  -4  -9   9   -1.49    1.11
   4   9  -9    0.16    1.81
  -3  -9   9    7.14    1.89
   3  -9  -9   12.32    2.39
   3  -9  -9    6.38    2.41
   3   9  -9    7.11    2.07
   2  -9  -9    0.08    1.24
   2  -9  -9    4.18    1.85
  -2   9   9    4.44    1.23
   2   9  -9    4.58    1.29
   1  -9  -9   13.95    2.52
   1  -9  -9   17.73    3.17
   1   9  -9   15.74    2.58
  -1   9   9   17.40    2.24
   0  -9   9    2.38    1.61
   0  -9  -9    1.68    1.40
   0  -9  -9    2.10    1.85
   0   9   9    2.87    1.36
   0   9  -9    1.52    1.47
  -1  -9  -9   24.25    3.08
  -1  -9  -9   25.78    3.17
   1  -9   9   33.84    3.44
   1   9   9   27.90    2.86
  -2  -9  -9    5.96    1.71
  -2  -9  -9    4.92    1.34
  -3  -9  -9    8.42    1.90
   3  -9   9   12.50    2.22
   3   9   9   15.34    2.54
  -3   9  -9   10.30    2.06
   4  -9   9    5.66    1.09
  -4  -9  -9    6.13    1.30
   3 -10  -9    0.38    1.74
   1 -10  -9    3.84    1.51
  -1 -10   9    1.33    1.44
   1 -10  -9    4.28    1.58
  -1  10   9    2.89    1.35
   1  10  -9    3.13    1.21
   0 -10  -9    4.80    1.58
   0 -10  -9    1.20    1.30
   0 -10   9    0.86    1.55
   0  10  -9    1.99    1.26
   0  10   9    1.70    1.19
  -1 -10  -9    4.71    1.49
   1 -10   9    1.18    1.39
  -1 -10  -9    2.39    1.17
  -1  10  -9    1.00    1.41
   1  10   9    2.76    1.12
   2  10   9   10.41    1.45
  -8   0  10   -1.67    1.22
   7   0 -10    1.16    2.58
  -7   0  10   -0.01    1.74
  -7   0  10    0.54    1.02
   6   0 -10    3.09    2.60
  -6   0  10    1.77    1.74
  -6   0  10    2.52    1.26
   5   0 -10    0.48    2.30
  -5   0  10   -1.45    0.91
  -5   0  10    0.22    1.16
   5   0 -10    0.80    0.64
  -5   0  10   -0.32    1.39
  -4   0  10    8.32    1.29
  -4   0  10    9.07    1.67
   4   0 -10   10.93    2.33
  -4   0  10    8.30    1.60
   4   0 -10    5.90    1.09
   3   0 -10   -0.05    0.80
  -3   0  10   -0.01    1.38
  -3   0  10   -0.36    0.91
  -3   0  10   -1.22    1.24
  -3   0  10   -0.90    0.95
  -3   0  10   -0.44    0.98
   3   0 -10    2.00    1.82
   2   0 -10   78.87    6.06
  -2   0  10   85.13    6.19
  -2   0  10   95.03    6.18
   2   0 -10   85.99    5.54
   2   0 -10   84.66    6.31
  -2   0  10   85.90    5.53
  -2   0  10   71.35    6.71
  -2   0  10   95.06    6.56
  -1   0  10    0.11    0.92
  -1   0  10    0.62    0.85
  -1   0  10   -0.35    0.83
   1   0 -10    0.61    1.75
   1   0 -10   -0.91    0.77
   1   0 -10   -0.82    0.96
  -1   0  10    0.17    1.28
  -1   0  10   -0.03    1.15
   0   0  10  165.74   10.59
   0   0 -10  150.75   10.76
   0   0  10  167.46   11.23
   0   0 -10  163.34   10.45
   0   0  10  145.87   10.43
   0   0  10  132.01   11.27
   0   0 -10  137.24    9.46
  -1   0 -10    1.63    1.79
  -1   0 -10   -0.73    0.96
   1   0  10    0.81    0.94
  -1   0 -10    0.62    1.33
   1   0  10   -0.67    1.13
   1   0  10   -0.12    0.80
  -2   0 -10   76.47    5.56
  -2   0 -10   79.37    6.14
   2   0  10   79.14    5.99
  -2   0 -10   80.94    6.09
   2   0  10   78.82    6.14
   2   0  10   73.04    5.64
   3   0  10   -0.55    1.15
   3   0  10    0.29    1.15
  -3   0 -10    2.41    1.75
   3   0  10   -0.19    0.84
  -3   0 -10   -1.16    1.69
   4   0  10   77.00    5.03
  -4   0 -10   78.29    6.32
   4   0  10   71.40    5.48
  -4   0 -10   76.01    5.16
  -4   0 -10   77.78    6.04
   5   0  10   -1.36    1.35
   5   0  10    1.22    1.33
  -5   0 -10    1.96    1.65
  -5   0 -10    0.08    1.39
  -5   0 -10   -2.19    1.93
   6   0  10   22.08    2.57
  -6   0 -10   19.65    3.76
  -6   0 -10   23.73    2.69
   7   0  10    0.82    1.31
  -7   0 -10    2.09    1.20
  -8   1  10    3.36    1.18
   7  -1 -10    5.54    2.53
  -7  -1  10    1.99    1.02
  -7  -1  10   -0.76    1.87
   7   1 -10    3.36    2.51
  -7   1  10    2.25    0.90
   6  -1 -10    6.94    2.65
  -6  -1  10    5.28    1.31
  -6  -1  10    2.10    2.05
  -6   1  10    4.35    1.27
   6   1 -10    6.84    2.63
   5  -1 -10    6.27    0.97
   5  -1 -10    7.49    2.49
  -5  -1  10    4.03    0.97
  -5  -1  10    6.25    1.28
  -5   1  10    6.03    1.25
   5   1 -10    5.98    2.49
   4  -1 -10    6.97    1.12
  -4  -1  10    4.70    1.81
  -4  -1  10    8.09    1.51
   4  -1 -10   11.06    2.20
  -4  -1  10    7.88    1.29
  -4   1  10    8.47    1.25
  -4   1  10    9.06    1.52
   4   1 -10   10.26    2.30
  -4   1  10    5.79    1.33
   4   1 -10    5.99    1.15
  -3  -1  10   29.60    2.82
  -3  -1  10   28.53    2.40
  -3  -1  10   29.67    2.49
   3  -1 -10   22.10    2.46
   3  -1 -10   28.77    2.32
   3  -1 -10   28.78    3.05
  -3   1  10   30.20    2.36
   3   1 -10   25.11    2.23
  -3   1  10   25.47    2.77
  -3   1  10   30.29    2.62
   3   1 -10   26.90    2.47
   3   1 -10   28.45    3.26
  -3   1  10   26.81    2.73
  -2  -1  10   28.00    2.82
  -2  -1  10   28.99    2.55
   2  -1 -10   26.33    2.64
   2  -1 -10   28.40    2.30
  -2  -1  10   31.97    2.39
  -2   1  10   29.46    2.74
   2   1 -10   26.42    2.54
   2   1 -10   27.63    2.29
  -2   1  10   25.47    3.06
  -2   1  10   34.15    2.68
  -2   1  10   28.76    2.27
  -2   1  10   28.86    2.78
   1  -1 -10   54.72    3.99
  -1  -1  10   53.70    3.90
  -1  -1  10   53.57    3.51
  -1  -1  10   41.36    4.58
   1  -1 -10   59.06    4.46
   1  -1 -10   46.65    3.46
   1   1 -10   45.68    3.45
   1   1 -10   50.82    4.19
  -1   1  10   51.81    3.45
   1   1 -10   53.28    3.85
  -1   1  10   51.40    4.16
  -1   1  10   43.04    4.29
  -1   1  10   48.24    3.95
  -1   1  10   59.60    4.00
   0  -1 -10   12.77    1.93
   0  -1  10   14.05    1.88
   0  -1  10   15.31    1.76
   0  -1 -10   21.04    2.78
   0   1 -10   12.67    1.72
   0   1  10   14.93    2.08
   0   1  10   15.98    1.93
   0   1 -10   15.16    1.92
   0   1  10   13.42    2.27
   0   1  10   15.27    1.99
   0   1 -10   15.14    1.53
  -1  -1 -10   57.12    4.59
  -1  -1 -10   53.15    4.00
   1  -1  10   48.58    4.54
   1  -1  10   56.26    4.02
   1  -1  10   50.91    4.17
  -1   1 -10   53.04    4.35
  -1   1 -10   52.19    3.85
  -1   1 -10   47.07    3.47
   1   1  10   51.35    4.00
   1   1  10   50.66    4.44
   1   1  10   52.00    4.24
  -1   1 -10   52.34    4.52
   1   1  10   51.52    4.00
  -2  -1 -10   36.83    3.77
   2  -1  10   32.71    3.09
  -2  -1 -10   38.27    3.01
   2  -1  10   37.14    3.52
   2  -1  10   37.68    2.99
  -2  -1 -10   36.70    3.72
   2   1  10   31.95    2.95
   2   1  10   36.03    3.17
  -2   1 -10   33.59    3.77
   2   1  10   35.14    2.71
   2   1  10   35.82    3.37
  -2   1 -10   34.96    2.80
  -2   1 -10   32.30    3.67
   3  -1  10   62.39    5.00
  -3  -1 -10   58.79    5.14
   3  -1  10   57.09    4.52
   3  -1  10   62.69    4.78
   3  -1  10   60.99    4.16
  -3  -1 -10   64.78    5.27
  -3   1 -10   62.42    4.39
  -3   1 -10   58.74    5.06
   3   1  10   61.47    4.94
   3   1  10   62.04    4.14
   3   1  10   56.52    4.54
  -3   1 -10   63.59    5.30
   3   1  10   59.53    4.16
  -4  -1 -10   16.95    3.45
   4  -1  10   22.45    2.23
  -4  -1 -10   20.30    3.05
  -4   1 -10   16.11    3.04
   4   1  10   17.43    2.31
   4   1  10   22.10    2.24
  -4   1 -10   15.61    3.42
   4   1  10   18.24    1.93
  -4   1 -10   15.97    2.26
  -5  -1 -10   44.13    4.36
   5  -1  10   49.30    3.68
  -5  -1 -10   52.68    4.94
  -5  -1 -10   47.33    3.82
  -5   1 -10   45.47    4.98
   5   1  10   48.16    3.71
   5   1  10   51.43    3.69
  -5   1 -10   50.14    3.83
   6  -1  10   14.02    2.26
  -6  -1 -10    8.80    2.23
  -6  -1 -10   13.68    2.28
  -6   1 -10    8.70    2.29
   6   1  10   13.42    2.26
  -6   1 -10   13.36    2.36
   6   1  10   12.76    2.26
  -7  -1 -10   27.08    2.67
   7   1  10   29.25    2.75
  -7   1 -10   27.41    2.65
  -7  -2  10    3.47    0.95
   7  -2 -10    9.76    2.55
  -7  -2  10    0.59    1.89
   7   2 -10    7.37    2.42
  -6  -2  10    1.60    1.33
  -6  -2  10   -1.45    1.92
   6  -2 -10    5.33    2.42
  -6   2  10    2.10    1.14
   6   2 -10    5.28    2.69
  -5  -2  10   31.58    2.68
   5  -2 -10   27.26    3.59
  -5  -2  10   21.34    4.17
  -5  -2  10   26.80    2.53
   5   2 -10   26.49    3.88
   5   2 -10   25.63    2.16
  -5   2  10   30.85    2.79
  -5   2  10   30.20    2.49
   4  -2 -10    1.68    0.79
   4  -2 -10    3.51    2.14
  -4  -2  10    1.67    1.25
  -4  -2  10    0.00    1.31
  -4  -2  10    0.67    0.94
  -4  -2  10    0.97    1.88
  -4   2  10    1.48    1.01
  -4   2  10    1.58    1.05
  -4   2  10    1.91    0.77
  -4   2  10    2.03    1.29
   4   2 -10    2.52    2.18
   4   2 -10    2.89    0.74
  -3  -2  10   27.25    4.18
  -3  -2  10   40.64    2.83
  -3  -2  10   27.78    3.72
  -3  -2  10   37.88    2.84
   3   2 -10   33.77    3.09
  -3   2  10   36.20    3.13
   3   2 -10   32.64    3.75
   3   2 -10   35.33    2.60
   3   2 -10   40.76    2.86
  -3   2  10   31.96    3.11
  -3   2  10   31.24    3.36
  -3   2  10   34.96    2.66
  -2  -2  10    8.97    1.48
  -2  -2  10   10.99    1.64
   2  -2 -10    8.47    1.63
   2  -2 -10   10.40    1.46
  -2   2  10    9.62    1.79
   2   2 -10   10.20    1.34
   2   2 -10    6.72    1.55
  -2   2  10    6.53    1.35
   2   2 -10    9.62    1.52
  -2   2  10   10.07    1.40
  -2   2  10   10.52    1.93
  -2   2  10   13.54    1.86
   1  -2 -10   78.60    5.77
  -1  -2  10   70.27    5.24
  -1  -2  10   62.67    6.00
  -1  -2  10   72.11    5.87
  -1  -2  10   75.73    4.81
   1   2 -10   77.55    5.60
  -1   2  10   69.70    5.29
   1   2 -10   78.49    5.21
  -1   2  10   63.55    5.71
  -1   2  10   78.49    5.37
  -1   2  10   72.07    5.65
   1   2 -10   71.40    4.79
   0  -2  10    4.10    1.45
   0  -2 -10    5.27    1.86
   0  -2 -10    5.96    1.28
   0  -2  10    5.76    1.00
   0  -2  10    5.82    1.21
   0   2  10    6.09    1.32
   0   2  10    4.31    1.19
   0   2  10    6.54    1.10
   0   2  10    5.27    1.10
   0   2 -10    6.65    1.33
   0   2 -10    6.26    1.37
   0   2 -10    7.36    1.29
  -1  -2 -10   94.37    7.00
   1  -2  10   91.76    6.00
   1  -2  10   97.50    7.23
  -1  -2 -10   98.50    6.59
   1  -2  10   92.11    6.56
   1   2  10   80.55    7.03
  -1   2 -10   82.67    5.83
  -1   2 -10   90.55    6.39
  -1   2 -10  100.64    6.95
   1   2  10   91.62    6.99
  -1   2 -10   95.36    6.84
   1   2  10   93.62    6.58
   1   2  10   83.52    6.47
   2  -2  10   23.90    2.20
   2  -2  10   21.21    2.77
  -2  -2 -10   18.33    3.13
  -2  -2 -10   21.60    2.27
   2   2  10   22.91    2.30
   2   2  10   19.97    2.20
   2   2  10   22.98    2.34
  -2   2 -10   21.84    3.11
  -2   2 -10   22.56    2.20
  -2   2 -10   19.90    1.90
   2   2  10   19.79    2.61
   2   2  10   21.71    2.40
   3  -2  10  141.10    9.59
  -3  -2 -10  111.62    9.21
   3  -2  10  129.95    7.94
   3  -2  10  126.97    8.92
   3   2  10  127.51    7.92
   3   2  10  126.64    8.93
   3   2  10  129.54    7.96
  -3   2 -10  128.21    9.46
  -3   2 -10  138.56    9.49
  -3   2 -10  125.72    8.72
   3   2  10  118.48    9.47
   3   2  10  123.71    9.53
  -4  -2 -10   13.28    2.05
  -4  -2 -10   10.73    1.92
   4  -2  10   14.51    2.02
   4   2  10   12.69    2.17
  -4   2 -10   10.88    2.23
  -4   2 -10    8.76    1.12
   4   2  10   14.63    2.10
  -5  -2 -10   48.19    4.62
   5  -2  10   42.18    3.42
  -5  -2 -10   42.54    3.51
   5   2  10   41.54    3.53
  -5   2 -10   38.01    4.70
   5   2  10   44.66    3.39
  -6  -2 -10    0.37    1.44
  -6  -2 -10    1.50    1.74
   6  -2  10   -0.09    1.27
  -6  -2 -10    0.52    1.44
   6   2  10   -1.50    1.60
   6   2  10    2.67    1.41
  -6   2 -10   -0.70    1.35
  -7  -2 -10   12.12    1.86
  -7   2 -10   10.14    1.77
   7   2  10    7.73    1.45
   7   2  10    8.62    1.55
  -7  -3  10    2.04    1.24
  -7   3  10    1.06    1.21
   7   3 -10    1.86    2.46
  -6  -3  10   16.85    2.35
   6   3 -10   15.95    3.05
  -6   3  10   15.26    2.20
  -6   3  10   15.43    2.20
   5  -3 -10    2.09    2.29
  -5  -3  10    1.31    1.36
  -5  -3  10   -1.64    1.94
   5   3 -10    2.23    2.54
  -5   3  10   -0.61    1.32
  -5   3  10    0.09    1.04
  -5   3  10   -0.17    1.15
  -5   3  10    1.80    0.57
  -4  -3  10   -0.47    1.94
  -4  -3  10    3.98    1.28
  -4   3  10    4.26    1.31
  -4   3  10    2.59    1.11
  -4   3  10    3.65    0.80
   4   3 -10    5.21    2.33
   4   3 -10    3.20    0.66
  -4   3  10    2.99    1.09
   3  -3 -10    7.21    1.48
  -3  -3  10   11.51    1.75
  -3  -3  10    9.83    1.48
   3  -3 -10    8.31    1.87
  -3  -3  10    5.04    1.95
   3  -3 -10    8.97    2.11
  -3   3  10   11.72    1.87
   3   3 -10   11.34    1.48
   3   3 -10   10.21    1.42
   3   3 -10    6.76    2.32
  -3   3  10    9.52    1.54
  -3   3  10    6.11    1.20
  -3   3  10    9.42    2.10
  -3   3  10    7.23    1.14
  -2  -3  10   42.24    3.24
   2  -3 -10   36.44    3.25
  -2  -3  10   37.23    4.13
   2  -3 -10   44.60    4.05
  -2  -3  10   42.52    3.16
   2  -3 -10   43.18    4.17
  -2   3  10   41.68    3.41
  -2   3  10   41.74    3.52
   2   3 -10   44.27    3.26
   2   3 -10   41.87    3.43
   2   3 -10   40.64    2.98
   1  -3 -10    1.07    1.51
   1  -3 -10    2.40    1.90
  -1  -3  10    2.90    1.40
  -1  -3  10    3.88    1.19
   1  -3 -10    3.08    1.11
  -1  -3  10    3.84    0.89
  -1  -3  10    2.18    1.46
  -1   3  10    3.08    1.20
   1   3 -10    3.52    0.89
  -1   3  10    1.76    0.94
   1   3 -10    2.72    0.72
   1   3 -10    4.16    0.86
  -1   3  10    3.20    1.05
   0  -3  10   68.97    4.69
   0  -3 -10   61.78    5.57
   0  -3  10   77.22    5.41
   0  -3  10   71.65    5.76
   0  -3 -10   63.33    5.69
   0  -3  10   63.16    4.97
   0  -3 -10   75.58    5.09
   0   3 -10   69.28    4.57
   0   3 -10   69.89    4.90
   0   3  10   69.18    5.37
   0   3 -10   70.05    5.27
   0   3  10   66.17    5.04
   0   3  10   68.66    5.07
   0   3 -10   68.43    5.25
  -1  -3 -10   18.79    2.99
   1  -3  10   22.63    2.88
  -1  -3 -10   17.99    3.09
   1  -3  10   19.70    2.26
   1  -3  10   19.26    2.07
  -1  -3 -10   20.74    2.22
   1  -3  10   20.64    1.95
  -1   3 -10   20.29    1.83
   1   3  10   18.98    2.29
  -1   3 -10   17.06    1.71
  -1   3 -10   21.04    2.86
  -1   3 -10   22.82    2.03
   1   3  10   19.09    2.14
   1   3  10   19.29    2.28
   2  -3  10  151.67   10.37
   2  -3  10  136.61    9.63
  -2  -3 -10  136.35    9.53
  -2  -3 -10  118.20    9.90
  -2   3 -10  145.51   10.21
  -2   3 -10  124.90    8.63
  -2   3 -10  138.87   10.05
   2   3  10  133.57    9.51
   2   3  10  141.70    9.65
   2   3  10  134.02   10.25
  -2   3 -10  137.33    9.42
   2   3  10  157.42    8.62
   3  -3  10   -0.85    1.17
  -3  -3 -10   -0.19    1.63
   3  -3  10    1.19    1.17
   3   3  10   -0.31    1.06
  -3   3 -10   -0.36    0.43
  -3   3 -10   -0.58    0.45
   3   3  10   -1.02    1.18
   3   3  10   -0.30    1.49
  -3   3 -10    1.04    1.89
   3   3  10    0.81    0.80
  -4  -3 -10   31.39    3.60
   4  -3  10   36.38    2.82
   4   3  10   38.72    2.87
  -4   3 -10   28.19    2.48
   4   3  10   38.78    3.25
  -4   3 -10   35.94    4.32
  -5  -3 -10    1.14    1.48
  -5  -3 -10    0.52    1.57
   5  -3  10    1.62    1.32
   5   3  10    1.11    1.67
  -5   3 -10    0.18    2.12
   5   3  10    2.23    1.33
  -6  -3 -10   17.33    3.27
  -6  -3 -10   20.86    2.59
  -6  -3 -10   20.50    2.73
   6   3  10   19.43    2.73
   6   3  10   19.54    2.39
   7   3  10    1.93    0.99
  -7  -4  10   -1.01    1.83
  -7  -4  10    2.52    1.29
   7   4 -10    4.00    2.69
  -7   4  10    3.70    1.24
   6  -4 -10    0.86    1.99
  -6  -4  10   -1.33    1.92
  -6  -4  10    1.56    1.42
  -6   4  10    2.45    1.29
  -6   4  10    1.03    1.21
   6   4 -10    3.89    2.63
  -5  -4  10    9.91    1.57
   5  -4 -10    5.89    2.19
  -5   4  10   10.31    2.11
  -5   4  10   10.32    2.12
   5   4 -10    9.71    2.63
  -5   4  10    8.35    1.39
   4  -4 -10   20.44    3.21
  -4  -4  10   20.39    2.25
  -4   4  10   18.56    2.02
  -4   4  10   21.45    2.49
   4   4 -10   16.24    1.61
   4   4 -10   13.12    2.84
  -3  -4  10   13.55    1.88
   3  -4 -10    9.10    2.07
  -3  -4  10    5.91    1.97
   3  -4 -10   10.38    1.85
   3   4 -10    9.41    1.37
  -3   4  10    9.61    1.59
  -3   4  10    9.47    1.73
  -3   4  10   10.74    2.12
   3   4 -10    4.52    2.36
   2  -4 -10    6.47    1.64
  -2  -4  10    3.55    1.61
   2  -4 -10    5.97    2.11
  -2  -4  10   10.34    1.85
  -2  -4  10    5.07    1.71
   2   4 -10    7.22    1.27
  -2   4  10    8.76    1.45
  -2   4  10    7.78    1.22
  -1  -4  10   38.60    4.20
   1  -4 -10   43.52    4.31
   1  -4 -10   38.83    4.04
  -1  -4  10   44.81    3.28
  -1  -4  10   40.64    3.90
   1  -4 -10   43.75    3.31
  -1  -4  10   39.56    3.27
  -1   4  10   41.33    3.42
   1   4 -10   43.15    2.97
  -1   4  10   45.37    3.60
  -1   4  10   43.17    3.52
   1   4 -10   41.18    3.20
   1   4 -10   43.25    3.40
   0  -4  10   46.99    4.52
   0  -4 -10   53.22    3.82
   0  -4 -10   48.41    4.61
   0  -4  10   46.30    3.75
   0  -4  10   48.63    3.69
   0  -4 -10   48.29    4.48
   0  -4  10   56.13    4.23
   0   4  10   51.22    4.08
   0   4 -10   48.18    3.40
   0   4  10   50.36    3.91
   0   4  10   45.96    3.82
   0   4 -10   49.49    4.20
   0   4  10   45.11    4.12
   0   4 -10   51.83    3.65
   0   4 -10   54.10    3.90
   1  -4  10   18.52    2.77
  -1  -4 -10   14.90    2.98
   1  -4  10   15.06    1.90
  -1  -4 -10   20.03    1.95
  -1  -4 -10   13.43    2.76
   1  -4  10   19.37    1.82
  -1   4 -10   20.47    2.77
   1   4  10   17.38    2.15
   1   4  10   17.85    2.21
  -1   4 -10   14.74    1.54
  -1   4 -10   17.68    1.70
   1   4  10   19.30    2.13
   2  -4  10   14.59    1.66
  -2  -4 -10    9.25    1.85
   2  -4  10   13.86    1.69
   2  -4  10   16.83    2.56
  -2  -4 -10   12.30    2.06
  -2  -4 -10   13.64    1.59
  -2   4 -10   11.74    1.42
  -2   4 -10   15.79    2.95
   2   4  10   13.04    1.99
   2   4  10   13.77    1.85
  -3  -4 -10   38.00    3.91
   3  -4  10   41.78    3.68
   3  -4  10   38.80    3.06
  -3  -4 -10   33.51    3.84
  -3   4 -10   37.28    4.25
   3   4  10   39.10    3.43
   3   4  10   41.31    3.03
   4  -4  10   16.89    2.17
  -4  -4 -10   15.25    2.87
  -4   4 -10   11.59    2.45
   4   4  10   16.28    2.67
   4   4  10   16.72    2.08
  -5  -4 -10   15.81    2.72
   5  -4  10   14.06    2.24
   5   4  10   10.52    1.99
   5   4  10   12.11    2.08
  -5   4 -10    9.53    2.44
   6  -4  10    0.94    1.33
  -6  -4 -10    2.62    1.34
   6   4  10   -0.47    1.61
  -6   4 -10   -1.19    2.09
   6   4  10    0.09    1.19
   7   4  10    9.72    1.29
  -7  -5  10    1.53    1.16
   7  -5 -10    1.55    1.56
   6  -5 -10   -0.55    1.98
  -6  -5  10   -0.91    1.35
  -6   5  10    0.25    1.03
   6   5 -10    2.17    2.51
  -6   5  10    1.82    1.28
  -5  -5  10    6.32    1.48
  -5  -5  10    0.50    1.92
   5  -5 -10    3.42    2.21
   5  -5 -10    4.10    1.74
   5   5 -10    6.98    2.45
  -5   5  10    6.83    1.29
  -4  -5  10    0.36    1.35
  -4  -5  10   -2.28    1.72
   4  -5 -10   -2.07    1.62
   4   5 -10    2.53    2.24
  -4   5  10   -0.63    1.06
  -4   5  10    0.08    1.37
  -3  -5  10   79.96    5.22
  -3  -5  10   66.68    6.31
   3  -5 -10   79.70    6.32
  -3   5  10   74.82    5.50
  -3   5  10   80.94    5.65
  -3   5  10   73.76    5.00
  -2  -5  10    0.70    1.17
  -2  -5  10    0.68    1.54
  -2  -5  10   -0.27    1.40
   2  -5 -10   -0.67    2.03
   2  -5 -10   -0.26    1.50
  -2   5  10   -0.14    1.24
  -2   5  10   -0.45    0.85
   1  -5 -10   24.77    3.65
  -1  -5  10   29.93    3.31
  -1  -5  10   23.14    3.27
   1  -5 -10   28.10    3.26
  -1  -5  10   30.81    2.68
  -1   5  10   27.03    2.48
  -1   5  10   28.36    2.74
   0  -5 -10   -0.42    1.39
   0  -5 -10    0.29    0.78
   0  -5  10   -1.52    1.33
   0  -5  10   -0.45    0.66
   0  -5  10   -0.52    1.30
   0  -5  10   -0.86    1.34
   0  -5 -10   -2.10    1.89
   0   5  10    1.41    0.90
   0   5 -10    0.55    1.49
   0   5  10    0.21    1.21
  -1  -5 -10   49.91    4.56
   1  -5  10   52.24    4.41
   1  -5  10   51.27    3.72
   1  -5  10   42.40    3.70
  -1  -5 -10   54.52    3.68
  -1  -5 -10   46.14    4.42
  -1   5 -10   46.59    4.35
   1   5  10   47.87    3.90
   1   5  10   50.09    4.03
  -2  -5 -10   -1.80    1.79
   2  -5  10   -0.68    1.31
   2  -5  10   -1.06    0.66
   2  -5  10   -1.18    1.13
  -2  -5 -10   -1.25    1.35
   2   5  10   -0.41    0.55
   2   5  10   -0.47    1.16
  -2   5 -10    0.27    1.79
   3  -5  10   33.83    2.76
  -3  -5 -10   26.50    3.37
  -3  -5 -10   31.14    3.46
   3  -5  10   35.03    3.32
   3   5  10   34.24    3.19
  -3   5 -10   27.66    3.87
   4  -5  10    2.76    1.29
  -4  -5 -10    1.45    1.68
   4   5  10    2.22    1.77
  -4   5 -10   -0.31    2.08
  -5  -5 -10   45.15    4.19
   5  -5  10   47.87    3.55
   5   5  10   47.10    4.03
   6  -5  10    1.95    1.24
   6   5  10    1.65    0.95
   6   5  10   -1.52    1.70
   7  -5  10   11.03    1.39
  -7   6  10    8.02    1.21
  -6  -6  10   -0.82    1.86
   6  -6 -10   -0.17    1.91
  -6  -6  10    0.70    1.25
  -6   6  10    3.97    1.17
   6   6 -10    4.11    2.40
  -6   6  10    2.08    1.17
   5  -6 -10   -0.92    2.16
  -5  -6  10   -1.26    1.90
   5  -6 -10    1.46    1.72
  -5  -6  10    1.82    1.41
  -5   6  10    3.98    1.45
   5   6 -10    2.97    2.17
  -5   6  10    1.36    1.19
   4  -6 -10    7.08    1.86
  -4  -6  10    8.91    1.55
  -4   6  10    7.60    1.32
   4   6 -10    7.22    2.34
  -4   6  10   10.19    1.67
   3  -6 -10    5.12    1.73
  -3  -6  10    6.96    1.38
  -3  -6  10    3.54    1.93
  -3   6  10    5.67    1.09
  -3   6  10    7.20    1.58
  -2  -6  10    3.23    1.75
   2  -6 -10    6.73    1.65
   2  -6 -10    5.57    2.26
  -2  -6  10    6.88    1.50
  -2   6  10    8.07    1.56
  -1  -6  10    0.22    1.40
  -1  -6  10    2.26    1.53
   1  -6 -10    2.49    1.42
  -1  -6  10    2.64    1.38
   1  -6 -10    1.23    2.16
  -1  -6  10    2.09    0.67
   1   6 -10    1.95    1.38
  -1   6  10    3.23    1.37
   0  -6  10   25.49    3.34
   0  -6  10   31.12    3.24
   0  -6 -10   24.26    2.36
   0  -6 -10   28.46    3.24
   0  -6  10   32.34    2.91
   0  -6 -10   28.33    3.66
   0   6 -10   20.74    3.18
   0   6  10   29.71    2.74
  -1  -6 -10   12.05    2.22
  -1  -6 -10   10.70    1.77
   1  -6  10   12.82    2.56
   1   6  10   12.83    2.11
  -1   6 -10    8.93    1.95
   2  -6  10    1.93    1.14
   2  -6  10    1.46    1.32
  -2  -6 -10    1.71    1.43
  -2  -6 -10    2.01    1.82
  -2   6 -10    0.84    1.84
   2   6  10    1.90    1.27
  -3  -6 -10    0.52    1.67
  -3  -6 -10    0.70    1.31
   3  -6  10   -0.10    1.26
   3  -6  10    1.82    1.13
   3   6  10    0.43    1.70
  -3   6 -10   -0.39    1.90
  -4  -6 -10   13.98    2.61
   4  -6  10    9.47    1.42
   4  -6  10    8.73    1.47
  -4  -6 -10    6.84    1.51
  -4   6 -10    4.94    2.26
   4   6  10    7.84    2.02
   5  -6  10    6.95    1.31
  -5   6 -10    4.43    2.07
   5   6  10    3.96    1.90
  -5  -7  10   -1.68    1.85
   5  -7 -10    2.42    1.56
  -5  -7  10   -1.49    1.10
   5  -7 -10   -1.53    1.95
   5   7 -10    0.53    2.01
  -5   7  10    1.99    1.08
  -5   7  10    2.33    1.10
   4  -7 -10    7.04    1.76
  -4  -7  10    0.84    2.02
  -4  -7  10    2.90    1.51
  -4  -7  10   -0.16    1.39
   4  -7 -10    3.67    2.37
   4   7 -10    1.49    2.21
  -3  -7  10    3.18    1.44
  -3  -7  10    1.06    1.89
   3  -7 -10    3.67    1.67
  -3   7  10    5.95    1.60
   2  -7 -10    7.27    2.39
   2  -7 -10   14.09    2.68
  -2  -7  10    7.80    2.05
  -2  -7  10   11.38    1.69
   2   7 -10   12.37    2.30
  -2   7  10   15.64    2.41
   1  -7 -10    3.96    2.12
   1  -7 -10    4.54    1.48
  -1  -7  10    2.33    1.44
  -1  -7  10    2.20    1.57
   1   7 -10    4.23    1.47
  -1   7  10    5.63    1.51
   0  -7  10    9.54    1.70
   0  -7 -10   10.25    2.40
   0  -7  10    7.29    1.61
   0  -7 -10   12.82    2.43
   0   7 -10    6.28    1.78
   0   7  10   12.08    2.20
  -1  -7 -10   13.89    2.38
   1  -7  10   17.34    2.80
  -1  -7 -10   16.68    2.65
   1   7  10   18.74    2.23
  -1   7 -10   11.75    2.12
   2  -7  10   31.87    2.45
  -2  -7 -10   27.33    3.21
   2  -7  10   30.51    3.29
  -2  -7 -10   28.15    3.35
   2   7  10   29.43    2.76
  -2   7 -10   20.28    3.72
   3  -7  10   11.07    1.76
  -3  -7 -10    8.07    1.93
   3  -7  10    8.16    1.56
   3  -7  10    9.12    1.95
  -3  -7 -10    7.71    1.54
   3   7  10   10.06    1.85
  -3   7 -10    4.44    2.17
  -4  -7 -10    4.69    1.66
  -4  -7 -10    5.43    1.22
   4  -7  10    5.36    1.19
   4  -7  10    5.29    1.35
   4   7  10    3.50    1.83
   5  -7  10    2.32    1.59
   5  -7  10    2.90    0.95
   6  -7  10   -0.85    1.29
  -5  -8  10   10.40    1.76
  -4  -8  10   -1.50    1.31
  -4  -8  10   -2.28    1.14
   4  -8 -10   -0.76    2.01
  -4  -8  10   -1.62    1.76
   4  -8 -10    0.42    1.49
   4   8 -10   -3.11    1.93
  -4   8  10    0.97    1.42
  -4   8  10    0.59    0.94
  -3  -8  10    6.11    1.58
  -3  -8  10    4.56    1.89
  -3  -8  10    3.74    1.59
   3   8 -10    8.58    2.20
  -2  -8  10   -0.40    1.37
  -2  -8  10    0.53    1.75
  -2  -8  10   -1.46    1.40
   2  -8 -10    0.18    2.18
   2  -8 -10    1.03    1.53
  -2   8  10    2.12    1.48
   1  -8 -10    4.02    2.18
   1  -8 -10    7.56    1.63
  -1   8  10    8.91    1.65
   1   8 -10    6.87    1.62
   0  -8 -10    1.94    1.42
   0  -8 -10    1.94    2.05
   0  -8  10    1.08    1.52
   0  -8  10    0.48    1.30
   0   8 -10    1.62    1.56
   0   8  10    3.40    1.43
   1  -8  10   12.79    2.84
  -1  -8 -10   15.53    3.08
  -1  -8 -10   17.28    2.75
   1  -8  10   18.81    2.80
   1   8  10   18.55    2.36
   2  -8  10    1.54    1.38
  -2  -8 -10    2.57    1.37
  -2  -8 -10    3.14    1.74
   2   8  10    1.73    1.18
  -2   8 -10   -0.27    1.72
   3  -8  10   14.82    2.83
   3  -8  10   17.44    2.57
  -3  -8 -10   15.41    2.57
  -3  -8 -10   13.40    2.37
   3   8  10    9.54    1.85
   4  -8  10   -2.49    1.56
   4  -8  10   -1.15    0.73
   5  -8  10    2.36    1.35
  -4  -9  10   -0.24    1.01
   4  -9 -10   -1.40    1.58
   4  -9 -10    3.89    1.49
  -4   9  10    2.99    0.73
  -3  -9  10   -1.84    1.26
  -3  -9  10   -2.05    1.67
   3  -9 -10    2.61    1.44
   3  -9 -10   -0.17    1.88
   3   9 -10    2.98    1.90
   2  -9 -10    6.23    1.64
  -2   9  10    8.37    1.66
   2   9 -10   11.13    2.15
   1  -9 -10    4.01    2.01
   1  -9 -10    2.50    1.42
  -1  -9  10    0.50    1.53
  -1   9  10    3.68    1.41
   1   9 -10    4.24    1.41
   0  -9  10    0.31    1.29
   0  -9 -10    2.74    1.28
   0  -9 -10    4.28    1.99
   0  -9  10    2.19    1.53
   0   9 -10    0.99    1.46
   0   9  10    3.66    1.17
   1  -9  10    4.33    1.47
  -1  -9 -10    6.44    1.81
   1  -9  10    2.22    1.48
  -1  -9 -10    4.23    1.25
  -2  -9 -10   15.35    2.38
   2  -9  10   17.92    2.66
  -2  -9 -10   17.43    2.70
   2   9  10   17.65    1.99
   3  -9  10    3.74    1.29
  -3  -9 -10    2.23    0.92
  -4  10  10    2.54    0.65
   0 -10  10    7.39    1.52
   0  10 -10    5.57    1.34
   1  10  10    2.44    1.00
   2  10  10    7.99    1.20
  -7   0  11    8.25    1.47
   7   0 -11    6.89    2.52
  -6   0  11   -1.28    1.72
   6   0 -11    3.44    2.59
  -6   0  11   -0.91    1.23
   5   0 -11   41.77    4.40
  -5   0  11   43.20    3.20
  -5   0  11   40.47    3.67
   4   0 -11    2.31    2.22
  -4   0  11    0.04    1.07
  -4   0  11   -0.31    1.34
  -4   0  11    0.45    1.44
  -4   0  11   -0.47    0.93
   4   0 -11   -0.82    0.65
  -3   0  11   64.51    4.53
   3   0 -11   57.63    4.04
   3   0 -11   59.06    4.86
  -3   0  11   61.07    4.12
   3   0 -11   59.39    4.46
  -3   0  11   57.03    4.68
  -2   0  11   -0.43    1.41
   2   0 -11   -0.42    0.92
  -2   0  11   -0.23    0.90
  -2   0  11   -0.14    0.86
  -2   0  11   -0.67    1.01
  -2   0  11   -1.48    1.27
   2   0 -11    1.38    1.86
   2   0 -11   -0.09    0.79
  -1   0  11   91.26    6.30
   1   0 -11   84.79    5.86
   1   0 -11   74.69    6.29
  -1   0  11   85.02    5.93
  -1   0  11   82.92    5.29
   1   0 -11   81.28    5.29
  -1   0  11   69.97    5.94
   0   0  11   -0.04    0.81
   0   0  11    0.63    0.89
   0   0 -11    0.36    0.95
   0   0  11   -0.34    1.23
   0   0 -11    4.50    2.01
   0   0  11    0.99    1.00
   1   0  11  236.19   17.40
   1   0  11  244.62   16.40
   1   0  11  219.35   17.47
  -1   0 -11  244.78   16.60
  -1   0 -11  246.54   16.19
  -2   0 -11   -1.08    0.84
   2   0  11   -0.57    1.22
  -2   0 -11   -0.91    1.57
   2   0  11    1.25    0.88
   2   0  11    0.61    0.83
  -2   0 -11    4.05    1.97
  -3   0 -11  112.37    8.19
   3   0  11  113.50    8.09
   3   0  11  103.32    6.83
   3   0  11   97.08    7.62
  -3   0 -11  113.16    8.06
  -4   0 -11   -0.97    1.17
   4   0  11   -0.19    1.28
  -4   0 -11   -1.45    1.84
  -4   0 -11    2.05    1.77
  -5   0 -11   66.31    5.84
  -5   0 -11   61.80    4.63
   5   0  11   67.40    4.57
  -5   0 -11   64.51    5.38
   5   0  11   64.47    4.52
  -6   0 -11    0.53    1.27
   6   0  11   -1.51    1.06
  -6   0 -11   -2.76    1.63
  -7   0 -11    2.03    1.09
  -7  -1  11    1.16    1.20
  -7  -1  11   -2.57    1.56
   7  -1 -11    1.54    2.34
   7   1 -11    3.02    2.44
  -7   1  11    0.54    1.21
  -6  -1  11    2.77    1.31
   6  -1 -11    4.14    2.59
  -6   1  11    2.32    1.35
   6   1 -11    6.09    2.65
  -6   1  11    2.09    1.26
   5  -1 -11    1.54    2.37
  -5  -1  11   -1.23    1.87
  -5  -1  11    1.14    0.69
  -5  -1  11    0.41    1.23
  -5   1  11    1.17    0.61
  -5   1  11   -0.05    1.37
   5   1 -11    3.16    2.53
  -5   1  11   -0.71    1.16
  -5   1  11   -0.30    1.19
  -4  -1  11    3.77    1.25
   4  -1 -11    7.26    2.22
  -4   1  11    3.85    1.20
  -4   1  11    4.52    0.95
  -4   1  11    4.89    1.01
  -4   1  11    3.80    1.38
   4   1 -11    4.28    0.82
   4   1 -11    5.35    2.32
  -3  -1  11   -0.86    0.93
   3  -1 -11    0.09    0.74
  -3  -1  11   -1.25    0.89
  -3  -1  11   -2.09    1.40
   3  -1 -11    2.75    1.88
  -3  -1  11   -0.02    1.10
   3  -1 -11   -1.13    0.82
  -3   1  11   -0.10    1.15
  -3   1  11    0.35    0.83
   3   1 -11    2.91    2.12
   3   1 -11   -1.23    0.78
  -3   1  11    1.88    0.99
  -3   1  11   -0.39    0.95
  -3   1  11    0.54    1.31
   3   1 -11   -0.11    0.67
  -2  -1  11   54.88    3.98
   2  -1 -11   46.96    3.95
  -2  -1  11   53.40    3.62
   2  -1 -11   47.56    3.56
  -2  -1  11   54.84    4.26
  -2   1  11   45.97    4.47
  -2   1  11   56.37    4.24
  -2   1  11   52.20    4.11
   2   1 -11   48.87    3.54
  -2   1  11   52.04    3.57
   2   1 -11   53.20    3.91
  -1  -1  11    3.70    1.00
  -1  -1  11    4.60    1.09
  -1  -1  11    2.71    1.53
   1  -1 -11    3.89    0.91
   1  -1 -11    6.66    2.01
  -1  -1  11    3.39    0.95
   1  -1 -11    3.92    1.13
   1   1 -11    3.09    0.96
  -1   1  11    3.61    1.24
   1   1 -11    4.35    0.88
  -1   1  11    4.49    0.97
  -1   1  11    5.21    1.07
  -1   1  11    4.77    1.32
  -1   1  11    4.43    0.96
   0  -1 -11   64.22    4.36
   0  -1  11   57.64    3.88
   0  -1  11   47.16    4.90
   0  -1 -11   60.49    4.85
   0  -1  11   57.30    4.53
   0  -1  11   56.80    4.27
   0   1 -11   50.04    3.76
   0   1  11   58.15    4.28
   0   1  11   61.99    4.57
   0   1 -11   54.94    4.15
   0   1  11   55.49    4.36
   0   1  11   51.91    4.78
   1  -1  11   45.91    3.48
  -1  -1 -11   54.76    4.49
   1  -1  11   41.43    3.99
  -1  -1 -11   49.44    4.22
   1  -1  11   43.70    4.44
   1  -1  11   51.95    3.81
  -1  -1 -11   54.58    3.84
  -1   1 -11   45.57    3.29
   1   1  11   50.49    4.03
  -1   1 -11   46.32    3.68
   1   1  11   50.05    3.88
   1   1  11   45.84    4.25
   1   1  11   50.82    3.79
  -1   1 -11   48.63    4.49
   2  -1  11  101.48    7.10
   2  -1  11   97.60    7.51
  -2  -1 -11  104.08    7.53
  -2  -1 -11  108.30    7.08
   2  -1  11  100.88    7.72
  -2  -1 -11  100.65    7.61
  -2   1 -11   96.14    6.95
   2   1  11  101.11    7.55
  -2   1 -11   94.87    7.54
  -2   1 -11   99.00    7.57
   2   1  11   92.94    7.11
   2   1  11   99.04    7.66
   3  -1  11   43.46    3.63
   3  -1  11   43.82    3.45
  -3  -1 -11   43.68    4.22
   3  -1  11   46.03    3.37
  -3  -1 -11   44.45    4.42
  -3   1 -11   38.65    4.50
   3   1  11   43.58    3.25
   3   1  11   45.82    3.93
   3   1  11   43.86    3.36
   3   1  11   44.91    3.68
  -3   1 -11   42.97    3.26
  -3   1 -11   43.39    4.27
  -4  -1 -11   34.87    3.78
   4  -1  11   30.57    2.72
  -4  -1 -11   36.89    4.09
  -4  -1 -11   31.34    2.89
   4  -1  11   35.72    2.99
   4   1  11   38.19    2.97
  -4   1 -11   30.87    3.77
  -4   1 -11   33.04    4.17
   4   1  11   36.09    2.91
  -5  -1 -11   19.63    2.47
   5  -1  11   23.25    2.48
  -5  -1 -11   21.16    3.17
  -5  -1 -11   22.51    3.59
   5   1  11   23.76    2.52
   5   1  11   21.92    2.50
  -5   1 -11   15.42    2.67
  -5   1 -11   20.08    2.48
  -6  -1 -11   18.44    3.14
  -6  -1 -11   22.35    2.51
   6  -1  11   14.32    2.22
  -6   1 -11   22.01    2.45
   6   1  11   16.39    2.29
   6   1  11   22.75    2.53
  -7  -1 -11    4.08    1.16
  -7   1 -11    4.47    1.20
   7  -2 -11    5.52    2.39
  -7  -2  11    2.30    1.29
   7   2 -11    4.75    2.59
  -7   2  11    3.71    1.22
   6  -2 -11    5.28    2.48
  -6  -2  11    3.31    1.35
   6   2 -11    6.75    2.78
  -6   2  11    2.79    1.31
  -6   2  11    3.20    1.26
  -5  -2  11    3.41    1.34
  -5  -2  11   -0.14    1.97
  -5   2  11    3.37    1.20
   5   2 -11    4.62    2.62
  -5   2  11    4.20    1.41
  -5   2  11    2.67    1.12
  -4  -2  11   26.51    4.33
  -4  -2  11   37.50    2.90
   4  -2 -11   36.09    3.70
  -4  -2  11   37.41    3.30
   4   2 -11   29.40    3.91
  -4   2  11   34.24    2.77
   4   2 -11   38.03    2.75
  -4   2  11   38.22    3.22
  -4   2  11   33.10    3.46
  -3  -2  11    0.90    1.94
  -3  -2  11    4.66    1.18
   3   2 -11    3.21    0.78
  -3   2  11    5.04    1.38
  -3   2  11    4.28    1.18
  -3   2  11    3.77    0.93
   3   2 -11    4.59    2.30
  -3   2  11    3.34    1.08
  -3   2  11    5.37    1.10
   2  -2 -11   30.29    3.38
  -2  -2  11   23.54    2.25
  -2  -2  11   17.31    3.52
   2  -2 -11   21.56    2.28
   2  -2 -11   23.71    2.06
  -2  -2  11   27.52    2.28
  -2   2  11   29.07    2.43
  -2   2  11   18.37    2.79
  -2   2  11   25.02    2.48
   2   2 -11   24.29    1.96
  -2   2  11   22.17    2.01
  -2   2  11   24.06    2.58
   2   2 -11   24.42    2.21
   2   2 -11   23.03    2.30
  -1  -2  11    1.28    1.57
   1  -2 -11    3.70    1.16
   1  -2 -11    7.80    2.03
  -1  -2  11    4.15    1.19
  -1  -2  11    2.90    0.92
  -1  -2  11    1.87    1.55
  -1   2  11    4.83    1.05
  -1   2  11    3.65    0.97
  -1   2  11    5.05    1.34
   1   2 -11    3.58    0.78
  -1   2  11    3.16    1.16
   1   2 -11    3.79    0.92
   1   2 -11    4.01    0.88
   0  -2  11   97.93    7.14
   0  -2  11  101.72    6.51
   0  -2 -11  100.14    7.57
   0  -2 -11  110.30    7.17
   0   2 -11   94.87    6.43
   0   2  11  104.40    7.19
   0   2  11  100.90    7.61
   0   2 -11  107.59    7.59
   0   2  11   94.37    7.12
   0   2  11   92.86    7.71
   0   2 -11   99.62    7.00
  -1  -2 -11   18.81    3.19
   1  -2  11   15.48    2.16
   1  -2  11   15.71    3.00
   1  -2  11   19.09    2.06
  -1  -2 -11   20.25    2.17
   1   2  11   19.23    2.25
  -1   2 -11   21.57    2.01
   1   2  11   16.47    2.52
   1   2  11   19.95    2.22
   1   2  11   20.00    2.10
  -1   2 -11   16.10    1.68
  -1   2 -11   17.30    1.82
  -1   2 -11   16.50    2.92
   2  -2  11   19.61    2.85
  -2  -2 -11   18.28    3.20
  -2  -2 -11   20.20    2.14
  -2   2 -11   20.66    3.12
  -2   2 -11   18.75    1.83
   2   2  11   20.90    2.31
   2   2  11   18.52    2.23
   2   2  11   18.88    2.65
  -2   2 -11   22.72    1.98
   2   2  11   19.86    2.31
   3  -2  11    1.70    1.24
  -3  -2 -11    0.42    1.79
   3  -2  11    1.49    1.24
  -3   2 -11    1.22    1.82
   3   2  11    1.91    1.14
   3   2  11    1.14    1.32
   3   2  11    1.20    1.25
  -3   2 -11    0.47    0.53
   4  -2  11   58.88    4.03
  -4  -2 -11   59.72    5.23
  -4  -2 -11   53.66    4.04
  -4  -2 -11   54.39    4.95
   4  -2  11   54.83    4.12
  -4   2 -11   52.43    3.96
   4   2  11   60.72    4.02
  -4   2 -11   55.03    5.26
   4   2  11   57.80    4.07
  -5  -2 -11   13.65    2.13
  -5  -2 -11   14.73    2.26
   5  -2  11   14.28    2.24
  -5  -2 -11   12.92    2.28
  -5   2 -11   11.78    2.44
  -5   2 -11   12.88    2.28
   5   2  11   14.62    2.44
   5   2  11   15.80    2.33
   6  -2  11   23.16    2.53
  -6  -2 -11   28.10    3.54
  -6  -2 -11   24.10    2.57
  -6  -2 -11   20.96    2.85
   6   2  11   22.57    2.48
  -6   2 -11   26.47    2.55
  -6   2 -11   17.81    2.78
   6   2  11   20.08    2.71
  -7  -3  11    0.90    1.26
   7   3 -11    2.26    2.51
  -7   3  11    1.70    1.15
  -6  -3  11   -1.96    1.32
  -6   3  11   -0.82    1.21
  -6   3  11   -0.63    1.12
   6   3 -11    2.39    2.61
  -5  -3  11    6.63    1.43
  -5   3  11    7.09    1.50
  -5   3  11    5.66    1.23
  -5   3  11    4.86    1.19
   5   3 -11    5.46    2.60
  -4  -3  11    0.61    1.24
  -4  -3  11   -1.65    1.94
  -4  -3  11   -2.36    1.52
  -4   3  11   -0.31    1.01
  -4   3  11   -0.25    1.08
  -4   3  11    0.83    1.34
   4   3 -11    3.27    2.35
   3  -3 -11   27.11    3.48
  -3  -3  11   30.52    2.53
  -3   3  11   24.24    2.99
  -3   3  11   31.50    2.63
  -3   3  11   27.30    2.83
  -3   3  11   24.87    2.29
   2  -3 -11    2.92    1.98
  -2  -3  11   -0.24    1.61
  -2  -3  11    0.58    1.18
  -2  -3  11   -0.14    1.58
  -2   3  11   -0.42    0.90
  -2   3  11    0.42    0.96
  -2   3  11    0.47    1.26
   2   3 -11    1.03    0.73
  -2   3  11   -1.24    1.11
   1  -3 -11   11.72    1.64
   1  -3 -11   16.02    3.09
  -1  -3  11    8.94    1.80
   1  -3 -11    9.97    1.98
  -1  -3  11   11.84    1.60
  -1  -3  11   15.09    1.94
  -1   3  11    9.15    1.53
  -1   3  11   13.04    2.07
  -1   3  11   14.32    1.89
   1   3 -11   12.11    1.46
   1   3 -11   13.85    1.37
   0  -3  11    0.17    1.25
   0  -3 -11   -0.90    1.61
   0  -3 -11   -1.33    1.93
   0  -3 -11   -1.83    1.01
   0  -3  11    0.19    1.53
   0  -3  11   -0.20    0.82
   0   3  11    0.49    1.24
   0   3  11   -0.84    0.91
   0   3 -11    1.32    0.72
   0   3  11   -1.30    1.15
   0   3  11   -0.76    0.89
   0   3 -11    0.02    0.66
   0   3 -11   -0.21    0.53
   1  -3  11    4.93    1.58
  -1  -3 -11    5.12    2.00
  -1  -3 -11    8.69    1.29
   1  -3  11    6.04    1.04
   1  -3  11    5.43    1.39
  -1   3 -11    7.31    1.19
   1   3  11    8.69    1.73
   1   3  11    4.98    1.02
  -1   3 -11    5.69    1.07
  -1   3 -11    5.78    0.85
   1   3  11    8.91    1.43
  -1   3 -11    7.38    1.71
   1   3  11    4.05    1.30
   2  -3  11    1.63    1.33
  -2  -3 -11    0.41    0.87
  -2  -3 -11   -1.22    1.84
   2  -3  11    2.25    0.84
   2   3  11   -0.50    1.34
  -2   3 -11   -0.88    0.51
   2   3  11    1.03    1.20
  -2   3 -11    1.84    1.79
   2   3  11   -0.28    1.13
   3  -3  11   28.47    3.07
  -3  -3 -11   21.08    3.40
   3  -3  11   26.77    2.59
   3  -3  11   30.40    2.31
   3   3  11   29.24    2.79
   3   3  11   25.24    2.54
   3   3  11   21.93    2.91
  -3   3 -11   23.25    3.80
   3   3  11   24.59    2.59
  -4  -3 -11    0.60    1.75
   4  -3  11    1.54    1.27
   4   3  11    1.20    1.34
  -4   3 -11   -0.95    2.11
   4   3  11    0.40    1.58
  -5  -3 -11   31.48    3.69
   5  -3  11   34.30    3.03
  -5   3 -11   33.37    4.47
   5   3  11   35.75    3.05
   5   3  11   36.89    3.34
  -6  -3 -11    0.63    1.73
  -6  -3 -11    2.16    1.36
  -6  -3 -11   -1.02    1.23
   6  -3  11   -0.14    1.30
   6   3  11   -1.61    1.11
  -6   3 -11   -1.80    1.16
   6   3  11   -0.55    1.29
  -7   4  11    5.02    1.04
  -6  -4  11    1.19    1.23
   6  -4 -11    3.02    1.87
  -6   4  11    2.14    1.29
   6   4 -11    1.24    2.28
  -6   4  11    2.68    1.12
  -5  -4  11   -0.06    2.08
  -5  -4  11    2.25    1.36
  -5   4  11    2.18    1.39
  -5   4  11    2.18    1.18
  -5   4  11    1.61    1.10
   5   4 -11    4.15    2.55
  -4  -4  11   28.27    4.46
  -4  -4  11   38.40    3.05
  -4   4  11   35.97    3.49
  -4   4  11   36.00    2.84
   4   4 -11   26.60    4.15
  -4   4  11   41.75    3.33
   3  -4 -11    2.62    1.98
   3  -4 -11   -1.74    1.67
  -3  -4  11   -0.79    1.82
  -3  -4  11    1.01    1.26
  -3  -4  11   -0.04    1.59
  -3   4  11   -0.66    0.94
  -3   4  11    1.99    0.87
  -3   4  11   -0.39    1.40
   3   4 -11   -3.86    2.20
   2  -4 -11   15.58    3.04
  -2  -4  11   16.33    2.12
  -2   4  11   16.75    2.36
  -2   4  11   16.75    1.98
   1  -4 -11    7.58    2.22
  -1  -4  11    6.75    1.62
  -1  -4  11    5.26    1.75
  -1  -4  11   10.89    1.98
   1  -4 -11    7.88    1.76
  -1   4  11   11.30    1.97
   0  -4 -11   50.17    4.69
   0  -4  11   52.59    3.80
   0  -4  11   50.28    4.79
   0  -4 -11   49.91    4.82
   0  -4  11   52.94    3.84
   0   4  11   53.00    4.02
   0   4 -11   48.77    4.34
   0   4  11   50.18    4.20
  -1  -4 -11   18.19    3.05
  -1  -4 -11   22.60    1.93
  -1  -4 -11   16.22    3.31
   1  -4  11   19.58    3.09
   1  -4  11   16.16    2.04
   1  -4  11   21.45    1.92
   1   4  11   15.67    2.22
  -1   4 -11   20.63    2.92
   1   4  11   19.96    2.34
   2  -4  11   19.80    2.87
   2  -4  11   15.80    1.81
  -2  -4 -11   17.73    1.60
  -2  -4 -11   13.18    2.93
  -2  -4 -11   13.26    2.31
  -2   4 -11   18.05    3.25
   2   4  11   17.14    2.14
   3  -4  11   53.07    4.19
   3  -4  11   47.43    3.52
  -3  -4 -11   41.50    4.34
   3   4  11   39.68    4.11
   3   4  11   47.28    3.42
  -3   4 -11   43.79    4.69
   3   4  11   47.72    3.81
  -4  -4 -11   23.94    3.26
   4  -4  11   28.05    2.97
   4  -4  11   24.86    2.59
   4   4  11   24.81    2.49
   4   4  11   26.80    3.06
  -4   4 -11   23.32    4.01
  -5  -4 -11   31.60    3.41
   5  -4  11   27.63    2.82
   5   4  11   30.52    3.14
   5   4  11   28.55    2.68
   6  -4  11    3.54    1.33
   6   4  11    1.71    1.09
   6   4  11    1.00    1.66
  -7   5  11    0.57    0.75
   6  -5 -11   -1.36    1.65
  -6  -5  11   -2.91    1.84
  -6  -5  11   -0.26    1.33
  -6   5  11    1.58    1.10
   6   5 -11    2.49    2.52
  -6   5  11    2.92    1.24
   5  -5 -11   -2.08    1.73
  -5  -5  11   -1.90    1.80
  -5  -5  11   -0.97    1.32
   5   5 -11    3.89    2.39
  -5   5  11   -0.33    1.41
  -5   5  11    0.49    1.08
  -5   5  11   -0.38    1.12
  -4  -5  11    0.10    1.33
   4  -5 -11   -0.57    1.71
  -4   5  11    1.48    1.45
   4   5 -11    2.85    2.34
  -4   5  11    0.86    1.06
  -3  -5  11    0.07    1.32
   3  -5 -11   -1.59    2.02
  -3  -5  11   -1.70    1.49
   3  -5 -11   -1.84    1.61
  -3  -5  11   -1.96    1.65
  -3   5  11   -0.22    1.40
  -3   5  11   -1.10    0.95
  -2  -5  11    6.81    1.39
   2  -5 -11    3.74    1.64
   2  -5 -11    4.10    2.23
  -2  -5  11    0.83    1.71
  -2   5  11    6.69    1.48
   1  -5 -11   -0.71    2.18
  -1  -5  11   -1.73    1.51
  -1  -5  11    1.31    1.48
  -1  -5  11    0.88    1.37
   1  -5 -11    0.90    1.54
  -1   5  11    1.17    1.35
   0  -5 -11   43.04    4.43
   0  -5  11   43.90    3.50
   0  -5  11   43.54    3.24
   0  -5 -11   38.81    4.08
   0  -5  11   38.54    4.19
   0   5  11   43.16    3.58
  -1  -5 -11    1.29    1.92
  -1  -5 -11    1.51    1.52
   1  -5  11    1.68    1.47
   1   5  11    2.27    1.27
  -1   5 -11    2.78    1.67
   2  -5  11   39.94    2.98
  -2  -5 -11   33.94    3.92
   2  -5  11   40.34    3.75
  -2  -5 -11   35.15    3.84
   2   5  11   36.72    3.13
   2   5  11   32.16    2.90
  -2   5 -11   31.73    4.05
  -3  -5 -11    5.39    1.90
   3  -5  11    5.21    1.44
  -3  -5 -11    4.95    1.56
   3  -5  11    6.78    1.36
   3   5  11    6.81    1.76
  -3   5 -11    4.44    2.06
  -4  -5 -11   24.56    3.27
   4  -5  11   26.81    2.64
  -4   5 -11   19.12    3.97
   4   5  11   27.62    3.04
  -5  -5 -11    1.78    1.33
   5  -5  11   -1.13    0.98
   5   5  11   -1.27    1.22
  -6  -5 -11   16.02    2.08
  -6   6  11    1.82    1.05
  -6   6  11    3.59    1.08
  -5  -6  11    5.77    1.26
   5  -6 -11    7.76    1.85
  -5  -6  11    5.44    2.23
   5   6 -11    8.67    2.46
   4  -6 -11    1.59    1.74
  -4  -6  11    1.77    1.33
  -4  -6  11   -0.93    2.04
  -4   6  11    2.19    1.08
   4   6 -11    1.25    2.24
  -4   6  11    3.00    1.52
   3  -6 -11   14.13    3.08
  -3  -6  11   13.19    2.22
  -3   6  11   17.73    2.41
   2  -6 -11    3.82    2.28
   2  -6 -11    5.30    1.75
  -2  -6  11    3.03    1.79
  -2  -6  11    2.11    1.63
  -2  -6  11    5.68    1.44
  -2   6  11    6.05    1.46
  -1  -6  11   31.44    3.72
   1  -6 -11   33.79    4.12
   1  -6 -11   36.98    3.74
  -1  -6  11   36.24    2.95
  -1  -6  11   24.95    3.62
   1   6 -11   25.50    3.33
  -1   6  11   37.09    3.18
   0  -6 -11    1.67    2.12
   0  -6 -11    4.36    1.59
   0  -6  11    3.30    1.48
   0  -6  11    0.74    1.52
   0  -6  11    3.35    1.59
   0   6  11    3.20    1.39
   0   6 -11    2.60    1.58
  -1  -6 -11   40.13    4.27
   1  -6  11   43.19    4.11
  -1  -6 -11   41.44    4.07
   1   6  11   45.30    3.54
  -1   6 -11   31.58    4.09
   2  -6  11    3.29    1.21
  -2  -6 -11    3.31    1.49
  -2  -6 -11    3.56    1.98
   2  -6  11    1.13    1.43
  -2   6 -11    2.00    1.89
   2   6  11    3.23    1.27
   3  -6  11   43.65    3.29
  -3  -6 -11   46.27    4.23
  -3  -6 -11   40.27    4.09
   3   6  11   41.65    3.70
   4  -6  11    3.91    1.32
  -4  -6 -11    2.87    1.30
  -4  -6 -11    3.68    1.42
   4  -6  11    4.69    1.33
   4   6  11    3.63    1.80
   5  -6  11   17.69    2.05
   5   6  11   16.56    2.63
   6  -7 -11    1.09    1.43
   5  -7 -11   -2.55    1.76
   5  -7 -11    0.99    1.56
  -5   7  11    1.85    0.76
  -5   7  11    3.71    1.34
  -4  -7  11    4.28    1.32
   4  -7 -11    6.42    1.81
  -4   7  11    4.17    1.04
  -4   7  11    6.03    1.15
   4   7 -11    3.71    2.20
   3  -7 -11    0.62    1.65
  -3  -7  11   -1.65    1.37
  -3  -7  11    0.41    1.84
  -3   7  11    1.07    1.42
   2  -7 -11    4.25    1.66
  -2  -7  11    3.76    1.85
   2  -7 -11    0.09    2.26
  -2  -7  11    3.41    1.44
  -2   7  11    5.76    1.50
   1  -7 -11    0.89    1.54
  -1  -7  11   -0.32    1.58
  -1  -7  11   -1.15    1.41
   1  -7 -11   -1.22    2.10
  -1  -7  11   -2.33    1.40
   1   7 -11    0.90    1.41
  -1   7  11    0.49    1.33
   0  -7 -11    0.05    2.02
   0  -7  11   -2.18    1.33
   0  -7 -11   -0.42    1.49
   0  -7  11   -1.70    1.38
   0   7  11    0.92    1.31
   0   7 -11   -1.03    1.62
  -1  -7 -11    7.45    2.30
   1  -7  11    5.89    1.61
  -1  -7 -11    6.23    1.63
   1  -7  11    8.20    1.19
   1   7  11    8.21    1.50
  -1   7 -11    3.39    1.85
  -2  -7 -11   -1.20    1.87
  -2  -7 -11    0.88    1.43
   2  -7  11   -0.96    1.38
   2   7  11    1.43    1.24
  -2   7 -11   -2.72    1.86
  -3  -7 -11    4.96    1.37
   3  -7  11    4.91    1.44
  -3  -7 -11    4.60    1.38
   3  -7  11    7.33    1.25
   3   7  11    5.40    1.61
  -4  -7 -11    1.82    1.56
   4  -7  11   -1.26    1.14
   4  -7  11    1.07    1.04
  -4  -7 -11    2.92    1.10
   4   7  11    0.73    1.71
   5  -7  11   15.67    1.72
   5  -8 -11    4.29    1.26
  -5   8  11    1.75    0.76
   4  -8 -11   -1.69    1.70
  -4  -8  11    1.42    1.34
   3  -8 -11    1.15    1.26
  -3  -8  11   -1.22    1.10
  -3  -8  11   -1.25    1.73
   3   8 -11    4.68    2.16
  -3   8  11    2.15    1.42
  -2  -8  11    2.69    1.84
   2  -8 -11    5.67    1.59
   2  -8 -11    6.05    2.24
  -2  -8  11    2.95    1.47
  -2   8  11    4.67    1.10
  -1  -8  11   -1.14    1.36
  -1  -8  11   -1.36    1.53
   1  -8 -11    1.36    2.18
   1  -8 -11   -0.30    1.42
  -1   8  11   -0.39    1.38
   1   8 -11    0.03    1.44
   0  -8 -11   11.43    2.31
   0  -8  11   13.55    2.71
   0  -8  11    8.63    1.65
   0   8 -11    8.93    1.81
  -1  -8 -11    1.38    1.39
   1  -8  11   -1.69    1.27
  -1  -8 -11    1.56    2.04
  -1   8 -11   -1.42    1.68
   1   8  11    0.73    1.27
  -2  -8 -11    3.84    1.43
  -2  -8 -11    3.91    1.83
   2   8  11    4.95    1.30
  -3  -8 -11    0.39    1.66
  -3  -8 -11    2.35    1.09
   3  -8  11   -0.19    1.55
   3   8  11   -0.15    1.52
   4  -8  11   16.88    2.05
  -4  -8 -11   13.13    1.74
   2  -9 -11    4.35    1.51
   2  -9 -11    7.17    1.85
   1  -9 -11    2.45    1.38
   1  -9 -11    6.81    1.87
   1   9 -11    1.45    1.24
  -1   9  11    2.94    1.40
   0  -9  11    1.03    1.42
   0  -9 -11    2.08    1.29
   0   9  11    2.46    1.22
  -1  -9 -11    3.30    1.28
   1  -9  11   -1.56    1.26
  -1  -9 -11    3.39    1.79
   1  -9  11    0.73    1.19
   1   9  11    1.80    1.05
  -1   9 -11   -1.80    1.44
  -2  -9 -11    2.23    1.17
   2  -9  11    1.12    1.35
  -3  -9 -11    8.14    1.64
   1 -10 -11   16.18    2.25
   0 -10  11    5.06    1.21
  -7   0  12    0.97    1.12
   7   0 -12    2.49    2.41
  -7   0  12    0.68    1.59
  -6   0  12   16.80    3.39
  -6   0  12   18.51    2.13
   6   0 -12   18.81    3.68
   5   0 -12    4.38    2.48
   4   0 -12   48.69    4.71
  -4   0  12   51.96    3.70
  -4   0  12   50.93    4.24
  -3   0  12   -0.19    1.10
  -3   0  12    0.29    1.52
  -3   0  12    0.24    1.35
   3   0 -12    2.86    1.93
  -2   0  12   39.07    2.90
   2   0 -12   36.90    3.70
   2   0 -12   41.08    2.78
  -2   0  12   34.76    3.44
   1   0 -12    1.31    0.75
  -1   0  12    1.19    1.03
   1   0 -12    0.69    0.72
  -1   0  12    1.63    0.81
  -1   0  12    0.72    1.30
  -1   0  12    1.86    0.95
   0   0  12   94.29    6.21
   0   0 -12   78.02    5.48
   0   0  12   85.91    5.55
   0   0  12   77.86    6.82
   0   0 -12   86.58    6.09
   0   0 -12   87.73    6.69
   0   0  12   88.56    6.56
   1   0  12    0.54    1.31
  -1   0 -12    0.76    1.46
   1   0  12    1.86    0.89
   1   0  12    2.13    0.83
  -1   0 -12    1.49    0.71
  -1   0 -12    3.87    2.13
   2   0  12   23.17    3.04
  -2   0 -12   25.74    3.46
   2   0  12   25.48    2.54
  -2   0 -12   29.43    3.46
  -2   0 -12   26.51    2.14
  -3   0 -12    0.58    1.76
   3   0  12    0.52    1.26
  -3   0 -12    2.87    1.93
  -4   0 -12   71.39    5.95
  -4   0 -12   66.56    5.65
   4   0  12   66.78    4.73
  -5   0 -12    1.00    1.23
  -5   0 -12   -0.49    1.91
  -5   0 -12    1.28    1.68
   5   0  12   -0.93    1.24
  -6   0 -12   34.43    4.01
  -6   0 -12   30.60    2.78
   6   0  12   34.98    3.01
  -7  -1  12    1.61    1.23
   7  -1 -12    1.16    1.72
  -7  -1  12   -2.08    1.65
  -7   1  12    0.17    1.22
  -7   1  12    2.87    1.42
   7   1 -12    2.55    2.48
   6  -1 -12    3.38    2.48
  -6  -1  12   -3.02    1.88
  -6  -1  12    0.21    1.24
   6   1 -12    3.07    2.60
  -6   1  12   -2.20    1.24
  -6   1  12    0.05    1.22
   5  -1 -12    5.46    2.35
  -5  -1  12   -0.36    1.89
  -5  -1  12    2.65    1.27
  -5   1  12    0.61    1.21
  -5   1  12    1.75    1.45
   5   1 -12    5.26    2.69
  -5   1  12    1.84    1.24
  -4  -1  12    1.90    1.81
  -4  -1  12    3.69    1.30
  -4   1  12    5.51    1.55
  -4   1  12    3.52    1.14
  -4   1  12    2.98    1.29
   4   1 -12    8.67    2.44
  -3  -1  12   -2.00    1.65
  -3  -1  12   -0.60    1.43
  -3  -1  12    0.22    1.13
  -3   1  12   -0.28    1.03
  -3   1  12    0.55    1.40
   3   1 -12    1.02    2.18
  -3   1  12   -0.80    1.18
  -3   1  12    2.22    0.89
   2  -1 -12    7.15    1.24
  -2  -1  12    6.27    1.18
   2   1 -12    7.47    1.11
  -2   1  12    7.27    1.53
  -2   1  12    6.71    1.16
  -2   1  12    5.05    1.37
  -1  -1  12    0.78    1.10
  -1  -1  12    0.10    1.48
  -1  -1  12    0.52    0.86
   1  -1 -12    4.60    2.14
   1  -1 -12   -0.72    0.67
   1  -1 -12   -0.41    0.85
  -1   1  12    1.14    0.93
   1   1 -12    1.92    0.72
  -1   1  12    1.16    1.38
   1   1 -12    1.95    0.75
  -1   1  12    0.36    1.20
  -1   1  12    2.12    0.92
   0  -1 -12    8.20    2.09
   0  -1 -12    7.00    1.18
   0  -1  12    6.18    1.25
   0  -1  12    3.42    1.64
   0  -1  12    9.41    1.61
   0   1  12    4.58    1.39
   0   1  12    8.73    1.55
   0   1 -12    8.59    1.26
   0   1 -12    5.75    1.17
   0   1  12    7.07    1.50
  -1  -1 -12   14.49    1.66
   1  -1  12   13.16    2.81
   1  -1  12   11.04    1.45
   1  -1  12   15.14    1.79
  -1   1 -12    9.85    1.34
   1   1  12   11.20    2.53
  -1   1 -12   11.73    1.31
   1   1  12   11.36    2.11
  -1   1 -12    7.32    1.76
  -1   1 -12   10.25    2.29
  -2  -1 -12    0.28    0.73
   2  -1  12    0.84    1.33
  -2  -1 -12    3.07    1.93
  -2  -1 -12    0.74    1.60
  -2   1 -12    3.20    2.05
   2   1  12    1.07    1.19
  -2   1 -12    1.01    0.57
  -2   1 -12   -0.08    1.62
  -3  -1 -12    2.28    1.77
   3  -1  12    0.72    1.28
  -3  -1 -12    2.16    0.69
  -3  -1 -12    3.61    1.93
   3  -1  12    0.79    1.26
  -3   1 -12    1.41    1.83
  -3   1 -12    1.83    0.57
   3   1  12    1.27    1.21
  -3   1 -12    1.52    1.98
  -4  -1 -12    4.52    1.88
  -4  -1 -12    5.08    1.94
   4  -1  12    3.94    1.40
   4   1  12    3.21    1.43
  -4   1 -12    4.31    1.94
   4   1  12    3.77    1.35
  -4   1 -12    1.09    2.00
  -5  -1 -12   17.87    3.52
   5  -1  12   19.55    2.38
  -5  -1 -12   14.19    2.98
  -5  -1 -12   16.78    2.22
   5   1  12   17.35    2.45
  -5   1 -12   16.71    2.18
  -5   1 -12   13.91    2.52
   5   1  12   16.95    2.32
  -6  -1 -12    5.55    1.92
  -6  -1 -12    3.25    1.20
   6  -1  12    4.33    1.42
  -6   1 -12    2.40    2.01
   6   1  12    3.47    1.34
  -6   1 -12    2.44    1.18
   6   1  12    4.41    1.42
   7  -2 -12    5.61    1.90
   7   2 -12    7.14    2.63
  -6  -2  12    1.60    1.28
   6  -2 -12    2.33    2.31
  -6  -2  12   -0.45    1.96
   6   2 -12    3.36    2.70
  -6   2  12    0.76    1.18
  -6   2  12    0.57    1.24
  -5  -2  12   15.79    2.18
   5  -2 -12   15.49    3.15
  -5   2  12   12.30    2.02
  -5   2  12   14.38    2.26
   5   2 -12   13.83    3.00
  -4  -2  12    0.48    2.09
  -4  -2  12    5.96    1.33
  -4   2  12    5.16    1.24
  -4   2  12    4.30    1.27
   4   2 -12    7.04    2.42
  -4   2  12    8.29    1.57
  -3  -2  12   31.35    2.52
  -3  -2  12   21.37    3.96
  -3   2  12   27.79    2.31
  -3   2  12   29.83    2.86
  -3   2  12   25.01    3.03
   3   2 -12   23.53    3.54
  -2  -2  12    5.13    1.22
   2  -2 -12    8.40    2.24
  -2  -2  12    2.56    1.86
   2  -2 -12    4.88    0.87
  -2   2  12    5.49    1.43
  -2   2  12    3.86    1.23
  -2   2  12    4.65    1.03
  -1  -2  12   43.23    4.37
   1  -2 -12   56.18    4.45
  -1  -2  12   48.74    3.41
  -1   2  12   45.19    3.81
   1   2 -12   44.50    3.18
  -1   2  12   41.17    4.09
   0  -2 -12   17.53    1.91
   0  -2 -12   19.47    3.21
   0  -2  12   16.18    2.13
   0  -2  12   15.98    2.59
   0   2  12   15.70    2.60
   0   2 -12   15.74    1.54
   0   2  12   17.22    2.29
  -1  -2 -12  106.32    6.70
   1  -2  12   95.15    7.52
   1  -2  12   95.53    6.17
  -1  -2 -12   96.60    7.28
  -1   2 -12   84.97    5.97
   1   2  12   90.22    6.68
  -1   2 -12   92.70    7.10
   1   2  12   87.66    7.27
   2  -2  12    8.22    1.65
  -2  -2 -12   10.20    2.17
  -2  -2 -12   12.98    1.48
   2   2  12   14.38    2.15
  -2   2 -12   10.06    1.97
   2   2  12   14.17    2.43
   3  -2  12   59.74    4.37
  -3  -2 -12   55.40    5.31
  -3  -2 -12   66.69    4.48
   3  -2  12   62.67    5.20
  -3  -2 -12   64.97    5.39
   3   2  12   59.30    4.29
  -3   2 -12   59.53    5.51
   3   2  12   62.39    5.12
   4  -2  12   18.37    2.62
   4  -2  12   19.01    2.51
  -4  -2 -12   19.97    3.41
  -4  -2 -12   19.10    3.16
   4   2  12   19.25    2.42
   4   2  12   22.10    2.50
  -4   2 -12   17.33    3.70
  -5  -2 -12   34.32    3.96
   5  -2  12   30.75    2.92
  -5  -2 -12   30.45    2.80
  -5  -2 -12   30.01    3.53
   5   2  12   31.15    2.91
  -5   2 -12   28.02    4.12
   5   2  12   30.28    2.93
  -5   2 -12   32.12    2.82
  -6  -2 -12    1.13    1.84
   6  -2  12    1.33    1.30
  -6  -2 -12    0.76    1.08
  -6  -2 -12    0.70    1.35
   6   2  12    1.17    1.33
  -6   2 -12    1.33    1.05
  -6  -3  12   -0.04    1.03
  -6   3  12    1.16    0.86
  -6   3  12   -0.32    1.18
   6   3 -12    0.19    2.04
  -5  -3  12    3.05    1.35
  -5  -3  12   -1.34    2.11
  -5   3  12    3.55    1.17
   5   3 -12    4.17    2.63
  -5   3  12    5.01    1.42
  -4  -3  12   -0.90    1.55
  -4  -3  12   -0.53    2.02
  -4  -3  12    1.61    1.23
  -4   3  12   -1.32    1.07
   4   3 -12    5.29    2.45
  -4   3  12    0.38    1.40
  -4   3  12   -0.94    1.12
  -3  -3  12    2.46    1.24
  -3  -3  12   -0.70    1.88
  -3  -3  12   -1.04    1.65
  -3   3  12    1.97    1.02
  -3   3  12    1.54    1.16
   3   3 -12   -0.61    2.27
  -3   3  12    3.34    1.44
   2  -3 -12    1.39    1.97
  -2  -3  12    0.38    1.67
  -2  -3  12   -2.00    1.72
  -2  -3  12    0.34    1.20
  -2   3  12   -0.36    1.13
  -2   3  12    0.23    1.31
  -1  -3  12    0.68    1.67
  -1  -3  12    3.55    1.26
  -1  -3  12    1.42    1.54
   1  -3 -12    2.17    2.05
  -1   3  12    3.24    1.35
  -1   3  12    2.06    1.21
   0  -3 -12   32.95    3.79
   0  -3  12   30.30    2.76
   0  -3  12   24.70    3.61
   0   3  12   27.06    3.18
   0   3  12   28.55    2.83
   1  -3  12   -2.18    1.28
   1  -3  12   -1.72    1.51
  -1  -3 -12   -0.82    1.91
  -1   3 -12   -0.72    1.60
   1   3  12    1.63    1.31
   1   3  12   -1.17    1.14
   2  -3  12    9.08    1.75
  -2  -3 -12   10.55    2.25
  -2  -3 -12   13.46    1.44
   2   3  12   14.44    2.10
   2   3  12   11.10    2.37
   2   3  12   13.64    2.20
  -2   3 -12   10.09    2.12
   3  -3  12    3.59    1.45
   3  -3  12    7.48    1.42
  -3  -3 -12    5.56    2.01
  -3  -3 -12    5.65    0.99
   3   3  12    4.76    1.35
   3   3  12    3.36    1.25
  -3   3 -12    3.37    2.08
   3   3  12    3.63    1.53
   3   3  12    4.91    1.41
   4  -3  12   23.72    2.61
  -4  -3 -12   18.43    3.27
  -4   3 -12   20.26    3.97
   4   3  12   24.95    2.82
   4   3  12   25.45    2.61
   4   3  12   25.43    2.79
  -5  -3 -12    2.09    1.70
   5  -3  12   -0.26    1.07
  -5  -3 -12    1.30    1.47
   5   3  12    2.04    1.41
   5   3  12   -0.26    1.62
  -6  -3 -12    6.22    1.33
   6   3  12    6.99    1.29
   6   3  12    7.97    1.52
  -7  -3 -12    2.40    0.99
  -7   4  12    0.79    0.67
  -6  -4  12    4.41    1.41
   6   4 -12    6.26    2.71
  -6   4  12    5.55    1.33
  -6   4  12    4.96    1.16
  -5  -4  12   -1.25    2.08
  -5  -4  12    2.51    1.39
  -5   4  12    3.20    1.13
   5   4 -12    6.59    2.70
  -5   4  12    3.17    1.11
  -5   4  12    4.79    1.47
  -4  -4  12   34.13    5.08
  -4  -4  12   48.58    3.59
  -4   4  12   47.29    4.21
  -4   4  12   52.85    3.95
  -4   4  12   45.14    3.39
   3  -4 -12    4.13    2.19
  -3  -4  12    7.35    1.37
  -3  -4  12    1.96    2.02
  -3   4  12    6.06    1.10
  -3   4  12    4.68    1.35
  -3   4  12    7.03    1.53
   2  -4 -12   28.64    3.75
  -2  -4  12   21.96    3.67
   2  -4 -12   28.45    3.67
  -2  -4  12   30.48    2.63
  -2   4  12   28.21    2.84
  -1  -4  12   15.71    3.01
   1  -4 -12   16.73    3.46
  -1  -4  12   21.38    2.30
   1  -4 -12   19.59    3.40
  -1   4  12   20.96    2.39
   0  -4  12   44.81    4.58
   0  -4 -12   40.31    4.47
   0  -4  12   44.59    3.96
   0  -4  12   46.51    3.55
   0  -4 -12   44.49    4.51
   0   4  12   42.06    3.70
  -1  -4 -12   28.34    3.75
   1  -4  12   34.68    2.54
   1  -4  12   31.82    3.74
  -1  -4 -12   29.52    3.74
  -1   4 -12   27.42    3.52
   1   4  12   27.85    2.75
   1   4  12   31.73    2.92
   2  -4  12   39.99    3.81
  -2  -4 -12   34.80    3.96
   2   4  12   33.15    3.08
   2   4  12   28.69    3.50
  -2   4 -12   31.77    3.99
   2   4  12   35.95    3.05
   3  -4  12   16.49    2.61
  -3  -4 -12   12.67    2.22
   3  -4  12   13.00    2.25
   3   4  12   13.14    2.45
   3   4  12   13.21    1.92
  -3   4 -12    9.37    2.31
   3   4  12   12.91    2.12
   4  -4  12   26.27    2.71
  -4  -4 -12   28.28    3.52
  -4   4 -12   25.77    4.09
   4   4  12   26.22    2.93
   4   4  12   27.88    2.65
   4   4  12   31.14    3.11
  -5  -4 -12   19.68    2.65
   5  -4  12   15.78    2.22
  -5   4 -12   15.20    2.59
   5   4  12   17.96    2.52
   5   4  12   16.45    2.21
   6   4  12    6.47    1.10
  -7   5  12    0.83    0.77
   6  -5 -12   -1.93    1.29
  -6  -5  12   -0.91    1.24
  -6   5  12    0.91    1.05
  -6   5  12    1.89    0.92
  -5  -5  12   -0.04    1.03
  -5   5  12    0.61    1.06
   5   5 -12    0.30    1.74
  -5   5  12    0.05    1.11
  -5   5  12    1.33    1.37
   4  -5 -12    5.71    1.98
  -4  -5  12    2.71    2.16
  -4  -5  12    8.53    1.51
   4   5 -12    4.89    2.53
  -4   5  12    7.61    1.21
  -4   5  12   10.44    1.73
   3  -5 -12   -0.59    2.12
  -3  -5  12    0.84    1.36
   3  -5 -12   -0.04    1.70
  -3  -5  12   -0.28    1.81
   3   5 -12   -2.99    2.39
  -3   5  12    2.62    1.48
  -3   5  12    0.94    0.92
   2  -5 -12    1.64    1.77
   2  -5 -12    0.01    2.17
  -2  -5  12   -2.77    1.67
  -2  -5  12   -0.04    1.32
  -2  -5  12   -1.63    1.68
  -2   5  12    1.27    1.38
  -1  -5  12   -0.75    1.38
  -1  -5  12   -2.02    1.51
   1  -5 -12    0.87    2.26
   1  -5 -12   -1.52    1.59
  -1   5  12    0.33    1.40
   0  -5  12    3.40    0.66
   0  -5  12    3.98    1.52
   0  -5 -12    2.62    2.21
   0  -5 -12    2.86    1.69
   0  -5  12    2.95    1.72
   0   5 -12    2.41    1.64
   0   5  12    5.20    1.41
  -1  -5 -12   -0.35    1.64
  -1  -5 -12    0.30    2.10
   1  -5  12    0.49    1.56
   1   5  12    1.88    1.32
  -1   5 -12   -0.08    1.73
   2  -5  12   -0.73    1.51
  -2  -5 -12   -0.09    1.57
  -2  -5 -12    1.09    1.98
   2   5  12    2.08    1.24
  -2   5 -12   -0.75    1.95
   3  -5  12    4.18    1.37
  -3  -5 -12    4.85    1.92
  -3  -5 -12    2.09    1.58
   3  -5  12    4.50    1.52
  -3   5 -12    2.60    2.03
   3   5  12    4.24    1.66
   4  -5  12   -0.70    1.30
   4  -5  12   -1.87    1.22
  -4  -5 -12    1.34    1.67
   4   5  12   -0.31    1.05
   4   5  12   -1.05    1.62
   5  -5  12   13.47    2.17
  -5  -5 -12   19.16    2.62
   5   5  12   13.77    2.59
   5  -6 -12    0.05    1.74
  -5  -6  12   -0.20    2.02
  -5  -6  12   -0.50    1.29
   5   6 -12    1.70    2.15
  -5   6  12    2.20    1.03
  -5   6  12    3.83    1.34
  -4  -6  12   29.23    2.94
  -4   6  12   40.74    3.29
  -4   6  12   31.86    2.74
  -3  -6  12    1.36    1.31
  -3  -6  12    0.22    1.98
   3  -6 -12    2.20    1.72
   3  -6 -12   -2.67    2.00
  -3  -6  12    0.17    1.65
  -3   6  12    3.19    1.52
   2  -6 -12   22.53    3.27
  -2  -6  12   21.17    2.50
  -2  -6  12   18.99    3.61
   2  -6 -12   18.21    3.62
  -2   6  12   26.14    2.79
   1  -6 -12    1.09    2.31
  -1  -6  12    2.74    1.65
  -1  -6  12    0.63    1.75
  -1  -6  12    3.56    1.44
   1  -6 -12    4.12    1.67
  -1   6  12    4.78    1.47
   0  -6  12   46.27    3.76
   0  -6 -12   43.75    4.72
   0  -6  12   41.36    4.52
   0  -6 -12   41.41    4.34
   0  -6  12   46.08    4.14
   0   6  12   43.62    3.76
  -1  -6 -12    3.36    1.62
  -1  -6 -12    3.40    2.10
   1  -6  12    3.66    1.62
  -1   6 -12    2.94    1.88
   1   6  12    5.78    1.40
  -2  -6 -12   24.89    3.50
   2  -6  12   30.00    3.48
  -2  -6 -12   26.08    3.44
   2  -6  12   28.30    2.59
   2   6  12   26.74    2.73
   3  -6  12    0.56    1.22
  -3  -6 -12    1.65    1.80
   3  -6  12    1.11    1.32
  -3  -6 -12    1.51    1.39
  -3   6 -12   -1.72    1.99
   3   6  12    1.17    1.66
   4  -6  12   16.25    2.06
  -4  -6 -12   19.91    2.59
  -4   6 -12   16.44    2.64
   4   6  12   21.14    2.52
  -6   7  12    7.62    1.27
   5  -7 -12    2.42    1.52
  -5   7  12    0.61    0.85
  -4  -7  12   -2.11    1.87
   4  -7 -12    0.74    1.50
  -4  -7  12   -1.63    1.41
  -4   7  12    1.33    1.36
   4   7 -12   -3.03    2.06
  -4   7  12    1.73    0.87
   3  -7 -12    0.42    1.60
  -3  -7  12   -3.21    1.84
  -3   7  12    2.36    1.08
   2  -7 -12    1.80    2.30
  -2  -7  12    1.51    1.84
  -2  -7  12    0.57    1.48
   2  -7 -12    4.24    1.67
  -2  -7  12    2.45    1.42
  -1  -7  12   -1.29    1.56
  -1  -7  12   -2.25    1.45
   1  -7 -12    1.41    2.28
  -1  -7  12   -2.23    1.38
   1  -7 -12    1.16    1.57
   1   7 -12   -0.37    1.41
  -1   7  12    0.36    1.40
   0  -7 -12    0.99    2.29
   0  -7 -12    3.44    1.59
   0  -7  12   -0.84    1.49
   0  -7  12    0.32    1.39
   0   7  12    2.78    1.40
   0   7 -12   -1.05    1.67
  -1  -7 -12    3.39    1.55
  -1  -7 -12    5.63    2.13
   1  -7  12    2.46    1.44
  -1   7 -12    0.14    1.78
   2  -7  12    2.26    1.09
  -2  -7 -12    2.29    1.41
   2  -7  12   -0.17    1.38
  -2  -7 -12    2.78    1.34
   2   7  12    2.90    1.19
  -2   7 -12   -3.09    1.88
  -3  -7 -12    2.94    1.37
   3  -7  12    3.20    1.06
  -3  -7 -12    4.95    1.71
   3  -7  12    1.54    1.39
   3   7  12    3.66    1.57
   4  -7  12   -1.14    0.87
  -4  -7 -12    1.13    0.93
   4  -8 -12    3.82    1.46
  -3  -8  12    7.86    2.11
  -3  -8  12    8.01    1.61
   2  -8 -12   -1.42    2.04
  -2  -8  12   -2.19    1.34
  -2  -8  12   -2.15    1.33
   2  -8 -12    1.31    1.48
  -2   8  12    1.51    1.30
  -1  -8  12    9.52    1.90
   1  -8 -12   11.18    2.52
   0  -8 -12    2.04    1.24
   0  -8 -12    2.49    1.99
   0   8  12    3.32    1.11
   0   8 -12   -0.38    1.52
  -1  -8 -12   37.66    3.92
   1  -8  12   38.89    4.16
  -1  -8 -12   47.51    4.32
   1   8  12   46.91    3.60
   2  -8  12    1.06    1.32
  -2  -8 -12    4.45    1.84
  -2  -8 -12    3.46    1.30
   2   8  12    2.92    1.06
   3  -8  12   18.71    1.83
   3  -8  12   25.18    2.79
  -3  -8 -12   25.02    2.49
  -4  -8 -12    2.87    0.81
   2  -9 -12    3.87    1.52
  -1  -9  12   -0.12    1.26
   0   9  12    4.59    1.36
   1   9  12    3.91    1.02
   2   9  12   10.01    1.35
   3   9  12    1.58    0.66
   7   0 -13    8.35    2.26
  -6   0  13    0.60    1.02
   6   0 -13    2.93    2.49
  -6   0  13    2.37    1.36
   5   0 -13   16.57    3.43
  -5   0  13   11.00    1.96
   4   0 -13    2.57    2.32
  -4   0  13   -1.58    1.40
  -4   0  13    0.03    1.16
  -3   0  13   55.18    5.21
  -3   0  13   63.12    4.15
   2   0 -13    0.52    0.56
   2   0 -13   -1.49    1.92
  -2   0  13   -0.39    1.36
  -2   0  13    0.02    1.01
  -1   0  13   69.16    4.38
  -1   0  13   54.53    5.51
   1   0 -13   70.44    4.30
   0   0 -13    2.93    2.19
   0   0  13    0.22    1.35
   0   0 -13    1.13    0.59
   1   0  13   98.37    8.19
  -1   0 -13  112.94    8.02
   2   0  13   -0.08    1.36
  -2   0 -13    0.20    1.60
  -2   0 -13    3.73    2.09
  -3   0 -13  102.62    7.72
   3   0  13  101.14    7.77
  -3   0 -13   94.96    7.63
  -4   0 -13    0.69    1.84
  -4   0 -13    0.39    1.82
   4   0  13   -2.17    1.34
   5   0  13   15.72    2.23
  -5   0 -13   20.41    3.22
  -6   0 -13   -0.82    0.85
   7  -1 -13    4.24    1.85
  -6  -1  13    0.66    1.81
   6  -1 -13    2.52    2.36
  -6  -1  13    0.47    1.19
   6   1 -13    2.35    2.55
  -6   1  13    1.01    1.00
  -6   1  13   -1.33    1.25
  -5  -1  13    1.69    1.30
   5  -1 -13    3.63    2.31
  -5  -1  13   -0.54    1.82
   5   1 -13    3.38    2.66
  -5   1  13   -0.54    1.39
  -5   1  13   -0.60    1.12
  -4  -1  13    0.70    1.23
  -4  -1  13   -1.60    1.46
  -4  -1  13   -1.03    1.71
  -4   1  13   -0.51    1.46
  -4   1  13   -0.17    1.12
   4   1 -13    2.42    2.37
  -3  -1  13   -0.10    1.16
  -3  -1  13    0.80    1.63
   3   1 -13    1.74    2.21
  -3   1  13   -0.61    1.49
  -3   1  13    0.91    1.23
  -3   1  13    0.09    1.07
  -2  -1  13   -0.34    1.48
  -2  -1  13   -0.66    1.54
   2  -1 -13    0.19    0.52
  -2  -1  13    1.18    1.12
  -2   1  13   -0.18    1.03
   2   1 -13   -2.38    2.01
  -2   1  13    0.29    1.46
  -2   1  13   -0.47    1.23
  -1  -1  13    2.05    1.12
  -1  -1  13   -0.39    1.52
   1  -1 -13    0.56    0.60
  -1  -1  13    0.83    1.43
   1  -1 -13    4.09    2.25
  -1   1  13    0.91    1.25
  -1   1  13    1.08    1.43
  -1   1  13    1.30    0.96
   0  -1 -13    4.96    2.05
   0  -1  13    0.39    1.17
   0   1  13    1.93    1.47
   0   1 -13    2.80    0.63
   0   1  13    0.79    1.30
   1  -1  13    3.28    1.50
   1   1  13    4.04    1.35
   2  -1  13    0.86    1.38
  -2  -1 -13    3.26    2.04
  -2  -1 -13    0.52    1.61
  -2   1 -13    0.43    2.16
   2   1  13    0.81    1.27
  -2   1 -13    0.89    1.69
  -3  -1 -13    1.16    1.92
  -3  -1 -13    1.68    1.73
   3  -1  13   -1.31    1.33
  -3   1 -13   -1.45    1.85
   3   1  13   -0.69    1.23
  -3   1 -13   -0.07    2.07
  -4  -1 -13    1.02    1.82
  -4  -1 -13    1.74    1.83
   4  -1  13    0.42    1.37
   4   1  13    0.86    1.43
  -4   1 -13    1.18    1.91
  -4   1 -13    0.22    1.92
   5  -1  13   -0.66    1.04
  -5  -1 -13    0.07    1.57
  -5  -1 -13   -1.50    1.32
   5   1  13   -0.36    1.30
   5   1  13   -1.76    1.31
  -6  -1 -13    2.24    0.91
  -6  -1 -13   -0.23    1.26
   6   1  13    3.10    1.06
  -6   1 -13    2.09    0.94
   7  -2 -13    4.12    1.49
   6  -2 -13   10.68    2.47
  -6  -2  13   13.68    2.09
  -6   2  13   10.58    2.00
  -6   2  13   13.35    1.84
  -5  -2  13    1.34    1.24
  -5  -2  13   -0.94    1.91
  -5  -2  13   -2.19    1.39
   5   2 -13    1.39    2.63
  -5   2  13    0.57    1.22
  -5   2  13    1.02    1.29
  -5   2  13    0.36    1.09
  -4  -2  13   29.71    4.41
  -4  -2  13   38.61    2.95
  -4   2  13   38.66    3.31
  -4   2  13   37.15    2.85
  -4   2  13   33.33    3.53
   4   2 -13   28.01    3.97
  -3  -2  13    2.51    2.10
  -3  -2  13    5.86    1.30
   3   2 -13    5.72    2.43
  -3   2  13    5.58    1.34
  -3   2  13    6.00    1.15
  -3   2  13    7.69    1.58
   2  -2 -13   61.32    4.09
   2  -2 -13   65.30    5.39
  -2  -2  13   61.73    4.31
  -2  -2  13   62.71    5.64
  -2   2  13   62.40    4.79
  -2   2  13   60.68    4.16
  -2   2  13   58.73    5.20
  -1  -2  13   15.46    2.10
   1  -2 -13   18.57    3.27
  -1   2  13   14.94    2.67
  -1   2  13   16.30    2.35
   0  -2 -13  102.83    7.15
   0  -2  13   99.22    7.02
   0  -2  13   98.53    6.01
   0  -2  13   84.94    7.43
   0   2  13   86.57    7.12
   0   2  13   88.59    6.57
   0   2 -13   75.57    5.78
   1  -2  13   30.21    3.90
  -1  -2 -13   36.02    3.85
   1  -2  13   30.94    2.84
  -1   2 -13   31.06    3.57
   1   2  13   35.76    3.45
   1   2  13   33.67    3.05
  -1   2 -13   29.40    2.28
  -2  -2 -13  114.72    7.89
  -2  -2 -13   97.84    7.97
   2  -2  13  112.90    8.22
   2   2  13  104.50    8.07
  -2   2 -13  109.18    7.99
  -2   2 -13   90.51    6.58
  -3  -2 -13   15.55    3.14
   3  -2  13   13.19    2.79
  -3  -2 -13   14.04    2.37
   3  -2  13   16.37    2.37
  -3   2 -13   11.29    2.26
   3   2  13   18.03    2.59
   3   2  13   16.11    2.20
  -4  -2 -13   79.82    6.22
   4  -2  13   72.79    5.14
  -4  -2 -13   69.54    6.16
  -4   2 -13   73.47    6.37
   4   2  13   73.11    5.10
   4   2  13   78.24    5.97
   4   2  13   75.33    5.04
  -5  -2 -13    3.88    1.78
  -5  -2 -13    5.78    1.73
   5  -2  13    2.99    1.39
   5   2  13    3.65    1.44
  -5   2 -13   -0.62    1.90
  -5   2 -13    3.44    1.15
   5   2  13    3.59    1.41
  -6  -2 -13   17.25    1.69
  -6  -2 -13   11.83    2.25
  -6   2 -13   17.40    1.69
  -6  -3  13    0.08    1.25
  -6   3  13    0.16    1.17
   6   3 -13    3.33    2.65
  -6   3  13    0.25    1.12
  -5  -3  13   -2.32    1.53
  -5  -3  13    0.95    1.28
  -5  -3  13   -3.17    2.04
   5   3 -13    2.80    2.56
  -5   3  13    0.92    1.05
  -5   3  13    0.93    1.34
  -5   3  13    1.09    1.14
  -4  -3  13    1.32    1.32
  -4  -3  13   -1.42    2.07
  -4  -3  13   -1.63    1.63
  -4   3  13    0.81    1.19
   4   3 -13    1.65    2.42
  -4   3  13   -0.61    1.12
  -4   3  13    1.90    1.45
  -3  -3  13    0.12    1.75
   3  -3 -13    2.73    2.23
  -3  -3  13    0.19    1.21
  -3  -3  13   -0.47    1.95
  -3   3  13    0.11    1.15
  -3   3  13    0.70    0.98
  -3   3  13    1.14    1.40
   3   3 -13   -0.76    2.27
  -2  -3  13   -1.00    1.28
   2  -3 -13    2.24    2.29
  -2  -3  13   -3.05    1.78
  -2  -3  13   -0.98    1.76
  -2   3  13   -0.76    1.18
  -2   3  13    0.02    0.93
  -2   3  13    0.29    1.36
  -1  -3  13    0.92    1.30
   1  -3 -13    1.63    2.18
  -1  -3  13   -0.13    1.60
  -1  -3  13   -0.78    1.68
  -1   3  13    3.26    1.41
  -1   3  13    0.54    1.20
   0  -3 -13   -1.07    2.04
   0  -3  13   -1.33    1.36
   0  -3  13   -2.00    1.69
   0   3  13    0.39    1.37
   0   3  13   -0.74    1.21
  -1  -3 -13    3.33    2.04
   1  -3  13    0.99    1.66
   1  -3  13    1.47    1.36
  -1   3 -13    0.30    1.67
   1   3  13    3.89    1.37
   1   3  13    1.58    1.23
   2  -3  13   -1.72    1.45
  -2  -3 -13    0.12    2.01
   2   3  13    0.12    1.22
   2   3  13    1.19    1.38
  -2   3 -13   -0.62    1.92
   2   3  13    1.77    1.35
   3  -3  13    0.37    1.34
  -3  -3 -13    0.60    1.93
   3  -3  13   -1.82    1.35
   3   3  13   -1.90    1.39
   3   3  13    1.52    1.33
  -3   3 -13   -1.95    2.01
   3   3  13    1.32    1.19
  -4  -3 -13   -1.32    1.82
   4  -3  13   -0.59    1.32
  -4  -3 -13   -1.86    1.76
   4   3  13    0.33    1.36
   4   3  13   -1.25    1.52
  -4   3 -13   -3.10    2.09
   4   3  13   -1.54    1.10
  -5  -3 -13    5.84    1.73
   5  -3  13    4.54    1.45
  -5  -3 -13    5.40    1.72
   5   3  13    5.34    1.43
  -5   3 -13    6.22    1.18
  -5   3 -13    4.15    2.13
   5   3  13    4.98    1.56
  -6  -3 -13    1.13    1.09
  -6   3 -13   -1.13    0.77
   6   3  13   -0.48    1.06
   6   3  13   -0.16    1.19
  -6   4  13    3.09    0.87
  -6   4  13    2.26    0.83
  -5  -4  13    1.44    1.02
  -5   4  13    4.23    1.15
  -5   4  13    3.53    1.10
  -5   4  13    4.75    1.45
   5   4 -13   -0.12    2.03
  -4  -4  13   16.94    2.26
  -4   4  13   14.26    1.95
  -4   4  13   16.39    2.61
  -4   4  13   19.53    2.58
   3  -4 -13    7.41    2.35
  -3  -4  13    8.72    1.43
   3   4 -13    1.94    2.46
  -3   4  13    6.94    1.43
  -3   4  13    6.76    1.16
  -3   4  13   11.12    2.18
  -2  -4  13   23.16    2.48
   2  -4 -13   21.67    3.63
  -2   4  13   20.45    3.01
  -2   4  13   25.99    2.76
   1  -4 -13   48.52    4.79
  -1  -4  13   54.04    3.74
  -1  -4  13   48.35    4.56
  -1  -4  13   37.52    4.95
  -1   4  13   51.55    4.01
  -1   4  13   44.91    4.42
   0  -4 -13   13.95    2.49
   0  -4  13    9.86    2.08
   0  -4  13   13.97    2.27
   0   4 -13    7.86    1.83
   0   4  13   15.48    2.23
   0   4  13   11.94    2.59
   1  -4  13   31.48    3.86
  -1  -4 -13   35.25    4.05
   1   4  13   32.19    3.03
   1   4  13   30.64    3.43
  -1   4 -13   27.64    3.66
   2  -4  13   47.58    4.51
  -2  -4 -13   46.45    4.62
   2   4  13   49.23    3.59
   2   4  13   45.62    4.24
  -2   4 -13   39.19    4.59
   2   4  13   47.45    3.79
   3  -4  13   15.20    2.35
   3  -4  13   15.58    2.76
  -3  -4 -13   13.58    2.39
   3   4  13   13.53    2.43
  -3   4 -13    8.92    2.36
   3   4  13   16.28    2.17
   3   4  13   13.60    2.50
   4  -4  13   32.41    3.08
  -4  -4 -13   27.73    3.50
   4  -4  13   22.04    2.55
   4   4  13   26.46    2.63
   4   4  13   30.02    2.99
  -4   4 -13   18.10    3.79
   4   4  13   27.37    2.93
  -5  -4 -13    6.82    1.57
   5  -4  13    3.22    1.40
  -5  -4 -13    3.77    1.61
   5   4  13    3.08    1.20
   5   4  13    2.06    1.39
  -5   4 -13    3.36    2.12
  -6   5  13   -0.35    0.92
  -5  -5  13   -1.91    1.92
  -5  -5  13   -1.41    1.29
  -5   5  13    1.07    0.97
   5   5 -13    0.84    2.33
  -5   5  13    0.06    0.99
  -5   5  13    1.88    1.10
  -4  -5  13   -1.85    1.70
  -4  -5  13    2.36    1.35
  -4  -5  13    1.42    2.09
  -4   5  13    2.03    1.49
   4   5 -13    2.90    2.39
  -4   5  13    1.35    1.06
  -4   5  13    2.27    1.26
  -3  -5  13   -2.01    1.83
   3  -5 -13   -3.46    2.11
  -3  -5  13   -1.38    1.26
  -3  -5  13   -1.72    1.77
   3  -5 -13   -0.94    1.77
  -3   5  13   -0.41    0.91
  -3   5  13    0.74    1.42
   2  -5 -13   -0.08    2.24
   2  -5 -13   -1.24    1.76
  -2  -5  13   -2.32    1.76
  -2  -5  13   -1.49    1.74
  -2  -5  13   -1.29    1.32
  -2   5  13   -0.34    1.37
  -1  -5  13   -3.02    1.79
  -1  -5  13   -1.39    1.55
   1  -5 -13   -0.45    1.72
  -1  -5  13   -0.75    1.41
   1  -5 -13   -0.63    2.30
  -1   5  13    0.65    1.34
   0  -5 -13    1.13    1.74
   0  -5  13   -0.50    1.48
   0  -5 -13    0.31    2.31
   0  -5  13   -0.64    1.70
   0   5  13    1.34    1.38
  -1  -5 -13    1.08    2.10
   1  -5  13   -0.32    1.56
  -1  -5 -13    0.45    1.69
   1   5  13    1.37    1.34
  -1   5 -13   -2.33    1.73
  -2  -5 -13   -1.04    1.60
   2  -5  13   -2.18    1.54
  -2  -5 -13   -0.55    2.03
   2   5  13   -0.38    1.23
   2   5  13    1.51    1.43
  -2   5 -13   -1.08    1.94
  -3  -5 -13   -0.46    1.81
   3  -5  13   -1.25    1.44
   3  -5  13    0.01    1.32
   3   5  13    0.33    1.59
  -3   5 -13   -3.58    1.95
   3   5  13    0.13    1.15
   4  -5  13   -1.94    1.21
   4  -5  13   -1.41    1.05
  -4  -5 -13    1.44    1.68
  -4   5 -13   -3.08    2.07
   4   5  13    0.19    1.01
   4   5  13   -0.53    1.41
   5   5  13   -1.44    0.80
  -5   6  13    8.02    1.70
  -5   6  13   12.01    2.02
  -5   6  13    8.19    1.35
  -4  -6  13    5.72    2.21
  -4  -6  13   10.95    1.57
   4  -6 -13    8.40    2.14
   4   6 -13    5.22    2.38
  -4   6  13   12.20    1.57
  -3  -6  13    4.14    2.10
  -3  -6  13    2.61    1.84
   3  -6 -13    2.00    2.16
   3   6 -13    4.21    2.39
  -2  -6  13    1.47    1.37
   2  -6 -13    1.96    1.78
  -2  -6  13   -1.30    1.82
   2  -6 -13   -0.80    2.32
  -2  -6  13   -0.68    1.82
  -2   6  13    2.01    1.44
   1  -6 -13   14.97    2.73
  -1  -6  13    8.27    2.20
  -1  -6  13   15.85    2.38
   1  -6 -13   19.61    3.25
  -1  -6  13   11.37    2.02
   0  -6  13    4.24    1.69
   0  -6  13    4.14    1.87
   0  -6 -13    4.56    2.42
   0  -6 -13    4.70    1.77
   0   6  13    6.74    1.45
   0   6 -13    1.30    1.66
   1  -6  13   10.79    2.07
  -1  -6 -13   13.95    2.59
  -1  -6 -13   13.13    2.96
   1   6  13   15.29    2.20
  -2  -6 -13    1.56    1.94
   2  -6  13    1.49    1.25
  -2  -6 -13    1.39    1.51
   2  -6  13   -0.68    1.52
   2   6  13    1.09    1.24
  -3  -6 -13   13.69    2.70
  -3  -6 -13   21.16    3.08
   3  -6  13   13.38    2.09
   3  -6  13   17.73    2.77
   3   6  13   15.26    2.04
   3   6  13   10.28    1.82
   4  -6  13    7.46    1.40
   4  -6  13   10.17    1.79
   4   6  13   12.03    1.82
   4   6  13    8.60    1.69
   5  -7 -13    0.30    1.37
  -5   7  13    3.18    0.68
   4  -7 -13    1.72    1.64
   3  -7 -13    0.61    1.59
  -3  -7  13   -2.13    1.89
  -3  -7  13   -1.65    1.30
   3   7 -13    4.95    2.22
  -3   7  13    1.19    1.40
  -2  -7  13   -0.78    1.72
   2  -7 -13   -1.82    2.14
  -2  -7  13   -1.91    1.09
   2  -7 -13    0.96    1.18
  -2   7  13    1.42    1.21
  -1  -7  13   -1.67    1.12
   1  -7 -13    1.26    1.42
  -1  -7  13   -1.42    1.55
   1  -7 -13   -0.19    2.36
  -1   7  13    1.48    1.29
   0  -7 -13    1.12    1.52
   0  -7 -13    1.41    2.20
   0   7  13    2.02    1.35
   0   7 -13   -1.67    1.61
  -1  -7 -13    4.46    1.60
  -1  -7 -13    3.72    1.55
   1   7  13    3.64    1.35
  -2  -7 -13    2.13    1.90
   2  -7  13    0.07    1.02
  -2  -7 -13    1.38    1.31
   2   7  13   -0.39    1.10
  -3  -7 -13    0.72    0.90
   3   7  13    0.16    1.37
  -4  -7 -13   -0.95    0.79
  -2  -8  13    4.66    1.76
  -2  -8  13    2.87    1.56
  -2  -8  13    5.50    1.49
   2  -8 -13    6.18    2.07
  -1  -8  13   -1.91    1.43
   1  -8 -13    1.61    1.57
   1  -8 -13    3.02    1.47
  -1  -8  13   -1.75    1.37
  -1   8  13    4.18    1.36
   1   8 -13    0.87    1.15
   0  -8 -13   30.55    3.40
   0  -8 -13   30.14    3.79
   0  -8  13   21.15    3.58
   0   8  13   31.00    2.84
   1  -8  13   -1.19    1.34
  -1  -8 -13    3.90    1.33
  -1  -8 -13    5.65    1.93
   1   8  13    1.75    1.15
  -2  -8 -13   14.18    2.26
   2  -8  13   10.93    1.31
   2   8  13   12.40    1.56
   3  -8  13   -0.84    0.54
   2  -9 -13   -0.21    1.37
  -1  -9  13   -0.83    0.99
   1   9 -13   -0.19    0.73
   0  -9  13   -0.75    0.92
  -6   0  14    3.52    1.63
  -6   0  14    4.20    1.22
   6   0 -14    4.24    2.31
   5   0 -14    2.19    2.40
  -5   0  14    0.34    1.20
   4   0 -14    7.96    2.41
  -4   0  14    8.02    1.41
  -3   0  14    0.15    1.14
   3   0 -14   -0.08    1.94
  -3   0  14   -0.26    1.45
  -2   0  14   22.13    2.06
   2   0 -14   20.77    2.89
  -2   0  14   15.35    3.03
  -1   0  14   -0.82    1.38
   1   0 -14    1.22    0.45
  -1   0  14    0.27    1.09
   0   0 -14  159.99   10.53
   0   0  14  128.63   10.87
   1   0  14   -0.80    1.42
  -1   0 -14    2.51    2.21
   2   0  14  129.67    9.98
  -2   0 -14  127.40    9.65
  -2   0 -14  133.88    9.57
  -3   0 -14    1.83    1.74
   3   0  14   -0.36    1.29
  -3   0 -14    3.32    2.02
  -4   0 -14  115.56    8.96
  -4   0 -14  132.42    9.14
   4   0  14  114.32    7.70
   5   0  14   -0.25    1.27
  -5   0 -14   -2.08    1.55
  -5   0 -14   -1.35    1.78
  -6   0 -14   12.20    1.41
   7  -1 -14    1.34    1.38
  -6  -1  14    1.23    1.19
   6  -1 -14    2.11    2.05
  -6  -1  14   -0.89    1.81
   6   1 -14    0.02    1.91
  -6   1  14    1.34    1.14
   5  -1 -14    5.09    2.24
  -5  -1  14    0.35    1.82
  -5  -1  14    3.28    1.25
   5   1 -14    1.85    2.62
  -5   1  14    0.24    1.44
  -5   1  14    3.14    1.20
  -5   1  14   -0.36    1.28
  -4  -1  14    0.47    1.73
   4  -1 -14    1.93    2.10
  -4  -1  14    0.37    1.20
  -4   1  14   -0.04    1.16
  -4   1  14   -0.36    1.45
  -4   1  14   -0.88    1.26
   4   1 -14    1.09    2.36
  -3  -1  14    2.83    1.20
  -3  -1  14    2.30    1.72
  -3  -1  14   -0.11    1.53
  -3   1  14    1.37    1.34
  -3   1  14    2.41    1.53
  -3   1  14    3.47    1.16
   3   1 -14    2.27    2.25
  -2  -1  14   -1.23    1.55
  -2  -1  14    3.30    1.16
  -2  -1  14    1.39    1.57
  -2   1  14    2.00    1.03
  -2   1  14    0.30    1.29
   2   1 -14   -1.48    2.03
  -2   1  14    1.72    1.49
  -1  -1  14    1.01    1.19
   1  -1 -14    1.62    0.46
  -1  -1  14   -1.30    1.48
  -1  -1  14   -0.29    1.41
   1  -1 -14    3.14    2.27
  -1   1  14   -0.65    1.25
  -1   1  14   -0.14    1.46
  -1   1  14    0.63    0.99
   0  -1  14   11.34    1.94
   0  -1 -14   16.88    3.32
   0   1 -14   13.31    1.09
   0   1  14    9.48    1.81
   1  -1  14   13.01    2.97
   1  -1  14   12.44    2.07
  -1  -1 -14   20.29    3.18
   1   1  14   15.58    2.73
  -2  -1 -14    5.28    1.68
   2  -1  14    1.64    1.49
  -2  -1 -14    6.72    2.21
   2   1  14    4.20    1.39
  -2   1 -14    5.05    2.29
  -2   1 -14    2.13    1.78
   3  -1  14   -0.47    1.40
  -3  -1 -14    2.08    1.74
  -3  -1 -14   -0.30    1.98
  -3   1 -14    1.78    1.87
  -3   1 -14    1.11    2.06
   3   1  14   -0.33    1.28
   4  -1  14   -0.26    1.34
  -4  -1 -14   -0.69    1.77
  -4  -1 -14    1.17    1.72
   4   1  14    0.54    1.39
  -4   1 -14   -1.81    1.89
   4   1  14   -1.52    1.18
  -4   1 -14   -0.97    1.88
   5  -1  14   -0.78    1.27
  -5  -1 -14   -1.59    1.51
  -5  -1 -14   -1.11    1.71
   5   1  14   -1.31    1.27
  -5   1 -14   -1.98    1.81
  -6  -1 -14    1.24    0.75
   6   1  14    1.82    0.73
  -6   1 -14    0.90    0.75
   7  -2 -14    2.01    1.31
   6  -2 -14    7.46    1.93
  -6  -2  14    6.60    1.39
   6   2 -14    5.22    2.34
  -6   2  14    5.34    1.22
  -6   2  14    3.69    1.30
  -5  -2  14    9.45    1.84
  -5   2  14   10.79    2.33
  -5   2  14   13.20    1.87
  -5   2  14   16.72    2.28
   5   2 -14   12.59    2.89
  -4  -2  14   16.95    2.13
   4   2 -14   12.64    2.70
  -4   2  14   12.35    2.56
  -4   2  14   17.81    2.44
  -4   2  14   16.14    1.97
  -3  -2  14   25.07    2.38
  -3  -2  14   20.84    3.83
  -3   2  14   22.58    2.26
   3   2 -14   24.22    3.53
  -3   2  14   27.27    2.79
  -3   2  14   24.16    3.00
  -2  -2  14    7.36    1.36
  -2  -2  14    5.38    1.92
   2  -2 -14    8.75    2.40
  -2  -2  14    2.59    1.90
  -2   2  14    6.02    1.13
  -2   2  14    5.64    1.43
  -2   2  14    8.21    1.57
  -1  -2  14   59.68    6.25
  -1  -2  14   80.67    5.99
   1  -2 -14   77.77    6.01
  -1  -2  14   73.93    4.85
  -1   2  14   68.21    5.39
  -1   2  14   63.84    5.81
   0  -2  14    5.74    1.33
   0  -2  14    2.06    1.82
   0  -2 -14    7.01    2.26
   0   2  14    7.40    1.58
   0   2  14    4.62    1.38
   1  -2  14   35.66    4.20
  -1  -2 -14   38.36    4.11
   1  -2  14   36.53    3.09
   1   2  14   37.32    3.77
   1   2  14   39.60    3.40
  -2  -2 -14    1.49    2.02
   2  -2  14   -0.37    1.48
  -2  -2 -14    1.26    1.59
   2   2  14    0.60    1.25
  -2   2 -14   -1.19    1.81
  -3  -2 -14   57.07    5.55
   3  -2  14   65.80    5.49
   3  -2  14   61.84    4.54
  -3  -2 -14   68.88    5.50
  -3   2 -14   64.74    5.67
   3   2  14   65.27    4.42
   3   2  14   63.15    5.30
   4  -2  14    3.07    1.21
  -4  -2 -14    8.83    1.85
  -4  -2 -14    5.88    2.00
   4  -2  14    3.98    1.34
   4   2  14    7.15    1.43
  -4   2 -14    4.81    2.01
   4   2  14    5.84    1.28
   4   2  14    5.33    1.47
  -5  -2 -14   28.52    3.41
   5  -2  14   25.93    2.85
   5   2  14   23.93    2.61
   5   2  14   26.86    2.49
  -5   2 -14   24.33    3.59
  -6  -2 -14    1.89    0.78
   6   2  14   -0.78    0.71
  -6   2 -14   -0.72    0.78
  -6   3  14    0.80    1.16
  -5  -3  14   -2.10    1.50
  -5  -3  14   -0.04    1.22
  -5   3  14    0.08    1.12
  -5   3  14   -0.26    1.00
   5   3 -14    0.22    2.11
  -5   3  14   -0.47    1.30
  -4  -3  14   -2.30    2.00
  -4  -3  14   -0.02    1.25
  -4  -3  14   -1.81    1.60
  -4   3  14   -0.15    1.15
  -4   3  14   -0.13    1.06
   4   3 -14    1.45    2.37
  -4   3  14    0.26    1.48
  -3  -3  14    0.35    1.25
  -3  -3  14   -2.63    1.82
  -3  -3  14   -1.47    1.97
  -3   3  14   -0.31    1.00
  -3   3  14    0.80    1.19
   3   3 -14   -2.13    2.34
  -3   3  14    0.19    1.41
  -2  -3  14   -0.54    1.31
   2  -3 -14   -1.29    2.22
  -2  -3  14    0.04    1.87
  -2  -3  14   -1.46    1.81
  -2   3  14   -0.07    1.23
  -2   3  14    1.69    1.44
   1  -3 -14    0.21    2.18
  -1  -3  14   -0.99    1.63
  -1  -3  14   -2.44    1.79
  -1  -3  14   -0.11    1.33
  -1   3  14   -0.07    1.41
  -1   3  14   -0.80    1.23
   0  -3  14   -1.99    1.38
   0  -3 -14    1.01    2.20
   0  -3  14   -1.65    1.72
   0   3  14    0.08    1.38
   0   3  14    0.31    1.21
  -1  -3 -14   -0.51    2.14
   1  -3  14   -1.66    1.40
   1  -3  14   -1.24    1.64
   1   3  14    0.39    1.42
   1   3  14   -0.50    1.22
  -1   3 -14   -2.63    1.70
  -2  -3 -14    0.34    2.08
   2  -3  14   -0.82    1.49
   2   3  14    0.64    1.23
  -2   3 -14   -1.69    1.83
   2   3  14    0.80    1.29
   2   3  14   -0.73    1.37
  -3  -3 -14   -0.36    1.96
  -3  -3 -14   -0.94    1.69
   3  -3  14    1.08    1.36
   3  -3  14   -2.39    1.43
   3   3  14    1.37    1.29
  -3   3 -14   -3.27    1.98
   3   3  14   -0.59    1.32
   3   3  14    0.74    1.22
  -4  -3 -14    2.04    1.61
  -4  -3 -14   -1.11    1.74
   4  -3  14   -1.85    1.25
   4   3  14   -0.19    1.09
   4   3  14   -0.32    1.31
   4   3  14   -0.02    1.31
  -5  -3 -14    0.77    1.40
   5   3  14   -0.03    0.93
   5   3  14    0.34    1.16
  -6   3 -14   -0.25    0.82
  -6   4  14   -0.41    0.63
  -6   4  14    2.00    0.94
  -5  -4  14    3.89    1.30
   5   4 -14    3.36    2.47
  -5   4  14    3.98    0.96
  -5   4  14    2.48    1.09
  -5   4  14    2.37    1.09
  -4  -4  14    1.31    2.19
  -4  -4  14    5.85    1.40
   4   4 -14    4.97    2.50
  -4   4  14    4.32    1.31
  -4   4  14    6.57    1.23
  -4   4  14    8.38    1.61
  -3  -4  14   -0.18    2.01
   3  -4 -14    2.17    2.27
  -3  -4  14    4.76    1.43
  -3  -4  14   -0.07    1.98
  -3   4  14    3.32    1.00
   3   4 -14    2.13    2.34
  -3   4  14    6.33    1.56
  -3   4  14    4.69    1.30
   2  -4 -14    7.93    2.38
  -2  -4  14    8.91    1.44
  -2  -4  14    4.43    2.01
  -2   4  14   11.32    2.21
  -2   4  14    7.20    1.50
  -1  -4  14   37.98    3.19
   1  -4 -14   44.37    4.43
  -1  -4  14   32.63    3.92
  -1  -4  14   26.91    4.54
  -1   4  14   38.55    3.37
  -1   4  14   38.18    3.70
   0  -4  14    5.49    2.09
   0  -4 -14   11.58    2.53
   0  -4  14   10.73    1.68
   0   4  14   12.27    2.22
   0   4  14    8.43    1.58
  -1  -4 -14   21.13    3.59
   1  -4  14   19.41    3.47
   1   4  14   18.77    2.87
   1   4  14   21.37    2.51
  -2  -4 -14   30.06    3.94
   2  -4  14   28.54    3.62
  -2   4 -14   20.08    3.72
   2   4  14   28.74    2.87
   2   4  14   30.84    2.81
   2   4  14   28.85    3.18
   3  -4  14   27.12    2.79
  -3  -4 -14   23.08    3.49
   3  -4  14   28.67    3.36
   3   4  14   24.93    2.78
   3   4  14   26.84    2.57
   3   4  14   26.48    3.04
  -4  -4 -14   34.55    3.80
   4  -4  14   33.33    3.02
   4  -4  14   34.32    3.35
   4   4  14   30.75    3.19
   4   4  14   32.56    3.03
   4   4  14   30.92    2.76
   5   4  14    6.26    1.09
   5   4  14    6.79    1.28
  -5   5  14    2.02    1.31
  -5   5  14    0.61    0.79
  -5   5  14    2.41    0.88
  -4  -5  14   -2.76    1.58
  -4  -5  14   -0.70    1.22
  -4   5  14   -0.94    1.31
   4   5 -14   -1.21    2.21
  -4   5  14    0.26    1.13
  -4   5  14   -1.28    0.95
  -3  -5  14   -2.79    1.84
  -3  -5  14   -1.83    1.90
  -3  -5  14   -1.70    1.28
   3   5 -14   -2.31    2.21
  -3   5  14    0.21    1.28
  -3   5  14    0.34    1.38
   2  -5 -14   -0.70    2.19
  -2  -5  14   -0.15    1.72
  -2  -5  14   -1.14    1.32
  -2  -5  14   -2.90    1.87
  -2   5  14    1.06    1.42
  -2   5  14   -1.01    1.32
   1  -5 -14    0.99    2.33
   1  -5 -14    1.22    1.80
  -1  -5  14   -1.86    1.57
  -1  -5  14   -0.84    1.42
  -1   5  14    1.42    1.44
  -1   5  14   -0.80    1.31
   0  -5  14    0.31    1.83
   0  -5  14    0.20    1.47
   0  -5 -14    0.90    2.33
   0   5  14   -0.54    1.34
   0   5  14    2.30    1.45
  -1  -5 -14   -0.69    2.19
   1  -5  14   -1.85    1.66
   1   5  14    1.18    1.34
   1   5  14   -1.16    1.29
  -2  -5 -14    2.03    2.07
   2  -5  14   -1.46    1.58
   2   5  14    0.32    1.26
  -2   5 -14   -2.03    1.89
   2   5  14   -0.36    1.21
   2   5  14   -0.53    1.39
   3  -5  14   -0.25    1.47
   3  -5  14   -0.64    1.14
  -3  -5 -14    1.51    1.91
   3   5  14    0.61    1.51
   3   5  14    1.31    1.14
   4  -5  14   -0.80    1.11
   4  -5  14   -1.24    1.05
   4   5  14    1.55    1.31
   4   5  14   -0.20    0.92
   5   5  14   -1.01    0.63
  -5   6  14    2.36    0.73
  -5   6  14    3.42    0.74
  -4  -6  14   -0.85    1.31
  -4  -6  14   -1.82    1.96
  -4   6  14    2.69    1.40
  -4   6  14    1.30    1.12
  -4   6  14    2.30    0.82
  -3  -6  14   -2.18    1.24
   3  -6 -14   -0.03    1.30
  -3   6  14    2.17    1.38
   3   6 -14    0.74    2.14
   2  -6 -14    8.18    1.84
  -2  -6  14    2.22    1.16
   2  -6 -14    3.21    2.33
  -2  -6  14    4.22    2.01
  -2   6  14    5.05    1.12
  -1  -6  14    2.87    1.70
  -1  -6  14    0.90    1.95
   1  -6 -14    1.67    2.33
  -1  -6  14    3.62    1.48
   1  -6 -14    3.96    1.79
  -1   6  14    6.17    1.49
   0  -6  14   17.56    3.53
   0  -6 -14   15.61    2.82
   0  -6 -14   22.97    3.35
   0   6  14   23.38    2.57
  -1  -6 -14    8.78    1.87
   1  -6  14    6.65    1.93
  -1  -6 -14    4.77    1.83
   1   6  14    8.33    1.53
   2  -6  14   41.01    3.12
  -2  -6 -14   37.36    4.04
  -2  -6 -14   42.77    4.28
   2   6  14   35.13    3.30
   2   6  14   38.46    3.19
   3  -6  14    4.59    1.22
   3   6  14    6.17    1.44
   3   6  14    3.68    0.98
   4  -6  14   29.81    2.82
   4   6  14   27.49    2.61
  -4   7  14    2.89    0.63
   3  -7 -14   -0.26    1.60
  -3  -7  14   -2.22    1.72
   2  -7 -14   -1.29    2.07
  -2  -7  14   -0.14    1.64
  -2  -7  14    0.23    1.33
   2  -7 -14    2.41    1.55
  -2   7  14    3.06    1.45
  -1  -7  14   -1.59    1.38
   1  -7 -14    0.04    1.58
  -1  -7  14   -2.55    1.45
   1  -7 -14   -0.37    1.75
  -1   7  14    0.91    1.25
   0  -7 -14    3.17    2.20
   0  -7  14    2.07    1.30
   0  -7  14   -0.43    1.59
   0  -7 -14    3.71    1.64
   0   7 -14    0.62    1.54
   0   7  14    4.22    1.29
  -1  -7 -14    1.27    2.04
  -1  -7 -14   -0.27    1.52
   1   7  14   -0.15    0.94
  -2  -7 -14    4.43    1.46
   2  -7  14    2.73    1.46
   2  -7  14    1.13    0.85
   2   7  14    2.65    0.91
  -3  -7 -14   -1.07    1.03
   3  -7  14   -0.47    0.74
   3  -8 -14   -0.59    1.28
  -2  -8  14   -0.32    1.40
  -1  -8  14    4.18    1.40
   1  -8 -14    8.62    2.16
   0  -8  14    0.17    1.03
   1  -8  14    1.35    0.55
  -1   8 -14   -0.90    1.09
   2   8  14    1.00    0.75
   6   0 -15   -0.61    1.68
   5   0 -15   19.51    3.24
  -5   0  15   17.99    2.05
  -4   0  15   -1.71    1.32
  -4   0  15    0.18    1.18
   4   0 -15    0.55    2.24
  -3   0  15   17.37    2.04
   3   0 -15   15.72    2.84
  -2   0  15    0.33    1.10
  -2   0  15   -1.39    1.49
  -1   0  15   43.46    3.01
  -1   0  15   34.56    4.12
   0   0  15    0.00    1.48
   1   0  15    5.86    1.66
  -1   0 -15   10.20    2.38
  -2   0 -15    0.73    1.61
  -2   0 -15    1.72    2.17
   2   0  15   -0.86    1.42
  -3   0 -15   59.49    5.52
  -3   0 -15   67.08    5.52
   3   0  15   63.80    5.41
  -4   0 -15   -0.31    1.79
   4   0  15   -2.04    1.25
  -4   0 -15   -1.02    1.64
  -5   0 -15   14.62    1.95
   6  -1 -15    0.34    1.45
   6   1 -15   -0.68    1.93
  -5  -1  15   -0.10    1.74
   5  -1 -15    3.68    2.05
  -5  -1  15    1.68    1.21
   5   1 -15    2.50    2.37
  -5   1  15    1.20    0.91
  -5   1  15   -0.78    1.17
  -5   1  15    0.86    1.36
  -4  -1  15    2.27    1.19
  -4  -1  15   -1.94    1.48
  -4  -1  15    1.87    1.76
  -4   1  15    1.78    1.18
  -4   1  15    2.56    1.54
  -4   1  15    0.76    1.30
   4   1 -15    0.58    2.29
  -3  -1  15    1.58    1.68
  -3  -1  15    2.08    1.19
  -3   1  15    3.35    1.56
   3   1 -15    2.89    2.14
  -3   1  15    1.74    1.11
  -3   1  15    1.97    1.34
  -2  -1  15    6.01    1.30
  -2  -1  15    3.80    1.69
  -2   1  15    5.80    1.12
  -2   1  15    6.70    1.68
   2   1 -15    6.79    2.09
  -2   1  15    3.73    1.48
  -1  -1  15    0.01    1.49
  -1  -1  15   -1.82    1.57
  -1  -1  15    1.51    1.20
   1  -1 -15    1.94    2.34
  -1   1  15   -0.05    1.51
  -1   1  15    0.35    1.35
  -1   1  15    1.12    1.03
   0  -1  15    4.00    1.25
   0  -1 -15    6.54    2.25
   0  -1  15    2.32    1.62
   0   1  15    3.42    1.43
   1  -1  15   -0.34    1.46
  -1  -1 -15   -0.17    2.17
   1   1  15    0.24    1.35
  -2  -1 -15   12.18    2.35
   2  -1  15    7.33    1.70
   2   1  15   12.47    2.59
  -2   1 -15    7.25    1.84
  -3  -1 -15   -1.37    2.03
  -3  -1 -15    1.56    1.66
   3  -1  15   -1.91    1.38
  -3   1 -15    0.78    1.77
  -3   1 -15    0.08    2.09
   3   1  15   -0.66    1.29
   4  -1  15   -1.65    1.10
   4  -1  15   -0.70    1.24
  -4  -1 -15   -2.00    1.77
  -4  -1 -15   -0.95    1.47
   4   1  15   -0.45    1.26
  -4   1 -15   -1.46    1.81
  -5  -2  15    0.15    1.18
  -5  -2  15   -2.86    1.73
  -5   2  15   -0.45    1.24
  -5   2  15    1.03    0.96
  -5   2  15   -1.37    1.01
   5   2 -15   -2.19    2.13
  -4  -2  15    2.22    1.24
  -4  -2  15   -0.45    1.83
   4   2 -15    2.18    2.36
  -4   2  15    1.48    1.23
  -4   2  15    1.48    1.50
  -4   2  15    2.15    1.14
  -3  -2  15   -0.51    1.82
  -3  -2  15   -2.73    1.62
  -3  -2  15    1.19    1.20
  -3   2  15    0.56    1.06
   3   2 -15   -0.55    2.26
  -3   2  15    1.30    1.23
  -3   2  15    1.23    1.50
  -2  -2  15    3.59    1.28
  -2  -2  15    2.11    1.76
   2  -2 -15    4.55    2.39
  -2  -2  15    1.17    1.82
  -2   2  15    2.32    1.33
  -2   2  15    3.29    1.56
  -1  -2  15    4.58    1.71
   1  -2 -15    6.59    2.35
  -1  -2  15    5.69    1.33
  -1  -2  15    3.38    1.88
  -1   2  15    6.80    1.63
  -1   2  15    5.56    1.43
   0  -2 -15   38.36    4.02
   0  -2  15   27.53    4.11
   0  -2  15   36.03    2.99
   0   2  15   36.02    3.34
   0   2  15   35.74    3.61
  -1  -2 -15    3.09    2.24
   1  -2  15    1.52    1.25
   1  -2  15    2.90    1.66
   1   2  15    2.87    1.36
   1   2  15    3.39    1.54
   2  -2  15   27.59    3.53
  -2  -2 -15   34.19    3.43
  -2  -2 -15   26.47    3.72
  -2   2 -15   25.29    3.69
   2   2  15   27.08    3.21
   3  -2  15   12.21    2.00
  -3  -2 -15    8.59    2.23
  -3  -2 -15    9.65    1.88
   3  -2  15    8.72    1.72
  -3   2 -15    6.93    2.06
   3   2  15   12.92    2.46
  -4  -2 -15   25.96    3.05
   4   2  15   23.98    2.40
  -4   2 -15   22.09    3.38
  -5  -2 -15   -2.34    1.27
   5   2  15   -0.91    0.86
  -6   3  15   -1.52    0.86
  -5  -3  15   -0.56    2.02
  -5  -3  15   -1.43    1.44
  -5  -3  15    3.44    1.27
  -5   3  15    1.77    0.99
  -5   3  15    2.46    1.21
  -5   3  15    3.22    1.02
   5   3 -15    1.13    2.27
  -4  -3  15   -0.46    1.60
  -4  -3  15   -0.63    0.90
  -4   3  15   -0.15    1.13
  -4   3  15    0.97    1.07
  -4   3  15    0.47    1.41
   4   3 -15   -0.51    2.31
  -3  -3  15   -0.41    1.86
  -3  -3  15   -1.54    1.93
  -3  -3  15    2.81    1.28
  -3   3  15    3.14    1.46
   3   3 -15    0.64    2.39
  -3   3  15    2.87    1.29
  -3   3  15    2.12    1.04
  -2  -3  15   -0.24    1.84
  -2  -3  15    1.22    1.31
  -2  -3  15   -0.72    1.84
   2  -3 -15    1.01    2.37
  -2   3  15    2.06    1.43
  -2   3  15    0.81    1.25
  -1  -3  15   -0.56    1.30
  -1  -3  15   -1.37    1.81
   1  -3 -15    1.94    2.29
  -1  -3  15   -0.32    1.61
  -1   3  15    0.18    1.26
  -1   3  15    1.56    1.44
   0  -3  15   -0.33    1.35
   0  -3  15   -2.17    1.77
   0  -3 -15    0.12    2.18
   0   3  15    0.77    1.24
   0   3  15    1.36    1.48
   1  -3  15    5.46    1.83
  -1  -3 -15    7.74    2.32
   1   3  15    6.74    1.49
   1   3  15    8.07    1.61
  -1   3 -15    4.52    1.82
   2  -3  15   -0.94    1.53
  -2  -3 -15   -0.72    1.52
  -2  -3 -15   -2.51    2.04
   2   3  15   -1.04    1.40
  -2   3 -15   -3.00    1.83
   2   3  15   -0.31    1.24
  -3  -3 -15    1.83    1.71
   3  -3  15    2.08    1.52
   3  -3  15    2.45    0.98
  -3  -3 -15    3.95    1.60
   3   3  15    5.82    1.32
  -3   3 -15    3.02    2.03
   3   3  15    3.73    1.29
   4  -3  15   -1.33    1.26
  -4  -3 -15   -1.84    1.73
  -4  -3 -15   -0.37    1.41
   4   3  15   -1.70    1.03
   4   3  15   -0.19    1.14
   5   3  15    0.35    0.85
  -5   4  15    3.60    1.06
  -5   4  15    2.80    1.29
  -4  -4  15   -0.72    2.08
  -4  -4  15   -1.82    1.72
  -4  -4  15    3.32    1.23
   4   4 -15    0.38    2.27
   3  -4 -15   -2.43    2.23
  -3  -4  15    3.53    1.34
  -3  -4  15   -2.06    1.93
  -3  -4  15   -1.49    2.05
  -3   4  15    4.00    1.26
   3   4 -15    1.22    2.26
  -2  -4  15    4.68    1.40
  -2  -4  15    2.73    1.92
  -2  -4  15   -0.40    2.06
   2  -4 -15    2.30    2.29
  -2   4  15    4.19    1.34
  -2   4  15    6.23    1.51
   1  -4 -15   13.30    2.70
  -1  -4  15   14.49    3.10
  -1  -4  15   16.80    2.34
  -1   4  15   16.03    2.41
  -1   4  15   15.28    2.69
   0  -4  15   11.18    1.76
   0  -4 -15   10.86    2.59
   0   4  15   14.05    2.34
   0   4  15   12.12    2.56
   1  -4  15   12.55    2.28
  -1  -4 -15   17.24    3.60
   1   4  15   18.86    2.67
   1   4  15   18.21    2.42
   2  -4  15    7.03    1.78
  -2  -4 -15    4.55    1.92
   2   4  15    5.36    1.38
   2   4  15    5.89    1.40
  -2   4 -15    3.91    1.88
   2   4  15    7.22    1.53
   3  -4  15   18.02    2.91
  -3  -4 -15   15.07    2.43
   3  -4  15   16.65    2.31
   3   4  15   16.13    2.19
   3   4  15   17.58    2.08
   3   4  15   14.62    2.52
   4  -4  15   10.74    2.04
   4   4  15   13.54    1.95
  -4   4 -15   12.49    2.27
  -5   5  15    1.85    0.71
  -5   5  15    0.53    0.70
  -4  -5  15    0.51    1.32
  -4  -5  15   -1.98    1.90
  -4   5  15    1.42    1.05
   4   5 -15   -2.33    2.23
  -4   5  15    2.29    1.40
  -3  -5  15   -1.13    1.11
   3   5 -15    0.55    2.10
  -3   5  15    0.67    0.83
  -3   5  15    0.70    1.39
  -2  -5  15    3.54    1.87
   2  -5 -15    2.41    2.28
  -2  -5  15   -0.78    2.00
  -2  -5  15    3.59    1.29
  -2   5  15    6.30    1.36
  -2   5  15    3.93    1.14
  -1  -5  15   -1.60    1.37
  -1  -5  15   -1.16    1.59
   1  -5 -15   -1.58    2.28
  -1   5  15   -0.59    1.30
  -1   5  15    1.34    1.38
   0  -5  15    2.37    1.93
   0  -5 -15    3.10    2.35
   0  -5  15    2.21    1.50
   0   5  15    3.90    1.37
   0   5  15    4.12    1.43
  -1  -5 -15   -1.34    1.52
   1  -5  15   -2.08    1.64
   1   5  15   -0.02    1.22
   1   5  15    0.76    1.36
  -2  -5 -15   -1.58    1.92
   2   5  15    0.26    1.29
   2   5  15   -0.01    1.11
   3  -5  15   -0.78    1.19
   3   5  15    0.08    0.93
   3   5  15   -0.86    0.80
   3   5  15   -0.18    1.00
   4   5  15   -0.35    1.10
  -4  -6  15   -1.90    1.34
   3   6 -15    8.71    2.52
   2  -6 -15   -3.53    2.14
  -2  -6  15   -2.08    1.69
  -2  -6  15   -1.79    1.84
  -2  -6  15   -1.80    1.31
  -2   6  15   -0.99    1.28
  -2   6  15    0.28    1.40
  -1  -6  15   24.32    3.42
   1  -6 -15   22.80    3.66
  -1  -6  15   24.01    2.75
  -1   6  15   30.62    2.91
  -1   6  15   29.97    3.27
   0  -6 -15   -0.46    2.17
   0  -6 -15    1.87    1.69
   0  -6  15   -0.41    1.80
   0   6  15    1.12    1.23
   0   6  15    1.85    1.28
  -1  -6 -15   12.82    2.46
   1  -6  15   10.84    2.12
   1   6  15   14.78    2.51
   2  -6  15    0.81    1.47
   2  -6  15    2.85    1.04
   2   6  15    2.48    1.14
   2   6  15    3.24    1.13
   3  -6  15   17.46    2.41
   3   6  15   12.69    2.14
   3   6  15   16.77    2.08
   1  -7 -15   -0.95    2.04
   0   7 -15   -2.00    1.16
   0   7  15    2.72    1.26
   1   7  15    1.79    1.06
   2  -7  15   -0.19    0.70
   2   7  15    0.26    0.80
   3   7  15   -1.15    0.65
  -1  -8  15   -0.12    0.97
   0   8 -15    6.66    0.99
   1  -8  15    1.57    0.55
  -5   0  16    0.59    1.54
  -5   0  16    0.77    1.11
   5   0 -16   -0.37    1.85
  -4   0  16   11.18    1.76
   4   0 -16    7.84    2.28
  -3   0  16    0.75    1.10
  -3   0  16   -1.86    1.43
  -2   0  16    6.47    1.72
  -1   0  16   -1.09    1.53
  -1   0  16    0.35    1.10
   0   0  16   64.91    5.69
  -1   0 -16    0.24    2.25
   1   0  16   -1.02    1.46
  -2   0 -16   31.70    3.50
   2   0  16   27.88    3.47
  -2   0 -16   28.22    3.91
  -3   0 -16   -1.66    1.99
  -3   0 -16    0.62    1.61
   3   0  16   -2.16    1.25
  -4   0 -16    9.76    1.76
   4   0  16    8.02    1.37
  -4   0 -16    4.55    1.84
   6  -1 -16    1.36    1.32
  -5   1  16   -0.14    1.08
   5   1 -16   -1.72    1.80
  -5   1  16    4.63    1.18
  -4  -1  16    0.18    0.96
  -4  -1  16    1.13    1.24
  -4   1  16    0.58    1.32
  -4   1  16    3.41    1.17
   4   1 -16    1.07    2.20
  -3  -1  16    6.85    1.33
  -3  -1  16    6.55    1.86
  -3   1  16    8.77    1.74
   3   1 -16    5.81    2.23
  -3   1  16    5.81    1.54
  -3   1  16    9.88    1.69
  -2  -1  16    0.38    1.61
  -2  -1  16    2.91    1.19
  -2  -1  16    4.27    1.69
  -2   1  16    3.22    1.44
  -2   1  16    5.16    1.12
   2   1 -16    5.63    2.02
  -1  -1  16   21.65    3.01
  -1  -1  16   16.96    2.06
  -1   1  16   14.93    2.84
   0  -1  16   -1.70    1.54
   0  -1 -16    1.36    2.28
   0  -1  16    0.47    1.13
   0   1  16    1.67    1.40
  -1  -1 -16   27.00    3.68
   1  -1  16   17.48    3.22
   1   1  16   23.40    3.11
   2  -1  16    1.78    1.50
  -2  -1 -16    2.01    2.20
  -2  -1 -16    3.18    1.53
   2   1  16    3.76    1.42
  -2   1 -16    2.34    1.60
   3  -1  16    8.79    1.66
  -3  -1 -16   13.31    2.76
  -3   1 -16    9.27    1.93
   3   1  16    9.19    1.61
  -4  -1 -16   -0.91    1.36
   4   1  16   -0.51    1.24
  -4   1 -16   -1.96    1.49
   5   2 -16    6.11    2.28
  -5   2  16   10.77    1.66
  -5   2  16    7.64    1.45
  -4  -2  16    0.66    1.20
  -4  -2  16   -1.21    1.65
  -4   2  16    2.87    1.09
   4   2 -16   -1.40    2.14
  -4   2  16   -0.16    1.13
  -4   2  16    0.98    1.17
  -3  -2  16    6.04    2.07
  -3  -2  16    9.92    1.87
  -3   2  16    9.13    1.75
  -3   2  16    9.94    1.65
  -3   2  16    6.42    1.46
   3   2 -16    8.02    2.41
  -2  -2  16   -2.58    1.74
  -2  -2  16   -0.88    1.24
  -2  -2  16   -1.38    1.71
  -2   2  16    0.25    1.46
  -2   2  16    0.79    0.96
  -2   2  16    0.45    1.30
  -1  -2  16   14.40    2.97
   1  -2 -16   11.49    2.57
  -1  -2  16   11.44    2.01
  -1   2  16    8.29    1.61
  -1   2  16   12.28    2.40
   0  -2  16   -0.03    1.75
   0  -2 -16    2.68    2.29
   0  -2  16    1.84    1.31
   0   2  16    3.66    1.36
   0   2  16    3.50    1.58
  -1  -2 -16   14.29    2.57
   1  -2  16   13.32    2.09
   1  -2  16    9.97    1.98
   1   2  16   13.91    2.62
  -2  -2 -16    4.09    1.53
  -2  -2 -16    1.88    2.10
   2  -2  16    2.91    1.57
   2   2  16    4.08    1.37
  -2   2 -16    1.43    1.71
  -3  -2 -16   26.19    3.25
   3  -2  16   26.71    3.29
   3   2  16   26.94    3.05
  -3   2 -16   25.05    3.58
  -4  -2 -16    5.71    1.50
  -4  -2 -16    4.92    1.80
   4  -2  16    4.85    1.15
  -4   2 -16    5.34    1.75
   4   2  16    6.71    1.35
  -5   3  16    0.09    0.89
  -4  -3  16    0.76    1.20
  -4  -3  16   -2.08    1.87
  -4   3  16    2.30    1.03
  -4   3  16   -1.05    0.80
  -4   3  16    2.36    1.38
   4   3 -16   -0.67    1.87
  -3  -3  16   -2.26    1.83
  -3  -3  16   -2.10    1.71
  -3  -3  16   -1.39    1.06
   3   3 -16   -0.43    2.27
  -3   3  16    0.54    0.96
  -3   3  16    0.26    1.18
  -3   3  16   -0.39    1.10
   2  -3 -16   19.87    3.78
  -2  -3  16   18.39    2.30
  -2  -3  16   17.49    3.44
  -2   3  16   20.58    2.50
  -2   3  16   23.61    2.93
  -1  -3  16   -1.16    1.30
  -1  -3  16   -0.20    1.82
   1  -3 -16   -1.40    2.23
  -1  -3  16   -1.08    1.58
  -1   3  16    1.00    1.51
  -1   3  16    0.17    1.28
   0  -3  16    7.97    1.58
   0  -3 -16    9.73    2.44
   0   3  16   13.10    2.65
   0   3  16   12.10    2.31
   1  -3  16   -0.14    1.72
  -1  -3 -16   -0.99    2.12
   1   3  16   -0.02    1.43
   1   3  16    0.33    1.28
   2  -3  16    9.37    1.82
  -2  -3 -16   14.49    2.51
  -2  -3 -16    9.67    2.21
  -2   3 -16    7.76    1.93
   2   3  16    9.21    1.57
  -3  -3 -16   -2.31    1.84
  -3  -3 -16    0.17    1.35
   3  -3  16   -0.91    1.33
   3  -3  16    3.09    1.24
   3   3  16    3.41    0.92
   3   3  16    1.01    1.08
   4   3  16   -1.07    1.00
   4   3  16   -0.36    0.83
  -5  -4  16   -1.40    0.96
  -5   4  16    0.03    0.73
   4   4 -16   -0.39    2.08
  -4   4  16    1.63    0.85
  -4   4  16   -0.29    0.99
  -3  -4  16    2.89    1.27
   3   4 -16    2.78    1.78
  -3   4  16    4.11    1.24
  -3   4  16    6.53    1.57
  -3   4  16    4.45    0.97
   2  -4 -16   -3.74    2.30
  -2  -4  16   -0.88    1.11
  -2  -4  16   -0.72    1.81
  -2   4  16    0.42    0.92
  -2   4  16    2.15    1.39
  -1  -4  16    7.22    1.51
  -1  -4  16    5.65    1.70
   1  -4 -16    6.22    2.37
  -1   4  16    5.64    1.34
  -1   4  16    4.74    1.23
   0  -4  16   -1.48    1.70
   0  -4 -16    0.02    2.00
   0  -4  16    0.81    1.38
   0   4  16    2.18    1.39
   0   4  16    2.18    1.15
  -1  -4 -16   17.21    3.27
   1   4  16   19.34    2.42
   1   4  16   13.37    2.42
  -2  -4 -16    0.79    2.08
  -2  -4 -16    3.21    1.36
   2   4  16   -1.30    1.22
   2   4  16   -0.14    0.93
   2   4  16   -0.45    1.09
   3  -4  16    5.65    1.44
   3   4  16    8.33    1.34
   3   4  16    4.54    1.16
  -3   4 -16    0.93    1.72
   4  -4  16    2.15    0.88
   4   4  16    3.77    0.88
   4   4  16    0.81    0.69
   4   4  16   -0.14    0.86
  -4   5  16    0.99    0.57
  -3  -5  16   -0.59    1.78
  -3  -5  16   -0.33    1.69
  -3   5  16    3.20    1.18
   3   5 -16    3.46    2.00
  -2  -5  16   -1.97    1.64
  -2  -5  16   -2.88    1.81
  -2   5  16    0.78    1.21
  -2   5  16    0.13    1.37
  -1  -5  16   -0.16    1.51
  -1  -5  16   -0.33    1.89
  -1  -5  16    0.11    1.28
   1  -5 -16   -0.73    2.05
  -1   5  16    1.38    1.28
  -1   5  16    1.13    1.37
   0  -5  16   -0.77    1.74
   0  -5 -16   -3.43    2.18
   0   5  16    0.86    1.20
   0   5  16   -0.12    1.33
   1  -5  16    5.38    1.80
  -1  -5 -16    9.36    2.42
   1   5  16    4.34    1.32
   1   5  16    7.34    1.37
   2   5  16    0.54    1.01
   2   5  16   -0.44    1.05
   3  -5  16    6.91    1.41
   3   5  16    5.08    1.10
   3   5  16    7.90    1.12
   3   5  16    8.39    1.48
   2  -6 -16   -2.36    1.92
  -2  -6  16    0.66    1.62
   1  -6 -16    2.30    2.15
  -1  -6  16    1.15    1.38
   0   6  16   13.01    2.13
   1   6  16   -0.37    1.11
   2   6  16    2.93    0.98
   2   6  16    0.19    0.87
  -1  -7  16   -0.86    1.08
  -5   0  17   -0.93    0.89
   5   0 -17   -1.35    1.29
  -4   0  17    3.32    1.35
  -4   0  17    0.53    1.07
  -3   0  17    1.07    1.10
  -2   0  17   -0.05    1.08
  -1   0  17    4.39    1.14
  -1   0  17    1.90    1.51
   0   0  17   -0.52    1.42
   1   0  17    1.49    1.45
  -2   0 -17   -2.37    1.41
  -3   0 -17   16.34    2.67
   5   1 -17   -0.82    1.49
  -4  -1  17   -0.17    1.09
  -4  -1  17    2.66    1.65
  -4   1  17    1.02    0.99
  -4   1  17   -1.32    1.14
   4   1 -17   -1.87    1.79
  -3  -1  17   -0.36    1.09
  -3  -1  17    1.24    1.55
   3   1 -17   -2.88    1.84
  -3   1  17   -0.34    1.01
  -2  -1  17   10.03    1.84
  -2  -1  17   14.07    2.96
  -2   1  17   10.28    1.67
   2   1 -17   11.89    2.22
  -1  -1  17    8.78    1.35
  -1   1  17    7.86    1.64
   0  -1 -17   -0.21    2.13
   0  -1  17   -1.61    1.09
   0  -1  17   -1.40    1.47
   0   1  17   -0.40    1.35
   1  -1  17    8.01    1.74
   1   1  17    8.87    1.63
   2  -1  17    4.74    1.57
  -2  -1 -17    9.07    2.31
  -2  -1 -17    7.39    1.58
   2   1  17    5.92    1.45
  -2   1 -17    7.19    1.64
   3  -1  17    1.33    1.08
  -3   1 -17    1.35    1.32
   3   1  17    1.84    1.04
   4   1  17   -0.54    0.71
  -5   2  17   -1.29    0.78
  -4  -2  17   -0.70    1.42
  -4  -2  17    4.85    1.22
  -4  -2  17    1.48    1.68
  -4   2  17    2.30    1.38
   4   2 -17   -0.09    1.65
  -4   2  17    4.39    0.98
  -4   2  17    2.05    1.09
  -3  -2  17   -0.17    1.01
  -3  -2  17   -1.56    1.30
  -3   2  17    1.26    1.41
  -3   2  17    1.39    0.94
  -3   2  17   -0.41    1.18
   3   2 -17   -2.56    1.99
  -2  -2  17   15.73    3.16
  -2  -2  17   13.28    1.99
  -2   2  17   12.19    2.26
  -2   2  17   13.01    1.69
  -1  -2  17    5.89    1.31
   1  -2 -17    3.58    2.20
  -1   2  17    3.06    1.17
  -1   2  17    2.40    1.20
   0  -2  17    8.51    1.86
   0   2  17   12.69    2.31
  -1  -2 -17    4.22    2.22
   1   2  17    1.72    1.10
   2  -2  17    1.96    1.26
   2   2  17    4.33    1.14
   3   2  17    0.58    1.06
   4  -2  17    2.49    0.80
   4   2  17    1.82    0.73
  -4  -3  17   -1.09    1.28
  -4   3  17    1.11    0.97
   4   3 -17   -0.15    1.72
  -4   3  17    1.67    0.84
  -3  -3  17    4.29    1.31
  -3   3  17    4.49    1.30
  -3   3  17    6.12    1.00
  -3   3  17    5.81    1.58
  -2  -3  17   -1.39    0.88
  -2   3  17    0.44    1.22
  -2   3  17   -0.92    1.46
  -1  -3  17   10.05    1.83
  -1  -3  17   11.33    2.02
   1  -3 -17    6.76    2.33
  -1   3  17   11.29    2.43
  -1   3  17   11.69    2.12
   0  -3 -17   -3.18    2.10
   0  -3  17   -1.83    1.65
   0  -3  17   -0.07    1.28
   0   3  17   -0.23    1.21
   0   3  17    2.35    1.27
  -1  -3 -17    6.02    2.32
   1  -3  17    6.32    1.80
   1   3  17    6.56    1.46
  -2  -3 -17   -1.53    2.05
  -2  -3 -17   -0.06    1.11
   2  -3  17   -0.80    1.36
   2   3  17    0.62    1.11
  -3  -3 -17   16.02    2.17
   3  -3  17   18.61    2.40
   3   3  17   15.81    2.12
  -3   3 -17   11.26    1.89
   4  -3  17    0.18    0.78
  -4   4  17    1.34    0.70
  -3  -4  17   -1.21    1.69
   3   4 -17    3.15    1.95
  -2  -4  17    0.55    1.64
  -2  -4  17   -1.58    1.90
   2  -4 -17   -3.33    2.03
  -2  -4  17    1.28    1.24
  -2   4  17    3.50    1.50
  -2   4  17    2.50    1.24
   1  -4 -17    0.14    2.21
  -1  -4  17    2.97    1.32
  -1  -4  17    0.51    1.88
  -1  -4  17    1.59    1.47
  -1   4  17    3.58    1.31
  -1   4  17    2.72    1.42
   0  -4  17    0.26    1.71
   0  -4 -17   -2.43    2.11
   0  -4  17   -1.17    0.97
   0   4  17    0.95    1.20
   0   4  17    0.44    1.40
   1  -4  17    9.26    1.91
   1   4  17   12.00    2.44
   1   4  17   10.02    2.04
   2  -4  17    0.49    1.37
  -2  -4 -17    2.28    0.93
   2   4  17    0.94    1.02
   2   4  17   -0.36    1.13
  -3  -4 -17   11.13    1.75
   3   4  17    8.13    1.21
  -4   5  17    2.38    0.57
   2  -5 -17   -0.75    2.04
  -2  -5  17    3.07    1.55
  -1  -5  17   -2.40    1.24
   0  -5  17    2.86    1.45
   1   5  17    0.02    1.18
   2   5  17    6.06    1.17
   5   0 -18   -2.43    1.32
  -3   0  18    2.55    1.29
  -3   0  18   -0.26    0.90
  -2   0  18    1.69    1.42
  -2   0  18    3.29    1.06
  -1   0  18   -1.70    1.38
  -1   0  18    4.05    1.28
   0   0  18   -0.14    1.34
   2   0  18   14.37    2.41
   4   1 -18   -1.25    1.27
  -4   1  18    0.57    0.91
  -3  -1  18    2.37    1.54
  -3  -1  18   -2.01    1.37
  -3  -1  18    0.35    1.02
  -3   1  18    0.06    1.25
  -3   1  18   -0.97    0.73
  -2  -1  18    2.81    1.51
  -2  -1  18    0.06    1.06
  -2  -1  18   -2.03    1.47
   2   1 -18    0.26    1.60
  -2   1  18   -0.36    0.90
  -2   1  18   -1.03    1.33
  -1  -1  18    6.80    1.22
  -1  -1  18    3.16    1.65
  -1  -1  18    8.63    1.60
  -1   1  18    5.18    1.53
   0  -1  18   -1.70    1.37
   0   1  18    0.22    1.32
  -1  -1 -18   10.58    2.44
   1  -1  18    9.06    1.77
   1   1  18   13.38    2.59
   2  -1  18    2.94    1.30
   2   1  18    4.31    1.23
  -3  -1 -18    2.14    1.05
   3  -1  18    2.82    1.18
  -3   1 -18    0.75    1.11
   3   1  18    4.21    1.11
  -4   2  18   -0.27    0.69
  -3  -2  18   -2.59    1.47
  -3   2  18   -0.54    0.72
  -2  -2  18   -1.01    1.46
  -2  -2  18   -0.45    1.01
   2   2 -18    2.56    1.64
  -2   2  18    0.77    1.23
  -1  -2  18   -0.91    1.09
  -1  -2  18   -2.47    1.52
  -1  -2  18   -0.16    1.39
  -1   2  18    1.32    1.28
   0  -2 -18   -2.93    2.19
   0  -2  18   -1.26    1.05
   0  -2  18   -1.87    1.41
   0   2  18    0.73    1.18
   1  -2  18   -1.34    1.46
   1   2  18    0.49    1.22
   2   2  18   -1.11    1.05
  -3  -2 -18    7.07    1.10
  -3   2 -18    4.67    1.26
  -4   3  18    1.29    0.69
   3   3 -18    0.02    1.48
   2   3 -18   11.23    2.09
  -1  -3  18   -1.68    1.13
   1  -3 -18   -3.59    2.17
   0  -3  18    2.14    0.92
   0   3  18    5.35    1.55
  -2  -4  18   -1.39    1.35
  -1  -4  18   -1.57    1.14
  -1  -4  18   -1.71    1.17
   0  -4  18   -1.34    1.11
   3   4  18   -0.87    0.66
   1   5  18    1.39    0.56
  -3   0  19   -1.41    0.76
  -2   0  19    3.21    1.11
  -1   0  19    9.64    1.93
   4   1 -19   -2.08    1.27
  -3   1  19    1.57    0.73
  -2  -1  19    4.15    0.97
  -2   1  19    2.63    0.80
  -1  -1  19    6.30    1.33
   2   2 -19    2.59    1.18
  -1  -2  19   -1.19    0.91
   2   3 -19    2.43    1.27
  -2   1  20   -0.89    0.51
  -1  -1  20   -0.46    0.79
   0   0   0    0.00    0.00
;
_shelx_hkl_checksum              42776
_olex2_submission_special_instructions 'No special instructions were received'
loop_
_space_group_symop_operation_xyz
'x, y, z'
'-x, y+1/2, -z+1/2'
'-x, -y, -z'
'x, -y-1/2, z-1/2'
loop_
_atom_site_label
_atom_site_type_symbol
_atom_site_fract_x
_atom_site_fract_y
_atom_site_fract_z
_atom_site_U_iso_or_equiv
_atom_site_adp_type
_atom_site_occupancy
_atom_site_site_symmetry_order
_atom_site_calc_flag
_atom_site_refinement_flags_posn
Br Br 0.04212(9) -0.90594(7) -0.21256(4) 0.0357(3) Uani 1 1 d .
C1 C 0.2072(9) -0.9007(6) -0.2931(4) 0.0273(11) Uani 1 1 d .
C2 C 0.3440(8) -0.7773(6) -0.2855(4) 0.0264(10) Uani 1 1 d .
H2 H 0.3546 -0.6960 -0.2417 0.032 Uiso 1 1 calc R
C3 C 0.4672(8) -0.7736(6) -0.3434(4) 0.0256(10) Uani 1 1 d .
H3 H 0.5632 -0.6904 -0.3391 0.031 Uiso 1 1 calc R
C4 C 0.4461(8) -0.8939(6) -0.4070(3) 0.0227(10) Uani 1 1 d .
C5 C 0.2995(8) -1.0171(6) -0.4144(3) 0.0233(10) Uani 1 1 d .
C6 C 0.1770(8) -1.0225(6) -0.3579(4) 0.0255(10) Uani 1 1 d .
H6 H 0.0780 -1.1039 -0.3628 0.031 Uiso 1 1 calc R
C7 C 0.5455(8) -0.9267(5) -0.4773(4) 0.0240(10) Uani 1 1 d .
C8 C 0.6940(8) -0.8715(6) -0.5114(4) 0.0250(10) Uani 1 1 d .
C9 C 0.8220(8) -0.7246(6) -0.4868(4) 0.0258(10) Uani 1 1 d .
H9A H 0.9671 -0.7432 -0.4883 0.031 Uiso 1 1 calc R
H9B H 0.8403 -0.6931 -0.4212 0.031 Uiso 1 1 calc R
C10 C 0.7133(9) -0.5939(6) -0.5555(4) 0.0272(11) Uani 1 1 d .
H10A H 0.7979 -0.4989 -0.5350 0.041 Uiso 1 1 calc GR
H10B H 0.5678 -0.5774 -0.5558 0.041 Uiso 1 1 calc GR
H10C H 0.7045 -0.6214 -0.6198 0.041 Uiso 1 1 calc GR
loop_
_atom_site_aniso_label
_atom_site_aniso_U_11
_atom_site_aniso_U_22
_atom_site_aniso_U_33
_atom_site_aniso_U_23
_atom_site_aniso_U_13
_atom_site_aniso_U_12
Br 0.0432(4) 0.0425(4) 0.0330(4) 0.0027(2) 0.0277(3) 0.0048(2)
C1 0.028(3) 0.037(3) 0.024(2) 0.006(2) 0.018(2) 0.006(2)
C2 0.031(3) 0.030(2) 0.021(2) -0.003(2) 0.013(2) 0.004(2)
C3 0.027(2) 0.031(2) 0.022(2) 0.001(2) 0.0127(19) 0.001(2)
C4 0.027(2) 0.028(2) 0.018(2) 0.0009(18) 0.0129(19) 0.0004(18)
C5 0.026(2) 0.025(2) 0.021(2) 0.0031(18) 0.0113(19) -0.0012(19)
C6 0.028(3) 0.031(2) 0.023(2) 0.006(2) 0.016(2) 0.004(2)
C7 0.027(3) 0.027(2) 0.025(2) 0.0017(19) 0.018(2) -0.0001(19)
C8 0.025(2) 0.029(2) 0.025(3) 0.0026(19) 0.014(2) 0.001(2)
C9 0.028(2) 0.028(2) 0.023(2) -0.002(2) 0.0112(19) -0.004(2)
C10 0.031(3) 0.025(2) 0.027(3) 0.0034(19) 0.012(2) -0.006(2)
loop_
_atom_type_symbol
_atom_type_description
_atom_type_scat_dispersion_real
_atom_type_scat_dispersion_imag
_atom_type_scat_source
C C 0.0033 0.0016 'International Tables Vol C Tables 4.2.6.8 and 6.1.1.4'
H H 0.0000 0.0000 'International Tables Vol C Tables 4.2.6.8 and 6.1.1.4'
Br Br -0.2901 2.4595 'International Tables Vol C Tables 4.2.6.8 and 6.1.1.4'
loop_
_geom_angle_atom_site_label_1
_geom_angle_atom_site_label_2
_geom_angle_atom_site_label_3
_geom_angle
_geom_angle_site_symmetry_1
_geom_angle_site_symmetry_3
C2 C1 Br 118.8(4) . .
C2 C1 C6 124.0(5) . .
C6 C1 Br 117.2(4) . .
C1 C2 H2 120.5 . .
C1 C2 C3 119.1(5) . .
C3 C2 H2 120.5 . .
C2 C3 H3 120.6 . .
C4 C3 C2 118.7(5) . .
C4 C3 H3 120.6 . .
C3 C4 C5 120.5(5) . .
C3 C4 C7 133.3(5) . .
C5 C4 C7 106.2(4) . .
C4 C5 C8 109.5(4) . 3_634
C6 C5 C4 121.5(5) . .
C6 C5 C8 129.0(5) . 3_634
C1 C6 H6 121.9 . .
C5 C6 C1 116.1(5) . .
C5 C6 H6 121.9 . .
C7 C7 C4 106.6(5) 3_634 .
C8 C7 C4 142.1(5) . .
C8 C7 C7 111.2(6) . 3_634
C5 C8 C9 124.2(4) 3_634 .
C7 C8 C5 106.5(4) . 3_634
C7 C8 C9 129.2(5) . .
C8 C9 H9A 109.2 . .
C8 C9 H9B 109.2 . .
C8 C9 C10 112.1(4) . .
H9A C9 H9B 107.9 . .
C10 C9 H9A 109.2 . .
C10 C9 H9B 109.2 . .
C9 C10 H10A 109.5 . .
C9 C10 H10B 109.5 . .
C9 C10 H10C 109.5 . .
H10A C10 H10B 109.5 . .
H10A C10 H10C 109.5 . .
H10B C10 H10C 109.5 . .
loop_
_geom_bond_atom_site_label_1
_geom_bond_atom_site_label_2
_geom_bond_distance
_geom_bond_site_symmetry_2
Br C1 1.919(5) .
C1 C2 1.382(8) .
C1 C6 1.401(7) .
C2 H2 0.9500 .
C2 C3 1.405(7) .
C3 H3 0.9500 .
C3 C4 1.387(7) .
C4 C5 1.423(7) .
C4 C7 1.472(7) .
C5 C6 1.383(7) .
C5 C8 1.491(7) 3_634
C6 H6 0.9500 .
C7 C7 1.462(10) 3_634
C7 C8 1.360(7) .
C8 C5 1.491(7) 3_634
C8 C9 1.500(7) .
C9 H9A 0.9900 .
C9 H9B 0.9900 .
C9 C10 1.524(7) .
C10 H10A 0.9800 .
C10 H10B 0.9800 .
C10 H10C 0.9800 .
loop_
_geom_torsion_atom_site_label_1
_geom_torsion_atom_site_label_2
_geom_torsion_atom_site_label_3
_geom_torsion_atom_site_label_4
_geom_torsion
_geom_torsion_site_symmetry_1
_geom_torsion_site_symmetry_4
Br C1 C2 C3 179.2(4) . .
Br C1 C6 C5 -179.3(4) . .
C1 C2 C3 C4 0.5(7) . .
C2 C1 C6 C5 2.1(8) . .
C2 C3 C4 C5 1.0(7) . .
C2 C3 C4 C7 179.4(5) . .
C3 C4 C5 C6 -1.0(8) . .
C3 C4 C5 C8 179.0(5) . 3_634
C3 C4 C7 C7 -179.8(6) . 3_634
C3 C4 C7 C8 3.1(12) . .
C4 C5 C6 C1 -0.5(7) . .
C4 C7 C8 C5 178.7(7) . 3_634
C4 C7 C8 C9 -4.6(11) . .
C5 C4 C7 C7 -1.2(7) . 3_634
C5 C4 C7 C8 -178.4(7) . .
C5 C8 C9 C10 82.2(6) 3_634 .
C6 C1 C2 C3 -2.2(8) . .
C7 C4 C5 C6 -179.8(5) . .
C7 C4 C5 C8 0.3(6) . 3_634
C7 C7 C8 C5 1.7(7) 3_634 3_634
C7 C7 C8 C9 178.4(5) 3_634 .
C7 C8 C9 C10 -94.0(7) . .
C8 C5 C6 C1 179.4(5) 3_634 .
