#------------------------------------------------------------------------------
#$Date: 2019-11-24 01:10:05 +0200 (Sun, 24 Nov 2019) $
#$Revision: 235920 $
#$URL: file:///home/coder/svn-repositories/cod/cif/1/55/37/1553702.cif $
#------------------------------------------------------------------------------
#
# This file is available in the Crystallography Open Database (COD),
# http://www.crystallography.net/
#
# All data on this site have been placed in the public domain by the
# contributors.
#
data_1553702
loop_
_publ_author_name
'Mori, Hiroki'
'Nishino, Kenta'
'Wada, Keisuke'
'Morisaki, Yasuhiro'
'Tanaka, Kazuo'
'Chujo, Yoshiki'
_publ_section_title
;
 Modulation of luminescence chromic behaviors and environment-responsive
 intensity changes by substituents in bis-o-carborane-substituted
 conjugated molecules
;
_journal_issue                   3
_journal_name_full               'Materials Chemistry Frontiers'
_journal_page_first              573
_journal_paper_doi               10.1039/C7QM00486A
_journal_volume                  2
_journal_year                    2018
_chemical_formula_sum            'C26 H34 B20'
_chemical_formula_weight         562.73
_space_group_crystal_system      triclinic
_space_group_IT_number           2
_space_group_name_Hall           '-P 1'
_space_group_name_H-M_alt        'P -1'
_atom_sites_solution_hydrogens   mixed
_audit_creation_method           SHELXL-2014/7
_audit_update_record
;
2017-10-23 deposited with the CCDC.
2018-01-10 downloaded from the CCDC.
;
_cell_angle_alpha                77.421(5)
_cell_angle_beta                 88.462(6)
_cell_angle_gamma                76.313(5)
_cell_formula_units_Z            1
_cell_length_a                   7.1876(12)
_cell_length_b                   10.559(2)
_cell_length_c                   10.841(2)
_cell_measurement_reflns_used    3008
_cell_measurement_temperature    296(2)
_cell_measurement_theta_max      27.49
_cell_measurement_theta_min      3.09
_cell_volume                     779.9(2)
_computing_structure_refinement  'SHELXL-2014/7 (Sheldrick, 2014)'
_diffrn_ambient_temperature      296(2)
_diffrn_measured_fraction_theta_full 0.995
_diffrn_measured_fraction_theta_max 0.995
_diffrn_measurement_device_type  'Rigaku R-AXIS RAPID-F'
_diffrn_radiation_type           MoK\a
_diffrn_radiation_wavelength     0.71075
_diffrn_reflns_av_R_equivalents  0.1582
_diffrn_reflns_av_unetI/netI     0.2187
_diffrn_reflns_Laue_measured_fraction_full 0.995
_diffrn_reflns_Laue_measured_fraction_max 0.995
_diffrn_reflns_limit_h_max       9
_diffrn_reflns_limit_h_min       -8
_diffrn_reflns_limit_k_max       13
_diffrn_reflns_limit_k_min       -13
_diffrn_reflns_limit_l_max       13
_diffrn_reflns_limit_l_min       -14
_diffrn_reflns_number            7361
_diffrn_reflns_point_group_measured_fraction_full 0.995
_diffrn_reflns_point_group_measured_fraction_max 0.995
_diffrn_reflns_theta_full        25.242
_diffrn_reflns_theta_max         27.476
_diffrn_reflns_theta_min         3.091
_exptl_absorpt_coefficient_mu    0.058
_exptl_crystal_density_diffrn    1.198
_exptl_crystal_description       block
_exptl_crystal_F_000             290
_exptl_crystal_size_max          0.600
_exptl_crystal_size_mid          0.200
_exptl_crystal_size_min          0.100
_refine_diff_density_max         0.296
_refine_diff_density_min         -0.308
_refine_diff_density_rms         0.076
_refine_ls_extinction_method     none
_refine_ls_goodness_of_fit_ref   1.005
_refine_ls_hydrogen_treatment    mixed
_refine_ls_matrix_type           full
_refine_ls_number_parameters     252
_refine_ls_number_reflns         3566
_refine_ls_number_restraints     0
_refine_ls_restrained_S_all      1.005
_refine_ls_R_factor_all          0.2093
_refine_ls_R_factor_gt           0.1011
_refine_ls_shift/su_max          0.002
_refine_ls_shift/su_mean         0.000
_refine_ls_structure_factor_coef Fsqd
_refine_ls_weighting_details
'w=1/[\s^2^(Fo^2^)+(0.1219P)^2^] where P=(Fo^2^+2Fc^2^)/3'
_refine_ls_weighting_scheme      calc
_refine_ls_wR_factor_gt          0.2201
_refine_ls_wR_factor_ref         0.2833
_reflns_Friedel_coverage         0.000
_reflns_number_gt                1677
_reflns_number_total             3566
_reflns_threshold_expression     'I > 2\s(I)'
_cod_data_source_file            c7qm00486a2.cif
_cod_data_source_block           ydkr
_cod_original_cell_volume        780.0(2)
_cod_database_code               1553702
_shelx_shelxl_version_number     2014/7
_shelx_space_group_comment
;
The symmetry employed for this shelxl refinement is uniquely defined
by the following loop, which should always be used as a source of
symmetry information in preference to the above space-group names.
They are only intended as comments.
;
_shelx_estimated_absorpt_t_min   0.966
_shelx_estimated_absorpt_t_max   0.994
_shelx_res_file
;

    ydkr.res created by SHELXL-2014/7

TITL ydkr_a.res in P-1
REM  Yadorkari-X generated
CELL 0.71075 7.1876 10.5594 10.8411 77.4210 88.4620 76.3130
ZERR 1.0 0.0012 0.0021 0.0020 0.0050 0.0060 0.0050
LATT 1
REM  SPGR P-1 triclinic
SFAC C H B
UNIT 26 34 20
SIZE 0.60 0.20 0.10
TEMP 23.0
L.S. 10
FMAP 2
PLAN -20
ACTA
CONF
LIST 4
BOND $H

WGHT    0.121900
FVAR       2.00138
C001  1    0.110506    0.420502    0.422756    11.00000    0.02242    0.01991 =
         0.02540   -0.00776   -0.00189   -0.00587
C002  1    0.183222    0.423357    0.540644    11.00000    0.01526    0.02052 =
         0.02504   -0.00561    0.00446   -0.00421
C003  1    0.701979    0.242723    0.714170    11.00000    0.01720    0.02567 =
         0.02386   -0.00405   -0.00353   -0.00717
C004  1    0.368616    0.352322    0.594338    11.00000    0.02288    0.02521 =
         0.02443   -0.00644   -0.00176   -0.00082
C005  1    0.518612    0.301325    0.648621    11.00000    0.02303    0.02091 =
         0.02615   -0.00682    0.00167   -0.00357
C006  1   -0.069957    0.498220    0.385304    11.00000    0.02265    0.02817 =
         0.02339   -0.00528   -0.00446   -0.00553
AFIX  43
H1    2   -0.118219    0.498130    0.306591    11.00000   -1.20000
AFIX   0
C007  1    0.713962    0.230467    0.843346    11.00000    0.02157    0.03305 =
         0.02827   -0.00807   -0.00167   -0.00774
AFIX  43
H2    2    0.604349    0.257405    0.887600    11.00000   -1.20000
AFIX   0
C008  1    0.866422    0.200355    0.647860    11.00000    0.02572    0.02943 =
         0.02344   -0.00117    0.00086   -0.00714
AFIX  43
H3    2    0.859224    0.207650    0.560978    11.00000   -1.20000
AFIX   0
C009  1    1.038627    0.147845    0.712804    11.00000    0.01741    0.03426 =
         0.04224   -0.01024    0.00240   -0.00216
AFIX  43
H4    2    1.148734    0.119365    0.669606    11.00000   -1.20000
AFIX   0
C00A  1    0.889964    0.177832    0.907322    11.00000    0.03441    0.03045 =
         0.02730   -0.00570   -0.00748   -0.00566
AFIX  43
H5    2    0.898226    0.170682    0.994135    11.00000   -1.20000
AFIX   0
C00B  1    0.219659    0.340886    0.331067    11.00000    0.02159    0.02220 =
         0.02351   -0.00315   -0.00696   -0.00230
C10   1    0.400376    0.213612    0.382277    11.00000    0.02251    0.02252 =
         0.03397   -0.00816   -0.00613    0.00179
H11   2    0.419620    0.185598    0.480632    11.00000    0.04131
C00D  1    1.049437    0.136962    0.843060    11.00000    0.02550    0.02924 =
         0.04044   -0.00545   -0.00962   -0.00315
AFIX  43
H6    2    1.166744    0.101454    0.886144    11.00000   -1.20000
AFIX   0
B00E  3    0.418393    0.087608    0.304227    11.00000    0.02745    0.02260 =
         0.03103   -0.00987   -0.01054    0.00262
H0    2    0.457650   -0.016884    0.361521    11.00000    0.01026
B00F  3    0.258290    0.416826    0.180053    11.00000    0.03003    0.02347 =
         0.02137   -0.00393   -0.00382   -0.00963
H7    2    0.198288    0.530731    0.152885    11.00000    0.04207
B00G  3    0.467300    0.157687    0.148697    11.00000    0.02547    0.02313 =
         0.02787   -0.00797    0.00159    0.00026
H8    2    0.555549    0.097746    0.092444    11.00000    0.04719
B00H  3    0.190976    0.178026    0.343854    11.00000    0.02374    0.02527 =
         0.02973   -0.00801   -0.00092   -0.00539
H14   2    0.109855    0.147071    0.411687    11.00000    0.03595
B00I  3    0.446896    0.357497    0.293840    11.00000    0.02102    0.02979 =
         0.02657   -0.00980   -0.00037   -0.00735
H12   2    0.499835    0.406377    0.352513    11.00000    0.04970
B00J  3    0.486106    0.324742    0.141374    11.00000    0.02569    0.03543 =
         0.02950   -0.01134    0.00421   -0.00681
H16   2    0.571926    0.369444    0.086400    11.00000    0.03301
B00K  3    0.575014    0.196158    0.276713    11.00000    0.02356    0.02738 =
         0.02922   -0.00792   -0.00485   -0.00245
H15   2    0.710553    0.147927    0.324549    11.00000    0.03116
B00L  3    0.102240    0.305972    0.209305    11.00000    0.03073    0.02335 =
         0.02850   -0.00676   -0.00484   -0.00552
H10   2   -0.054837    0.346249    0.198182    11.00000    0.06682
B00M  3    0.268946    0.295186    0.088624    11.00000    0.02493    0.02565 =
         0.03323   -0.00844   -0.00555    0.00039
H13   2    0.225723    0.343445   -0.029181    11.00000    0.04705
B00N  3    0.230188    0.147403    0.190036    11.00000    0.02786    0.03050 =
         0.02189   -0.00913    0.00385   -0.00446
H9    2    0.161974    0.077664    0.159456    11.00000    0.02786

HKLF 4

REM  ydkr_a.res in P-1
REM R1 =  0.1011 for    1677 Fo > 4sig(Fo)  and  0.2093 for all    3566 data
REM    252 parameters refined using      0 restraints

END

WGHT      0.1219      0.0000

REM Highest difference peak  0.296,  deepest hole -0.308,  1-sigma level  0.076
Q1    1   0.1646  0.2759  0.3122  11.00000  0.05    0.30
Q2    1   0.5860  0.2195  1.0024  11.00000  0.05    0.29
Q3    1   0.8072  0.3379  0.8666  11.00000  0.05    0.29
Q4    1   0.4458  0.1672  0.2688  11.00000  0.05    0.28
Q5    1   0.0636  0.2661  0.4288  11.00000  0.05    0.28
Q6    1   0.9899  0.2530  0.6857  11.00000  0.05    0.28
Q7    1   0.1885  0.3398  0.5489  11.00000  0.05    0.27
Q8    1   0.3428  0.1388  0.3648  11.00000  0.05    0.27
Q9    1   0.5146  0.4836  0.3152  11.00000  0.05    0.27
Q10   1   0.3502  0.1846  0.1968  11.00000  0.05    0.27
Q11   1   0.4908  0.2401  0.1454  11.00000  0.05    0.27
Q12   1   0.4735  0.4081  0.6362  11.00000  0.05    0.26
Q13   1   0.4955  0.2419  0.3184  11.00000  0.05    0.25
Q14   1   0.2130  0.1411  0.0142  11.00000  0.05    0.25
Q15   1   0.2248  0.2144  0.0788  11.00000  0.05    0.25
Q16   1   0.0461  0.9158  0.7841  11.00000  0.05    0.25
Q17   1   0.2303  0.4397  0.2772  11.00000  0.05    0.25
Q18   1   0.4384  0.2363  0.4609  11.00000  0.05    0.24
Q19   1   0.4078  0.2293  0.6287  11.00000  0.05    0.24
Q20   1   0.2186  0.3244  0.1646  11.00000  0.05    0.24
;
_shelx_res_checksum              14323
_shelx_hkl_file
;
   0   0   210915.37  410.26
   0   0  -211094.57  416.71
   0   0   3  705.85   23.96
   0   0  -3  875.00   36.60
   0   0   410277.73  490.77
   0   0  -4 9826.85  458.98
   0   0  -410300.67  525.72
   0   0   5  136.49   16.18
   0   0  -5  178.22   16.65
   0   0  -5  104.42   38.88
   0   0   6  964.66   45.04
   0   0  -6  929.79   51.05
   0   0  -6 1205.29   74.57
   0   0   7  471.64   34.17
   0   0  -7  395.06   50.36
   0   0  -7  544.50   62.59
   0   0  -7  579.18   87.61
   0   0  -8  339.90   96.12
   0   0  -8  281.36   60.92
   0   0  -9  136.20   66.07
   0   0  -9  242.62   63.60
   0   0 -10  165.57  108.80
   0   0 -10  103.06   57.96
   0   0 -11  289.67   76.52
   0   0 -11  219.87   78.71
   0   0 -12   40.77  109.34
   0   0 -12   74.70   67.43
   0   0 -13  -38.12   85.03
   0   0 -13  -63.34   75.62
   0   1 -13   30.71   78.02
   0   1 -13  147.60  134.19
   0   1 -12 -102.57   67.40
   0   1 -12  -31.65   74.82
   0   1 -11  137.36   65.26
   0   1 -11   84.05   78.40
   0   1 -10  -39.72   45.63
   0   1 -10   24.78   53.52
   0   1  -9  220.27   88.19
   0   1  -9  280.96   62.05
   0  -1   9  197.66   55.65
   0   1  -8   13.31   27.40
   0   1  -8   29.72   31.08
   0  -1   8   34.73   31.62
   0   1  -7  -23.40   21.49
   0   1  -7   27.64   25.31
   0  -1   7   18.12   17.70
   0   1  -6  588.82   43.36
   0  -1   6  711.98   33.66
   0   1  -5  891.58   47.16
   0  -1   5  929.56   49.04
   0   1  -4   28.86   14.41
   0  -1   4    6.91   10.87
   0   1  -3  255.55   28.95
   0  -1   3  319.60   27.62
   0  -1   2  873.51   55.76
   0   1  -1 8689.96  328.90
   0  -1   1 8233.37  284.46
   0   1   2 2508.86   69.91
   0  -1  -2 2449.77   69.74
   0   1   3  542.65   42.92
   0  -1  -3  623.20   27.08
   0   1   4  268.94   21.17
   0  -1  -4  374.60   25.09
   0  -1  -5  937.80   46.29
   0  -1  -5  974.23   52.83
   0  -1  -6   27.22   15.76
   0  -1  -6   14.28   23.03
   0  -1  -7   35.77   19.72
   0  -1  -7   -6.31   27.47
   0  -1  -8   75.27   33.42
   0  -1  -8   99.61   57.42
   0  -1  -9   43.34   27.22
   0  -1  -9  226.07   44.29
   0  -1 -10   94.16   33.58
   0  -1 -10   91.04   59.01
   0  -1 -10  146.76   52.63
   0  -1 -11   41.82   91.14
   0  -1 -11  -50.22   79.09
   0  -1 -12   40.59   82.45
   0  -1 -12   79.43   66.36
   0  -1 -13   45.97   70.47
   0  -1 -13   11.55   70.46
   0   2 -13   -9.36   66.20
   0   2 -13   66.07   85.97
   0   2 -12  -41.40   56.76
   0   2 -12   10.74   82.96
   0   2 -11   73.99   70.27
   0   2 -11   47.89   59.78
   0  -2  11  -22.27   27.85
   0   2 -10  105.83   45.98
   0   2 -10  -58.59   90.16
   0  -2  10   43.85   31.65
   0   2  -9  127.03   43.45
   0   2  -9  188.40   45.53
   0  -2   9   77.37   28.75
   0   2  -8   26.82   31.78
   0  -2   8   40.36   32.56
   0   2  -7   47.98   26.01
   0  -2   7  -12.03   17.43
   0   2  -6   31.30   22.14
   0  -2   6  -12.50   14.79
   0   2  -5  886.42   53.49
   0  -2   5  875.20   39.50
   0   2  -4   14.49   18.03
   0  -2   4   33.91   11.99
   0  -2   4  100.83   24.48
   0   2  -3   95.89   18.33
   0  -2   3  174.96   18.66
   0   2  -2   -1.68   12.43
   0   2  -1 4709.63  173.28
   0  -2   1 4728.39  159.54
   0   2   019888.58 1248.42
   0  -2   020677.05 1274.83
   0   2   1  294.72   19.15
   0  -2  -1  286.45   17.47
   0   2   211817.29  600.77
   0  -2  -212114.03  579.18
   0   2   3  949.02   43.07
   0  -2  -3  957.04   38.65
   0   2   4 2157.05   96.58
   0  -2  -4 2404.82  111.23
   0   2   5  188.72   40.27
   0  -2  -5  180.14   24.64
   0   2   6  595.74   43.95
   0  -2  -6  847.54   48.80
   0  -2  -7   58.28   27.43
   0  -2  -8   36.04   44.47
   0  -2  -8   47.79   32.07
   0  -2  -9  144.18   43.81
   0  -2  -9  224.27   47.70
   0  -2 -10   52.30   47.53
   0  -2 -10   88.94   48.00
   0  -2 -11  114.46   40.28
   0  -2 -11  176.94   66.99
   0  -2 -12    0.17   38.21
   0  -2 -12   65.69   66.94
   0  -2 -12   42.03   62.97
   0  -2 -13  -34.30  123.27
   0  -2 -13    4.13   69.09
   0  -2 -14    1.54   70.76
   0   3 -12   58.74   61.17
   0   3 -12   65.73   91.56
   0   3 -11  340.10   80.68
   0   3 -11  544.53  150.79
   0   3 -10   60.10   46.65
   0   3 -10   73.66   53.40
   0  -3  10   40.87   45.51
   0   3  -9   65.16   56.18
   0  -3   9    7.08   24.03
   0   3  -8  -36.26   49.35
   0  -3   8   32.66   21.33
   0   3  -7    9.80   43.51
   0  -3   7   31.91   33.62
   0   3  -6  135.38   30.91
   0  -3   6  142.87   23.30
   0   3  -5  274.59   33.37
   0  -3   5  491.97   73.52
   0   3  -4  463.93   40.05
   0  -3   4  620.19   40.54
   0   3  -3  -13.81   17.52
   0  -3   3   13.55   17.88
   0   3  -2   75.70   29.62
   0   3  -1 1816.18   76.26
   0  -3   1 1984.63   70.04
   0   3   0 4333.62  225.78
   0  -3   0 4227.65  164.90
   0   3   1 1878.25   80.37
   0  -3  -1 1952.96   72.93
   0   3   2  314.03   26.13
   0  -3  -2  458.34   26.59
   0   3   3  301.58   29.18
   0  -3  -3  524.67   28.86
   0   3   4   17.17   17.97
   0  -3  -4    2.29   17.52
   0   3   5  495.54   42.04
   0  -3  -5  631.44   39.86
   0   3   6  -51.42   27.12
   0  -3  -6  -29.53   33.13
   0   3   7  583.40   62.44
   0  -3  -7  741.45   53.39
   0   3   8  362.93   48.41
   0  -3  -8  430.28   48.57
   0  -3  -9  962.82  117.80
   0  -3  -9 1142.90   94.83
   0  -3 -10  -73.67   43.01
   0  -3 -10   25.56   40.46
   0  -3 -11   69.25   61.85
   0  -3 -11  255.95   60.95
   0  -3 -12   -8.83   54.88
   0  -3 -12  -28.77   54.21
   0  -3 -13  -11.61   53.74
   0  -3 -13   51.18   62.24
   0  -3 -14  -29.85   98.21
   0  -3 -14  228.36  130.15
   0   4 -12  177.20   79.79
   0   4 -12  338.41  208.02
   0   4 -11  101.18   55.75
   0   4 -11  150.31   74.57
   0  -4  11   23.89   29.01
   0   4 -10   36.43   45.66
   0  -4  10    4.41   26.97
   0   4  -9   14.15   43.88
   0  -4   9   93.58   42.71
   0   4  -8   30.84   37.43
   0  -4   8   70.77   44.26
   0   4  -7   54.95   33.60
   0  -4   7   50.34   25.77
   0   4  -6  913.66  115.23
   0  -4   6 1000.21   82.52
   0   4  -5  114.96   30.34
   0  -4   5   33.65   29.50
   0   4  -4  274.16   35.33
   0  -4   4  345.47   41.85
   0   4  -3  105.17   28.28
   0  -4   3  129.38   24.28
   0   4  -2 2241.85  114.64
   0  -4   2 2485.26  107.33
   0   4  -1   50.35   21.03
   0  -4   1   89.76   19.08
   0   4   0 1720.59   88.58
   0  -4   0 1882.11  108.70
   0   4   1  391.80   35.10
   0  -4  -1  566.90   37.00
   0   4   2 1032.89   58.97
   0  -4  -2 1215.45   54.89
   0   4   3  584.76   43.87
   0  -4  -3  694.29   41.18
   0   4   4  770.23   52.30
   0  -4  -4  893.97   49.71
   0   4   5   19.28   22.41
   0  -4  -5  -14.19   19.36
   0   4   6  362.56   44.58
   0  -4  -6  420.82   41.00
   0   4   7  845.21  125.89
   0  -4  -7  835.76   68.22
   0   4   8 1741.89  160.20
   0  -4  -8 2172.60  138.92
   0   4   9  -77.90   37.16
   0  -4  -9   14.18   37.39
   0  -4 -10   38.70   43.97
   0  -4 -11   10.51  103.62
   0  -4 -11   39.76   51.19
   0  -4 -12  -72.30   73.25
   0  -4 -12   -5.68   59.68
   0  -4 -13   48.60   79.07
   0  -4 -13  169.81   80.17
   0  -4 -14   65.98   53.60
   0  -4 -14  154.90  137.40
   0   5 -11   73.35   63.68
   0   5 -10   72.26   50.95
   0  -5  10    5.59   31.97
   0   5  -9  267.21   61.28
   0  -5   9  154.78   43.01
   0   5  -8   56.58   41.41
   0  -5   8   -8.29   45.05
   0   5  -7  117.08   69.84
   0  -5   7  153.11   79.16
   0  -5   7  219.96   72.22
   0   5  -6  104.37   39.29
   0  -5   6  127.46   54.64
   0   5  -5  164.55   63.98
   0  -5   5  255.52   63.82
   0   5  -4   29.95   32.90
   0  -5   4  103.48   31.29
   0   5  -3  294.94   40.99
   0  -5   3  292.53   55.80
   0   5  -2   27.34   24.94
   0  -5   2   40.55   23.09
   0   5  -1 1810.84  109.86
   0  -5   1 1830.53   93.54
   0   5   0  236.83   36.17
   0  -5   0  381.64   33.21
   0   5   1   46.91   21.50
   0  -5  -1  -46.38   19.85
   0   5   2  556.55   52.00
   0  -5  -2  624.33   43.80
   0   5   3  572.45   50.60
   0  -5  -3  761.54   50.25
   0   5   4   83.87   30.02
   0  -5  -4  115.01   26.33
   0   5   5  139.60   48.46
   0  -5  -5  130.00   34.11
   0   5   6  407.02   53.59
   0  -5  -6  433.57   45.38
   0   5   7 1270.21  111.73
   0  -5  -7 1360.47   95.20
   0   5   8  148.85   78.18
   0  -5  -8   85.31   37.83
   0   5   9   75.86   49.84
   0  -5  -9    6.50   66.33
   0   5  10   45.68   47.79
   0  -5 -10   65.95   49.00
   0  -5 -11  113.52   62.53
   0  -5 -12   25.45   89.95
   0  -5 -12   50.78   64.20
   0  -5 -13  248.64  211.36
   0  -5 -13  383.18  108.99
   0   6 -10  112.60   89.32
   0  -6  10   51.17   33.11
   0   6  -9  219.71   83.26
   0  -6   9    8.05   47.07
   0   6  -8  418.30  133.44
   0  -6   8  523.33  129.80
   0   6  -7  172.10   59.15
   0  -6   7  107.62   64.62
   0  -6   7  388.04  124.81
   0   6  -6    9.64   43.62
   0  -6   6   78.99   43.00
   0   6  -5   70.26   38.77
   0  -6   5  -33.83   41.17
   0   6  -4   62.89   45.07
   0  -6   4  243.42   43.64
   0   6  -3   19.68   33.47
   0  -6   3   54.40   30.01
   0   6  -2 1353.93  107.79
   0  -6   2 1418.67   93.08
   0   6  -1   48.44   56.06
   0  -6   1  110.79   28.72
   0   6   0 1195.08   86.85
   0  -6   0 1406.14   80.38
   0   6   1  -27.27   26.95
   0  -6  -1  -33.48   37.46
   0   6   2  -18.39   28.70
   0  -6  -2   37.39   25.73
   0   6   3 1151.10  127.81
   0  -6  -3 1435.84  122.96
   0   6   4 1884.17  140.86
   0  -6  -4 2300.20  130.12
   0   6   5   34.41   47.17
   0  -6  -5   15.48   27.95
   0   6   6  262.12   58.02
   0  -6  -6  434.11   54.22
   0   6   7  300.08   63.40
   0  -6  -7  471.10   58.75
   0   6   8   36.69   64.74
   0  -6  -8  -15.46   45.45
   0  -6  -8   17.31   33.87
   0   6   9   55.42   64.33
   0  -6  -9  141.84   66.68
   0  -6  -9  119.88   45.98
   0   6  10   23.96   62.90
   0  -6 -10  -38.19   66.72
   0  -6 -10  112.22   48.56
   0   6  11  113.92   59.54
   0  -6 -11   -3.37   89.56
   0  -6 -11   30.90   54.71
   0  -6 -12   72.38   63.54
   0  -6 -13  100.39  116.28
   0  -6 -13   47.80   72.34
   0   7 -10  119.03  122.40
   0   7  -9   49.23   99.78
   0  -7   9   87.41   70.34
   0   7  -8   84.78   61.77
   0  -7   8   85.72   69.25
   0  -7   8  158.56   96.70
   0   7  -7   76.23   52.43
   0  -7   7  -21.82   74.39
   0   7  -6   -2.04   45.69
   0  -7   6  -24.59   45.77
   0   7  -5   79.38   46.38
   0  -7   5  -23.54   50.39
   0   7  -4  -67.36   44.12
   0  -7   4   -3.41   63.28
   0   7  -3 1908.61  188.45
   0  -7   3 2324.26  161.71
   0   7  -2  233.21   53.77
   0  -7   2  157.92   44.64
   0   7  -1  959.86  101.27
   0  -7   1 1275.36   88.39
   0   7   0   11.43   30.19
   0  -7   0  -32.40   29.59
   0   7   1  -11.30   46.60
   0  -7  -1    6.89   26.30
   0   7   2   88.27   36.95
   0  -7  -2    1.16   29.60
   0   7   3  494.30   68.58
   0  -7  -3  785.67   95.14
   0   7   4  236.67   52.20
   0  -7  -4  253.05   44.65
   0   7   5  169.96   50.11
   0  -7  -5  218.77   45.41
   0   7   6   89.23   47.54
   0  -7  -6  276.41   68.29
   0   7   7  168.85   80.86
   0  -7  -7  137.87   46.19
   0   7   8  442.81   86.66
   0  -7  -8  601.97   81.46
   0   7   9   23.37   53.76
   0  -7  -9   66.60   59.92
   0  -7  -9  -16.66   47.48
   0   7  10  100.44   78.01
   0  -7 -10   16.30   88.01
   0  -7 -10  189.19   85.41
   0   7  11  183.71   95.87
   0  -7 -11  140.19  114.83
   0  -7 -11  273.81   72.25
   0   7  12   57.67   80.26
   0  -7 -12  291.93  128.92
   0  -7 -12  117.50   72.10
   0  -7 -13   29.62  115.09
   0  -7 -13    7.40   65.56
   0   8  -9  170.74  117.96
   0  -8   9   70.28   59.25
   0   8  -8  -25.24   62.55
   0  -8   8   18.38   72.38
   0  -8   8  139.97   94.23
   0   8  -7  120.79   79.03
   0  -8   7  344.76  109.74
   0   8  -6   26.87   59.45
   0  -8   6   82.98   57.18
   0   8  -5   33.88   62.03
   0  -8   5  149.66   97.85
   0   8  -4  195.94   74.86
   0  -8   4  294.42   67.55
   0   8  -3  223.36   62.43
   0  -8   3   34.22   47.71
   0   8  -2   67.43   59.20
   0  -8   2  213.25   49.83
   0   8  -1  -75.39   43.26
   0  -8   1   37.09   56.84
   0   8   0  290.91   66.82
   0  -8   0  472.24   61.44
   0   8   1   27.68   40.95
   0  -8  -1   77.55   35.86
   0   8   2  587.41   86.91
   0  -8  -2  711.48   69.26
   0   8   3  147.08   50.38
   0  -8  -3  288.50   77.89
   0   8   4  866.54  109.90
   0  -8  -4 1244.51  105.14
   0   8   5   51.83   74.23
   0  -8  -5   56.90   61.04
   0   8   6  273.75   64.98
   0  -8  -6  249.96   56.93
   0   8   7  326.17   91.35
   0  -8  -7  517.32   75.84
   0   8   8   -8.16   54.35
   0  -8  -8   54.14   44.87
   0   8   9  320.52   82.62
   0  -8  -9  149.84  102.23
   0  -8  -9  247.64   69.20
   0   8  10  -27.38   68.40
   0  -8 -10  100.54  133.35
   0  -8 -10   77.49   53.74
   0   8  11  -69.03   79.82
   0  -8 -11    6.71  149.44
   0  -8 -11   56.71   60.12
   0   8  12  324.90  117.84
   0  -8 -12  304.86  236.29
   0  -8 -12  161.23   98.79
   0   9  -8  311.02  102.87
   0  -9   8  114.02  119.73
   0   9  -7  216.94  103.26
   0  -9   7  384.56  135.92
   0   9  -6   92.00   79.92
   0  -9   6  151.37  115.08
   0   9  -5   14.70   78.26
   0  -9   5  154.41  107.77
   0   9  -4  122.55   72.55
   0  -9   4    6.05   56.30
   0   9  -3  -70.40   60.46
   0  -9   3  -16.81   49.35
   0   9  -2   80.53   95.92
   0  -9   2   79.77   50.70
   0   9  -1  554.04  107.37
   0  -9   1  887.54   98.56
   0   9   0   59.20   54.00
   0  -9   0   88.85   66.61
   0   9   1  200.49   58.83
   0  -9  -1  116.49   77.83
   0   9   2  124.96   51.54
   0  -9  -2   -0.71   39.66
   0   9   3   45.94   47.56
   0  -9  -3   45.04   42.87
   0   9   4    4.27   49.75
   0  -9  -4   56.50   46.52
   0   9   5   76.34   63.20
   0  -9  -5  143.18   52.83
   0   9   6  -73.73   86.43
   0  -9  -6  -36.31   46.47
   0   9   7  100.18  104.53
   0  -9  -7   61.85   49.64
   0   9   8  455.77  116.62
   0  -9  -8  747.09  102.17
   0   9   9  120.87   84.48
   0  -9  -9  251.18   71.15
   0   9  10  122.69   80.90
   0  -9 -10   90.02  109.80
   0  -9 -10   73.55  104.17
   0   9  11   72.30  151.36
   0  -9 -11   67.19  118.77
   0  -9 -11   67.64   68.19
   0   9  12 -113.42  147.31
   0  -9 -12   66.21  118.88
   0  -9 -12   49.47   70.90
   0  10  -6    3.17   96.00
   0 -10   6  189.93  123.80
   0  10  -5   80.42  129.38
   0 -10   5 -173.51  123.06
   0  10  -4  175.79   99.75
   0 -10   4  210.56  126.79
   0  10  -3  238.46  171.91
   0 -10   3  432.74   90.27
   0  10  -2  123.74   76.44
   0 -10   2  140.00   63.43
   0  10  -1  -54.17   68.39
   0 -10   1  167.02   56.75
   0  10   0   72.21   91.57
   0 -10   0   28.66   45.27
   0  10   1  -36.93   60.81
   0 -10  -1  -99.87   52.14
   0  10   2   46.35   59.30
   0 -10  -2   16.97   44.84
   0  10   3  -18.47   53.90
   0 -10  -3   65.29   44.72
   0  10   4   96.50   55.68
   0 -10  -4  -15.42   49.07
   0  10   5   61.45   59.41
   0 -10  -5  -16.57   51.29
   0  10   6  353.96  100.39
   0 -10  -6  414.95  137.82
   0  10   7  132.18   76.56
   0 -10  -7  192.69   68.04
   0  10   8  144.97   84.55
   0 -10  -8   94.20   63.79
   0  10   9  194.62  103.67
   0 -10  -9  302.05   80.37
   0  10  10  102.62   84.38
   0 -10 -10  -17.76  117.99
   0 -10 -10   64.04  107.20
   0  10  11  107.09  109.81
   0 -10 -11  143.86  250.86
   0 -10 -11  217.18   87.97
   0  11  -5  123.66  106.67
   0 -11   5  170.09  169.19
   0  11  -4   13.44   89.00
   0 -11   4  177.07  130.21
   0  11  -3   32.34  106.72
   0 -11   3  563.74  142.48
   0  11  -2   43.24   82.02
   0 -11   2   67.70  101.07
   0  11  -1   29.29   70.25
   0 -11   1   -9.86   88.40
   0  11   0  235.55   96.48
   0 -11   0  288.06  115.00
   0  11   1   23.31   71.98
   0 -11  -1   46.13   86.11
   0  11   2   43.06   58.57
   0 -11  -2  -52.72   79.52
   0  11   3  293.95  170.64
   0 -11  -3  543.39   90.33
   0  11   4  112.58   73.38
   0 -11  -4   69.87   59.23
   0  11   5 1212.51  231.59
   0 -11  -5 1803.16  188.88
   0  11   6  -38.59   68.97
   0 -11  -6   60.53   59.97
   0  11   7  127.44   74.60
   0 -11  -7    7.77   67.41
   0  11   8  109.61   90.18
   0 -11  -8   45.72   67.84
   0  11   9  265.58  109.65
   0 -11  -9  188.12   89.26
   0  11  10  228.74  131.59
   0 -11 -10  429.45  193.13
   0 -11 -10  366.98  102.16
   0  12  -3  175.59  114.80
   0 -12   3  119.17   91.87
   0  12  -2    4.07   99.76
   0 -12   2  141.36   76.32
   0  12  -1  -54.17   82.67
   0 -12   1  -18.98   65.15
   0  12   0  175.19  162.18
   0 -12   0  199.02   82.59
   0  12   1  150.21  102.81
   0 -12  -1  136.50   69.91
   0  12   2   44.05   71.40
   0 -12  -2   -3.30   60.56
   0  12   3  -65.62   73.57
   0 -12  -3  107.75   58.84
   0  12   4  283.89  167.76
   0 -12  -4  314.61  134.91
   0  12   5  -58.39   89.46
   0 -12  -5 -103.15   65.74
   0  12   6  202.92  118.48
   0 -12  -6  375.32   97.71
   0  12   7   16.64   84.40
   0 -12  -7  108.37  108.16
   0  12   8  285.88  155.75
   0 -12  -8  501.86  120.71
   0 -13   0    0.62   67.80
   0  13   1  -79.85   80.55
   0 -13  -1  130.88  100.08
   0  13   2  147.33   82.08
   0 -13  -2  -66.44   62.62
   0  13   3   14.31   83.24
   0 -13  -3   26.96   69.88
   0  13   4  -73.17   82.15
   0 -13  -4   40.94   62.88
   0  13   5   -2.04  155.78
   0 -13  -5  137.15  117.42
   1 -12  -7   36.84   67.04
  -1  12   7  -67.31   87.33
   1 -12  -6  143.41   78.83
  -1  12   6  114.77   92.34
   1 -12  -5 -200.44  124.37
  -1  12   5  -93.48   95.64
   1 -12  -4   64.46   67.76
  -1  12   4   64.51   87.91
   1 -12  -3  155.00   73.84
  -1  12   3   34.87   97.35
   1 -12  -2 -103.47   66.08
  -1  12   2  271.82   83.83
   1 -12  -1   41.30   69.51
  -1  12   1  149.74   91.58
   1 -12   0  -30.92  102.87
  -1  12   0   -1.58   86.18
   1 -12   1  723.03  222.77
  -1  12  -1  644.55  209.62
   1 -12   2  107.74  122.44
  -1  12  -2  -55.32  167.41
   1 -11  -9   29.72   62.71
  -1  11   9   59.56  136.22
   1 -11  -8  154.32   72.32
  -1  11   8   63.71   92.26
   1 -11  -7  357.58   92.72
  -1  11   7  254.48  127.18
   1 -11  -6   63.17   59.67
  -1  11   6  -68.09   65.39
   1 -11  -5   66.36   63.18
  -1  11   5  100.90   79.20
   1 -11  -4    1.97   55.88
  -1  11   4   33.29   69.68
   1 -11  -3  -29.47   54.29
  -1  11   3  -40.60  105.79
   1 -11  -2   21.67   56.47
  -1  11   2   63.91   69.75
   1 -11  -1  211.79   78.35
  -1  11   1  212.26   93.50
   1 -11   0  425.72   95.65
  -1  11   0  435.91  137.99
   1 -11   1  587.15  121.29
  -1  11  -1  647.10  242.56
   1 -11   2  296.05   94.82
  -1  11  -2  228.00  128.64
   1 -11   3   11.96   65.87
  -1  11  -3  -14.26   87.98
   1 -11   4  231.70  100.24
  -1  11  -4   94.05  125.76
   1 -10 -10  -48.11   65.41
  -1  10  10  -61.26   87.36
   1 -10  -9  329.13  124.57
  -1  10   9  157.86  100.87
   1 -10  -8  139.08   59.86
  -1  10   8   12.19   80.26
   1 -10  -7   -9.98   85.32
  -1  10   7   87.24   76.48
   1 -10  -6   22.34   52.35
  -1  10   6   -0.08   58.77
   1 -10  -5  125.35   63.53
  -1  10   5   53.19   70.45
   1 -10  -4  194.00  103.86
  -1  10   4  197.15   81.72
   1 -10  -3   97.25   77.62
  -1  10   3  -74.83   56.55
   1 -10  -2  230.20   97.03
  -1  10   2  129.59  117.38
   1 -10  -1   65.41   83.24
  -1  10   1   74.25   63.94
   1 -10   0  264.20   96.43
  -1  10   0   96.33   88.70
   1 -10   1  115.62   55.41
  -1  10  -1  -64.41   69.24
   1 -10   2    6.88   56.62
  -1  10  -2   61.03   73.85
   1 -10   3  580.96  110.24
  -1  10  -3  312.85  140.82
   1 -10   4   21.28   66.37
  -1  10  -4    3.68   77.82
   1 -10   5  368.73  119.44
  -1  10  -5  205.16  125.26
   1 -10   6  402.83  194.00
  -1  10  -6   50.51  112.61
   1  -9 -11    8.74  125.83
   1  -9 -11  146.04   70.13
  -1   9  11  -26.41  102.19
   1  -9 -10  -11.25   58.39
  -1   9  10  135.73   76.11
   1  -9  -9  221.59   97.53
  -1   9   9   27.92   76.16
   1  -9  -8  161.66   57.63
  -1   9   8   21.61   72.35
   1  -9  -7  -86.56   70.23
  -1   9   7   56.48   57.80
   1  -9  -6   48.40   49.80
  -1   9   6  117.50   59.19
   1  -9  -5  241.17   62.38
  -1   9   5  122.32   70.47
   1  -9  -4  -92.63   49.36
  -1   9   4   30.05   53.67
   1  -9  -3   53.05   47.88
  -1   9   3  103.36   54.88
   1  -9  -2 -121.58   43.40
  -1   9   2   23.52   51.77
   1  -9  -1  131.23   51.62
  -1   9   1  156.21   68.41
   1  -9   0  651.88   87.00
  -1   9   0  349.21  154.34
   1  -9   1   48.24   46.91
  -1   9  -1   91.60   91.50
   1  -9   2  -78.85   81.99
  -1   9  -2  148.09   65.70
   1  -9   3  136.44   61.25
  -1   9  -3   89.26   77.57
   1  -9   4  231.55   77.56
  -1   9  -4  204.31  152.67
   1  -9   5  223.31   87.91
  -1   9  -5   83.38   94.83
   1  -9   6   94.18   89.72
  -1   9  -6  -45.46  134.42
   1  -9   7   22.00  166.87
  -1   9  -7  -37.02   86.96
   1  -8 -12   45.00  231.30
   1  -8 -12  195.86   86.20
  -1   8  12   22.68  101.59
   1  -8 -11  266.52  143.80
   1  -8 -11  265.70   91.67
  -1   8  11  165.00  184.03
   1  -8 -10  478.00  102.22
  -1   8  10  445.43  202.57
   1  -8  -9   45.97   92.46
  -1   8   9  118.52   70.05
   1  -8  -8  294.42   65.06
  -1   8   8  216.85   80.54
   1  -8  -7  203.71   86.39
  -1   8   7  171.78   65.83
   1  -8  -6   58.70   40.98
  -1   8   6  -53.58   51.29
   1  -8  -5  310.25   59.02
  -1   8   5  176.12   98.91
   1  -8  -4  350.03   62.03
  -1   8   4  191.95  106.14
   1  -8  -3 1268.41  116.99
  -1   8   3 1006.86  120.87
   1  -8  -2  121.60   42.97
  -1   8   2   58.86   46.43
   1  -8  -1   17.79   36.63
  -1   8   1   89.90   47.08
   1  -8   0  441.31   85.49
  -1   8   0  222.57   64.93
   1  -8   1  449.16   65.88
  -1   8  -1  462.81   81.47
   1  -8   2  935.99   98.05
  -1   8  -2  604.40  108.03
   1  -8   3  -81.27   68.53
  -1   8  -3   74.80   86.91
   1  -8   4   56.03   49.27
  -1   8  -4  -14.93   62.51
   1  -8   5  103.28   68.26
  -1   8  -5   65.25   78.49
   1  -8   6 1057.68  240.31
  -1   8  -6  592.95  154.47
   1  -8   7   57.73   86.02
  -1   8  -7  -48.90   65.27
   1  -8   8  -23.54  246.89
   1  -8   8  -68.97  119.18
  -1   8  -8  151.32   79.68
   1  -7 -13   55.59   78.11
   1  -7 -12  -31.30   99.71
   1  -7 -12  -11.09   60.20
  -1   7  12   42.07   64.58
   1  -7 -11   41.37   99.09
   1  -7 -11   70.78   58.69
  -1   7  11   46.16   78.55
   1  -7 -10  107.20   83.66
   1  -7 -10   80.67   53.34
  -1   7  10   -5.09   76.94
   1  -7  -9  536.15   74.06
  -1   7   9  286.95   97.10
   1  -7  -8   -2.29   43.15
  -1   7   8   27.13   46.38
   1  -7  -7  -22.14   39.59
  -1   7   7  100.02   45.71
   1  -7  -6   57.51   38.13
  -1   7   6   44.42   47.72
   1  -7  -5   11.31   32.69
  -1   7   5   -7.52   35.35
   1  -7  -4    4.51   31.65
  -1   7   4   40.92   38.76
   1  -7  -3  236.31   44.78
  -1   7   3  178.83   80.16
   1  -7  -2  135.06   38.52
  -1   7   2   77.43   40.54
   1  -7  -1   12.56   30.61
  -1   7   1   13.06   35.61
   1  -7   0 1095.57   82.33
  -1   7   0  830.50   89.35
   1  -7   1   80.46   61.58
  -1   7  -1  108.03   43.33
   1  -7   2 1901.37  143.18
  -1   7  -2 1639.48  154.52
   1  -7   3   -5.92   60.95
  -1   7  -3   72.89   49.10
   1  -7   4  585.26   76.93
  -1   7  -4  368.78   99.66
   1  -7   5  109.04   60.37
  -1   7  -5  134.94   66.49
   1  -7   6   61.04   48.83
  -1   7  -6  -52.08   54.64
   1  -7   7 1825.95  225.61
  -1   7  -7  858.19  156.62
   1  -7   8  293.24  129.63
   1  -7   8  725.39  147.48
  -1   7  -8  240.63   92.70
   1  -7   9  -18.42   59.44
  -1   7  -9   55.07   61.32
   1  -6 -13  120.18   87.03
   1  -6 -12  161.50   79.49
   1  -6 -11   23.13   57.30
  -1   6  11   54.24   57.68
   1  -6 -10  188.31   61.19
  -1   6  10  120.50   75.88
   1  -6  -9  117.04   50.77
  -1   6   9  166.27   69.79
   1  -6  -8 1806.87  186.62
  -1   6   8 1285.03  157.83
   1  -6  -7   88.50   37.55
  -1   6   7   98.01   46.41
   1  -6  -6  339.18   52.95
  -1   6   6  303.65   57.35
   1  -6  -5   31.63   50.86
  -1   6   5   17.19   34.06
   1  -6  -4  374.82   69.56
  -1   6   4  307.31   49.34
   1  -6  -3 1365.01   89.02
  -1   6   3 1377.70  108.73
   1  -6  -2  667.88   58.31
  -1   6   2  568.87   88.83
   1  -6  -1   81.89   43.38
  -1   6   1   34.99   32.17
   1  -6   0  258.34   36.34
  -1   6   0  203.63   63.02
   1  -6   1  269.24   38.16
  -1   6  -1  174.12   40.26
   1  -6   2  243.57   40.53
  -1   6  -2  241.07   48.00
   1  -6   3  615.77   90.34
  -1   6  -3  551.47   79.14
   1  -6   4  333.39   54.59
  -1   6  -4  335.42   64.70
   1  -6   5   27.57   42.86
  -1   6  -5    3.61   41.69
   1  -6   6  234.15   60.32
  -1   6  -6  219.92   61.19
   1  -6   7  311.99  108.06
   1  -6   7  191.32   92.07
  -1   6  -7  189.58   63.88
   1  -6   8 1703.46  208.25
  -1   6  -8 1167.97  164.03
   1  -6   9   47.11   76.01
  -1   6  -9  129.13   61.56
   1  -6  10   14.88   48.48
  -1   6 -10  -10.88   55.57
   1  -5 -13   44.98  108.11
   1  -5 -13  140.22   88.64
   1  -5 -12  200.71   86.29
   1  -5 -11   -6.38   53.52
   1  -5 -10  143.48   57.67
  -1   5  10  106.52   56.36
   1  -5  -9  807.65   91.26
  -1   5   9  682.45  110.86
   1  -5  -8  326.28   52.85
  -1   5   8  164.97   68.77
   1  -5  -7  276.60   43.98
  -1   5   7  194.12   53.20
   1  -5  -6  704.51   61.82
  -1   5   6  658.84   69.06
   1  -5  -5  997.22   66.92
  -1   5   5  875.90  118.65
   1  -5  -4  187.25   36.86
  -1   5   4  208.04   33.77
   1  -5  -3  317.83   35.98
  -1   5   3  158.69   56.78
   1  -5  -2   49.41   21.03
  -1   5   2  -15.91   23.64
   1  -5  -1  192.39   31.35
  -1   5   1  196.49   34.22
   1  -5   0 1266.57   92.61
  -1   5   0  994.57  101.82
   1  -5   1  125.57   27.75
  -1   5  -1  124.74   27.81
  -1   5  -2 5302.69  339.09
  -1   5  -3  351.69   48.50
  -1   5  -4   72.57   35.91
   1  -5   5  -61.60   36.11
  -1   5  -5   37.91   33.17
   1  -5   6 2361.03  264.16
  -1   5  -6 1336.03  205.50
   1  -5   7   92.76   61.43
   1  -5   7   96.43   61.44
  -1   5  -7   22.06   45.07
   1  -5   8    2.51   43.84
  -1   5  -8   63.06   44.97
   1  -5   9  221.94  109.83
  -1   5  -9  184.47  100.73
   1  -5  10    9.10   42.15
  -1   5 -10  114.24   77.09
   1  -5  11   30.84   43.19
  -1   5 -11   -4.79   84.63
   1  -4 -13   13.66   52.85
   1  -4 -13  175.50   79.46
   1  -4 -12   50.39   57.68
   1  -4 -12  159.80   73.52
   1  -4 -11  228.67   74.66
   1  -4 -10  265.92   69.27
   1  -4  -9  -36.15   38.12
  -1   4   9   58.92   36.62
   1  -4  -8  685.08   70.87
  -1   4   8  568.16   82.17
   1  -4  -7  145.24   34.48
  -1   4   7   42.14   45.50
   1  -4  -6 1079.68   71.38
  -1   4   6  954.65   83.40
   1  -4  -5   76.35   24.54
  -1   4   5   48.05   27.74
   1  -4  -4  183.55   27.90
  -1   4   4  171.63   34.05
   1  -4  -3 1227.23   67.62
  -1   4   3  965.90   93.74
   1  -4  -2   65.88   21.80
  -1   4   2   71.66   22.50
   1  -4  -1   99.80   20.00
  -1   4   1   53.48   20.87
   1  -4   0  106.92   20.46
  -1   4   0   13.40   34.50
   1  -4   1 1990.51   86.08
  -1   4  -1 1781.31  124.69
  -1   4  -2  475.88   63.58
  -1   4  -3  357.80   38.08
   1  -4   4   97.09   28.87
  -1   4  -4   95.29   29.87
   1  -4   5  718.34   58.98
  -1   4  -5  673.50   63.63
   1  -4   6  118.00   48.16
   1  -4   6  309.31   80.54
  -1   4  -6  107.60   35.60
   1  -4   7  -29.25   47.70
  -1   4  -7   54.47   32.24
   1  -4   8  186.56   58.00
  -1   4  -8  141.76   71.69
   1  -4   9  -14.68   37.17
  -1   4  -9    7.21   37.46
   1  -4  10   11.51   39.52
  -1   4 -10    7.81   44.58
   1  -4  11   79.09   44.17
  -1   4 -11  124.61   60.33
  -1   4 -11  144.33   83.08
   1  -3 -13  118.23   84.13
   1  -3 -12  -26.11   68.17
   1  -3 -12   61.49   62.24
   1  -3 -11   52.31   42.85
   1  -3 -11  212.58  103.27
   1  -3 -10   46.61   74.73
   1  -3 -10   -0.51   50.36
   1  -3  -9   17.65   43.77
   1  -3  -8  645.79   69.65
  -1   3   8  397.33   54.68
   1  -3  -7 2025.24  157.30
  -1   3   7 1621.68  123.02
   1  -3  -6  254.39   34.40
  -1   3   6  273.62   42.73
   1  -3  -5   28.79   29.32
  -1   3   5  -15.60   21.27
   1  -3  -4 5963.46  284.42
  -1   3   4 5945.02  319.03
   1  -3  -3 9217.40  545.54
  -1   3   3 8886.47  513.51
   1  -3  -2   34.27   15.09
  -1   3   2  -22.63   16.17
   1  -3  -1  137.93   19.81
  -1   3   1  196.37   29.93
   1  -3   0   -7.53   15.24
  -1   3   0   29.57   14.64
   1  -3   1  550.61   28.42
  -1   3  -1  453.83   30.16
  -1   3  -2  929.44   66.68
  -1   3  -3   14.10   27.74
   1  -3   4   -0.77   20.45
  -1   3  -4    1.21   17.48
   1  -3   5   13.97   26.97
   1  -3   5    8.56   28.73
  -1   3  -5   11.48   21.40
   1  -3   6  958.87   72.85
  -1   3  -6 1010.72  100.89
   1  -3   7  -16.78   37.01
  -1   3  -7   47.26   26.67
   1  -3   8  156.12   39.12
  -1   3  -8  108.83   37.61
   1  -3   9   -1.53   44.69
  -1   3  -9    4.78   32.82
   1  -3  10   11.69   36.12
  -1   3 -10   60.82   41.69
  -1   3 -10   67.24   52.70
   1  -3  11   -0.15   41.84
  -1   3 -11   81.18   47.67
  -1   3 -11   43.15   77.31
   1  -3  12    5.07   54.71
  -1   3 -12   17.64   50.43
  -1   3 -12  -79.44  140.97
   1  -2 -13  112.26   79.93
   1  -2 -13   34.24   88.16
   1  -2 -12   32.67   29.39
   1  -2 -12   71.30   56.82
   1  -2 -12  160.63   73.64
   1  -2 -11   12.24   49.56
   1  -2 -11  -42.34   55.65
   1  -2 -10   33.81   31.98
   1  -2 -10  106.01   53.07
   1  -2  -9 1010.32   96.96
   1  -2  -9 1286.97  121.51
   1  -2  -8 2276.84  169.58
   1  -2  -7  -31.91   31.03
   1  -2  -6  162.78   29.87
  -1   2   6   85.32   25.00
   1  -2  -5  442.95   36.76
  -1   2   5  350.57   37.69
   1  -2  -4 1543.51   71.27
  -1   2   4 1417.53   78.25
   1  -2  -3   89.75   16.13
  -1   2   3   86.49   18.82
   1  -2  -2  617.43   46.20
  -1   2   2  618.60   35.10
   1  -2  -1   40.86   12.99
  -1   2   1   75.75   13.83
   1  -2   0   39.91   10.96
  -1   2   0   22.26   11.89
   1  -2   1  403.64   19.03
  -1   2  -1  357.37   30.68
  -1   2  -2   75.20   12.99
   1  -2   3   52.62   23.90
  -1   2  -3   13.62   21.32
   1  -2   4   46.96   20.10
   1  -2   4   -8.10   20.43
  -1   2  -4   32.81   15.56
   1  -2   5   62.66   33.06
  -1   2  -5  102.07   19.80
   1  -2   6   63.25   30.79
  -1   2  -6   36.61   32.01
   1  -2   7  331.74   39.32
  -1   2  -7  221.15   33.83
   1  -2   8   23.40   39.40
  -1   2  -8  -19.04   25.10
   1  -2   9   21.46   34.07
  -1   2  -9  112.57   35.37
  -1   2  -9  122.77   43.02
   1  -2  10  184.55   48.00
  -1   2 -10  183.95   47.47
  -1   2 -10  121.68   71.07
   1  -2  11   53.46   40.08
  -1   2 -11   59.39   72.46
  -1   2 -11  123.86  120.64
   1  -2  12   20.70   72.41
  -1   2 -12  167.23   58.96
  -1   2 -12  105.46   97.38
   1  -1 -13  300.75  112.29
   1  -1 -13  287.55  109.95
   1  -1 -12  -10.11   61.44
   1  -1 -12   -2.11   62.69
   1  -1 -11  191.25   68.41
   1  -1 -11  106.84   71.82
   1  -1 -10   79.87   21.39
   1  -1 -10 -111.82   41.50
   1  -1  -9  376.81   61.78
   1  -1  -9  733.72  120.57
   1  -1  -8   10.42   19.02
   1  -1  -8   17.71   37.53
   1  -1  -7  345.30   30.24
   1  -1  -7  337.04   55.29
   1  -1  -6  542.88   55.34
   1  -1  -5   17.43   23.91
   1  -1  -4  -20.77   18.78
  -1   1   4    7.13   14.03
   1  -1  -3  452.37   39.87
  -1   1   3  289.41   25.96
   1  -1  -2    9.00   11.39
  -1   1   2  -12.80   18.30
   1  -1  -1 3546.69   99.81
  -1   1   1 3427.89  105.49
   1  -1   0 3156.12   81.31
  -1   1   0 3034.56   95.65
   1  -1   1 2441.73   64.74
  -1   1  -1 2341.86   58.96
   1  -1   2  163.86   10.90
  -1   1  -2  120.49   10.43
   1  -1   3  589.79   33.41
   1  -1   3  624.72   30.08
  -1   1  -3  555.68   32.14
   1  -1   4 1119.31   50.68
  -1   1  -4  986.78   41.59
   1  -1   5   90.44   37.96
  -1   1  -5  129.32   28.54
   1  -1   6 1684.06   87.06
  -1   1  -6 1738.86   84.61
   1  -1   7   87.75   27.32
  -1   1  -7   82.58   26.20
  -1   1  -7   60.58   26.81
   1  -1   8  446.38   48.32
  -1   1  -8  467.99   79.93
  -1   1  -8  623.78   97.99
   1  -1   9   88.29   33.76
  -1   1  -9    8.99   34.32
  -1   1  -9  105.27   46.51
   1  -1  10  304.71   54.97
  -1   1 -10  376.30   64.79
  -1   1 -10  685.97   94.06
   1  -1  11  101.06   71.08
  -1   1 -11  138.70   54.03
  -1   1 -11  120.49   68.28
   1  -1  12  144.99   53.35
  -1   1 -12  386.55   91.83
  -1   1 -13   51.69   64.76
  -1   1 -13  100.81   83.76
   1   0 -13  112.15   68.60
   1   0 -13   -6.16   81.15
   1   0 -12  312.19   78.06
   1   0 -12  110.67   87.41
   1   0 -11   27.16   65.85
   1   0 -11   94.21   65.66
   1   0 -10   11.71   51.11
   1   0 -10   11.60   50.24
   1   0  -9   22.64   41.53
   1   0  -9  -13.11   49.18
   1   0  -8  511.24   68.60
   1   0  -8  467.52   83.11
   1   0  -7    4.23   17.26
   1   0  -7   -2.07   26.42
   1   0  -7  106.79   56.53
   1   0  -6    0.26   10.80
   1   0  -6  -49.99   31.01
   1   0  -5  386.13   20.66
   1   0  -5  529.57   48.53
   1   0  -4  900.49   54.65
   1   0  -3  359.47   29.90
   1   0  -2 2276.95   83.79
   1   0  -118642.59 1015.41
   1   0   118373.09 1044.78
  -1   0  -118254.88 1024.68
   1   0   2   30.78   15.52
  -1   0  -2   -3.77   13.71
  -1   0  -2    3.54    5.62
   1   0   3  774.88   36.48
  -1   0  -3  657.05   36.25
  -1   0  -3  715.80   24.95
   1   0   4   42.29   16.35
  -1   0  -4   67.36   22.14
  -1   0  -4   44.89   14.50
   1   0   5 5049.12  227.48
  -1   0  -5 4314.40  241.77
  -1   0  -5 4940.30  216.37
  -1   0  -5 4801.78  218.38
   1   0   6  250.70   30.09
  -1   0  -6  334.60   37.57
  -1   0  -6  369.75   34.68
   1   0   7 1085.34   72.96
  -1   0  -7 1216.79   79.93
  -1   0  -7 1190.48   77.70
  -1   0  -7 1152.17   83.70
   1   0   8   10.29   25.92
  -1   0  -8   62.64   49.03
  -1   0  -8   38.69   35.00
   1   0   9  771.62   72.65
  -1   0  -9  846.50   89.37
   1   0  10   51.62   50.67
  -1   0 -10   17.37   33.14
  -1   0 -10  -42.64   42.65
   1   0  11   58.06   46.38
  -1   0 -11  106.61   62.15
  -1   0 -11  345.80   65.74
  -1   0 -12    8.24   62.95
  -1   0 -12   91.12   64.47
  -1   0 -13  -58.80   64.89
  -1   0 -13   31.54   69.83
   1   1 -13  134.20  128.55
   1   1 -13  -17.87   78.50
   1   1 -12   46.95   78.64
   1   1 -12   50.77   70.62
   1   1 -11  -51.22   70.72
   1   1 -11  183.19   72.40
   1   1 -10 -109.16   48.47
   1   1 -10   56.23   59.99
   1   1  -9   57.68   47.72
   1   1  -9  160.99   53.57
   1   1  -8  161.24   66.63
   1   1  -8  101.77   62.90
   1   1  -7  374.27   56.36
   1   1  -7  207.75   40.65
   1   1  -6 1860.13  133.61
   1   1  -5  813.57   70.00
   1   1  -4  451.29   44.82
   1   1  -3  357.34   34.18
   1   1  -2 4912.37  210.56
   1   1  -1   67.41   13.15
  -1  -1   1   69.27   14.56
   1   1   0 4562.80  139.94
   1   1   0 4457.50  132.95
  -1  -1   0 4597.73  125.46
  -1  -1   0 4617.65  124.18
   1   1   114714.40  740.73
   1   1   115034.64  640.98
  -1  -1  -115197.78  751.20
  -1  -1  -114892.63  637.16
   1   1   2 1239.68   47.15
   1   1   2 1204.65   34.95
  -1  -1  -2 1211.89   45.62
  -1  -1  -2 1314.87   38.18
   1   1   3  214.40   20.92
   1   1   3  205.80   20.34
  -1  -1  -3  165.11   18.46
  -1  -1  -3  216.18   12.73
   1   1   4 2322.35   89.66
  -1  -1  -4 2056.08  114.73
  -1  -1  -4 2001.93   85.32
   1   1   5 3089.24  131.07
  -1  -1  -5 2981.10  133.98
  -1  -1  -5 3052.09  117.88
   1   1   6  958.82   56.06
  -1  -1  -6 1172.62   69.08
  -1  -1  -6 1029.55   52.78
   1   1   7  233.87   32.84
  -1  -1  -7  205.29   29.10
  -1  -1  -7  167.07   30.19
   1   1   8 1282.55  123.00
  -1  -1  -8 1143.12  142.34
  -1  -1  -8 1278.86   89.20
   1   1   9   94.14   35.15
  -1  -1  -9   45.95   43.62
  -1  -1  -9  203.89   56.81
  -1  -1  -9   89.96   39.51
  -1  -1 -10  378.99   66.25
  -1  -1 -10  584.10  132.61
  -1  -1 -10  479.75  106.25
  -1  -1 -11   17.01   57.76
  -1  -1 -11   14.09   47.09
  -1  -1 -12   75.90   52.92
  -1  -1 -12  -55.64   55.13
  -1  -1 -13   -7.76  101.16
  -1  -1 -13   52.52   71.88
   1   2 -13  264.01  183.59
   1   2 -12    9.53   63.14
   1   2 -12  -48.70   75.65
   1   2 -11   61.59   76.38
   1   2 -11   84.11   69.77
   1   2 -10   38.14   62.32
   1   2 -10   62.82   86.83
   1   2  -9   82.85   58.49
   1   2  -9   35.45   39.27
   1   2  -8  206.19   50.96
  -1  -2   8   39.50   15.43
   1   2  -7  418.97   55.15
  -1  -2   7  367.19   21.38
   1   2  -6  171.47   39.19
  -1  -2   6  198.31   13.25
   1   2  -5 1137.58   67.60
  -1  -2   5  857.77   23.47
   1   2  -4 1934.85  107.76
  -1  -2   4 2069.22   65.60
   1   2  -3  970.45   53.84
  -1  -2   3 1069.06   63.80
   1   2  -2 2818.10  114.32
  -1  -2   2 2920.62  136.78
   1   2  -138073.16 3440.85
  -1  -2   138795.38 3425.19
   1   2   012902.87  631.63
  -1  -2   012732.11  610.57
   1   2   110337.10  460.76
  -1  -2  -110399.12  485.21
  -1  -2  -110441.24  450.20
   1   2   2   16.57    9.44
  -1  -2  -2  -14.28   16.25
  -1  -2  -2   28.26    9.71
   1   2   3 2612.06   99.17
   1   2   3 2750.71  115.10
  -1  -2  -3 2272.37  101.72
  -1  -2  -3 2485.62   79.81
   1   2   4  147.11   21.85
   1   2   4  125.41   26.11
  -1  -2  -4  193.61   17.98
   1   2   5  438.56   33.01
   1   2   5  444.08   47.14
  -1  -2  -5  386.70   26.97
   1   2   6  377.67   35.53
   1   2   6  333.36   32.11
  -1  -2  -6  418.72   63.77
  -1  -2  -6  471.69   34.99
  -1  -2  -7  242.25   37.52
  -1  -2  -7  294.70   35.49
  -1  -2  -8  -28.62   33.75
  -1  -2  -8  -33.31   28.83
  -1  -2  -9  149.93   56.88
  -1  -2  -9  179.35   44.88
  -1  -2 -10  153.11   49.97
  -1  -2 -10  109.12   49.22
  -1  -2 -11   -4.33   50.37
  -1  -2 -11   87.73   55.06
  -1  -2 -11  -14.15   50.10
  -1  -2 -12   92.96   57.82
  -1  -2 -12  -30.86  138.47
  -1  -2 -12  191.85  107.30
  -1  -2 -13   54.73   87.19
  -1  -2 -13  -20.91   57.41
   1   3 -12   34.49   67.90
   1   3 -12  106.67   86.25
   1   3 -11   26.35   64.68
   1   3 -11  269.18   97.91
   1   3 -10  124.77   54.82
   1   3 -10   58.96   72.61
   1   3  -9   78.23   45.61
  -1  -3   9   57.12   29.25
   1   3  -8   75.99   63.36
  -1  -3   8   86.32   26.92
   1   3  -7 1505.48  143.85
  -1  -3   7 1180.37   51.66
   1   3  -6  141.22   34.11
  -1  -3   6  119.63   24.62
   1   3  -5  559.67   49.91
  -1  -3   5  540.47   40.71
  -1  -3   5  827.20   69.74
   1   3  -4 1077.91  105.33
  -1  -3   4 1485.53   92.33
   1   3  -3   82.73   22.78
  -1  -3   3  117.13   40.56
   1   3  -2   -9.55   18.03
  -1  -3   2  -35.34   18.48
   1   3  -1   31.48   17.12
  -1  -3   1  196.64   27.22
   1   3   027977.77 2200.31
  -1  -3   028159.61 2137.14
   1   3   1 5472.31  234.11
  -1  -3  -1 5227.60  206.90
   1   3   2 2019.93  106.72
  -1  -3  -2 2193.09  100.28
   1   3   3  271.08   23.30
  -1  -3  -3  264.47   28.60
  -1  -3  -3  253.97   20.72
   1   3   4 1420.28   70.56
  -1  -3  -4 1436.98   59.19
   1   3   5  109.54   20.94
  -1  -3  -5   38.85   33.70
   1   3   6  353.25   40.59
  -1  -3  -6  401.94   54.18
   1   3   7  168.00   35.25
  -1  -3  -7  177.34   32.11
  -1  -3  -8  210.78   50.32
  -1  -3  -8  192.65   60.16
  -1  -3  -9  184.31   53.31
  -1  -3  -9  205.69   68.46
  -1  -3 -10   49.96   53.43
  -1  -3 -10   44.19   41.60
  -1  -3 -11  102.17   79.04
  -1  -3 -11   92.57   82.22
  -1  -3 -12  -38.03   50.29
  -1  -3 -12   78.09   83.06
  -1  -3 -13    2.18   58.68
  -1  -3 -13  -39.92   81.51
  -1  -3 -13   18.90   59.01
  -1  -3 -14  -31.62   53.21
  -1  -3 -14   59.70   68.75
   1   4 -12 -100.50  110.32
   1   4 -12  320.31  132.60
   1   4 -11   25.32   55.49
   1   4 -11    8.48   76.18
   1   4 -10  170.05   56.98
  -1  -4  10   67.88   31.92
   1   4  -9  117.07   46.67
  -1  -4   9   45.51   20.26
   1   4  -8   27.89   37.92
  -1  -4   8   18.19   26.58
   1   4  -7   98.96   36.93
  -1  -4   7   47.87   20.39
   1   4  -6  -28.30   29.53
  -1  -4   6   12.25   27.75
  -1  -4   6  -63.50   41.27
   1   4  -5  418.13   51.18
  -1  -4   5  514.76   63.81
   1   4  -4   -9.15   25.98
  -1  -4   4   65.84   24.09
   1   4  -3  -16.20   22.72
  -1  -4   3  -25.94   22.73
   1   4  -2   60.13   22.69
  -1  -4   2   87.03   21.78
   1   4  -1  232.23   27.86
  -1  -4   1  318.86   27.82
   1   4   0  779.23   46.87
  -1  -4   0  842.84   69.05
   1   4   1 7691.89  413.58
  -1  -4  -1 8093.00  381.04
   1   4   2  760.40   47.76
  -1  -4  -2  993.89   49.13
   1   4   3  943.31   50.95
  -1  -4  -3 1065.82   67.97
   1   4   4   22.13   19.60
  -1  -4  -4   25.84   18.27
   1   4   5 1130.17   76.87
  -1  -4  -5 1304.46   65.30
   1   4   6  -15.01   23.76
  -1  -4  -6   -4.05   22.37
   1   4   7  141.96   37.50
  -1  -4  -7  200.71   35.78
   1   4   8   21.66   35.40
  -1  -4  -8   29.99   32.91
   1   4   9  389.00   65.40
  -1  -4  -9  643.36   90.17
  -1  -4  -9  548.48   70.89
  -1  -4 -10  247.07   72.79
  -1  -4 -10  246.00   61.24
  -1  -4 -11   68.03   66.72
  -1  -4 -11   24.69   50.24
  -1  -4 -12  100.80  148.93
  -1  -4 -12   60.60   63.66
  -1  -4 -13  181.67  114.90
  -1  -4 -13   81.60   77.70
  -1  -4 -14  193.78  154.33
  -1  -4 -14  149.75   96.96
   1   5 -11   57.20  101.90
   1   5 -10  192.01   68.37
   1   5  -9  311.26   55.76
  -1  -5   9   56.71   23.75
   1   5  -8  164.57   52.38
  -1  -5   8  113.55   39.90
   1   5  -7   17.88   55.82
  -1  -5   7  -18.50   23.36
  -1  -5   7   45.52   42.89
   1   5  -6   59.74   38.79
  -1  -5   6   88.03   80.25
   1   5  -5 1399.18  117.22
  -1  -5   5 1645.50  108.98
   1   5  -4  139.75   36.26
  -1  -5   4  244.15   42.68
   1   5  -3  442.39   81.03
  -1  -5   3  603.37   76.25
   1   5  -2   66.55   36.19
  -1  -5   2  -26.89   21.48
   1   5  -1 1592.61  101.71
  -1  -5   1 2196.61  100.95
   1   5   0 1377.58  124.96
  -1  -5   0 1537.09  115.95
   1   5   1 2477.21  174.55
  -1  -5  -1 2616.01  161.40
   1   5   2 1298.67  109.06
  -1  -5  -2 1313.00   67.43
   1   5   3   82.30   24.51
  -1  -5  -3   98.57   23.47
   1   5   4  371.51   43.78
  -1  -5  -4  473.69   38.36
   1   5   5  171.48   52.28
  -1  -5  -5  251.60   33.72
   1   5   6 1494.19  118.75
  -1  -5  -6 1494.09  120.98
  -1  -5  -6 1871.95  113.54
   1   5   7  118.33   36.64
  -1  -5  -7   74.07   44.59
   1   5   8 1260.65  130.75
  -1  -5  -8 1528.49  149.80
  -1  -5  -8 1873.13  171.57
   1   5   9   30.82   74.34
  -1  -5  -9   62.97   57.65
  -1  -5  -9   38.42   41.30
   1   5  10   65.82   48.75
  -1  -5 -10   51.93   65.14
  -1  -5 -10   58.78   48.36
  -1  -5 -11  -16.88   70.02
  -1  -5 -11   33.64   50.57
  -1  -5 -12  155.08  105.27
  -1  -5 -12  264.70   79.86
  -1  -5 -13  -60.50  100.87
  -1  -5 -13   79.29   66.41
   1   6 -11  115.43  117.38
   1   6 -10  321.09  135.94
   1   6  -9  111.12   87.29
  -1  -6   9   38.37   37.71
   1   6  -8  492.16  102.68
  -1  -6   8  213.15   35.45
   1   6  -7   29.17   42.98
  -1  -6   7   40.36   34.41
  -1  -6   7   52.21   62.60
   1   6  -6   25.78   39.64
  -1  -6   6   72.38   53.68
   1   6  -5  359.31   77.42
  -1  -6   5  199.89   47.73
   1   6  -4  -27.18   33.64
  -1  -6   4   55.73   49.72
   1   6  -3   76.03   35.59
  -1  -6   3  105.62   33.76
   1   6  -2    1.89   27.74
  -1  -6   2    3.40   24.77
   1   6  -1   13.38   27.34
  -1  -6   1    9.45   25.73
   1   6   0 1231.75   92.62
  -1  -6   0 1338.10  107.00
   1   6   1 1433.87   99.41
  -1  -6  -1 1760.18   91.08
   1   6   2 2235.48  199.62
  -1  -6  -2 2624.91  134.79
   1   6   3    5.74   30.31
  -1  -6  -3   71.13   26.56
   1   6   4  -14.51   27.05
  -1  -6  -4   -8.10   36.59
   1   6   5  103.40   36.20
  -1  -6  -5  148.16   33.33
   1   6   6  166.56   43.02
  -1  -6  -6  271.74   42.19
   1   6   7  766.58   92.11
  -1  -6  -7  928.73  101.72
  -1  -6  -7 1106.90  129.93
   1   6   8   40.93   50.38
  -1  -6  -8   66.63   58.92
  -1  -6  -8  236.14   49.87
   1   6   9   20.78   52.48
  -1  -6  -9    5.74   59.44
  -1  -6  -9  233.08   71.10
   1   6  10  166.14  100.50
  -1  -6 -10   30.99   79.98
  -1  -6 -10  100.80   54.42
   1   6  11  708.65  128.71
  -1  -6 -11  677.12  174.43
  -1  -6 -11 1062.54  126.31
  -1  -6 -12   47.74   99.78
  -1  -6 -12   76.31   65.08
  -1  -6 -13   57.24  100.64
  -1  -6 -13   56.63   71.86
   1   7 -10  132.59  124.90
   1   7  -9  584.95  177.20
   1   7  -8  142.70   61.76
  -1  -7   8   82.56   44.02
  -1  -7   8  -61.18   73.39
   1   7  -7  236.52   77.46
  -1  -7   7  435.58  154.27
   1   7  -6   48.52   48.85
  -1  -7   6   -3.91   43.93
   1   7  -5   -3.56   70.98
  -1  -7   5   70.89   50.35
   1   7  -4  -17.55   38.33
  -1  -7   4   -2.35   37.84
   1   7  -3  176.44   46.96
  -1  -7   3  120.70   43.41
   1   7  -2   49.86   37.41
  -1  -7   2   22.91   49.16
   1   7  -1   76.04   44.08
  -1  -7   1  148.22   38.27
   1   7   0  294.17   50.80
  -1  -7   0  347.62   45.14
   1   7   1   41.15   30.04
  -1  -7  -1    3.77   28.33
   1   7   2  140.09   52.19
  -1  -7  -2   19.13   28.94
   1   7   3   70.08   41.42
  -1  -7  -3  122.55   33.36
   1   7   4  731.41   79.85
  -1  -7  -4  974.20  107.87
   1   7   5  162.68   49.38
  -1  -7  -5  192.84   39.81
   1   7   6 2581.58  319.29
  -1  -7  -6 3430.12  299.80
   1   7   7  732.73  106.39
  -1  -7  -7  882.02  116.76
  -1  -7  -7  915.35   91.42
   1   7   8  105.97   47.34
  -1  -7  -8  -41.29   92.61
  -1  -7  -8   19.30   43.50
   1   7   9  150.77  103.37
  -1  -7  -9   79.51  126.30
  -1  -7  -9  188.62   60.43
   1   7  10   94.07   89.79
  -1  -7 -10  157.17   92.32
  -1  -7 -10  329.50   78.86
   1   7  11   14.70   69.84
  -1  -7 -11  -17.46   83.97
  -1  -7 -11  -54.30   64.66
   1   7  12  159.18   91.66
  -1  -7 -12  139.86  127.62
  -1  -7 -12  292.33   98.04
  -1  -7 -13   53.61  126.40
  -1  -7 -13   74.67   87.06
   1   8  -9   56.63  110.57
   1   8  -8  265.22   90.31
  -1  -8   8  109.98  112.03
  -1  -8   8  576.79  129.08
   1   8  -7  132.44   66.28
  -1  -8   7   64.55   89.40
   1   8  -6   23.80   56.19
  -1  -8   6   54.52   52.97
   1   8  -5   46.70   50.73
  -1  -8   5    4.65   55.16
   1   8  -4  101.79   50.24
  -1  -8   4    9.16   49.61
   1   8  -3  101.67   52.64
  -1  -8   3   60.96   44.90
   1   8  -2  221.73  105.03
  -1  -8   2  259.08   81.41
   1   8  -1  151.62   88.52
  -1  -8   1  189.86   48.26
   1   8   0  142.99   81.34
  -1  -8   0  204.99   43.70
   1   8   1   18.32   67.73
  -1  -8  -1  116.42   38.84
   1   8   2   24.22   43.68
  -1  -8  -2  255.00   58.16
   1   8   3 1949.76  182.12
  -1  -8  -3 2035.09  144.32
   1   8   4  261.22   57.43
  -1  -8  -4  267.38   52.67
   1   8   5  180.99   62.90
  -1  -8  -5  303.19   53.64
   1   8   6  241.02   64.46
  -1  -8  -6  248.17   81.61
   1   8   7   56.18   47.79
  -1  -8  -7   37.31   43.72
   1   8   8  266.86   90.85
  -1  -8  -8    1.73   71.84
  -1  -8  -8   60.99   51.93
   1   8   9  115.52   71.07
  -1  -8  -9  -10.99   91.41
  -1  -8  -9  252.52   66.54
   1   8  10   75.04   63.56
  -1  -8 -10  -64.55   75.73
  -1  -8 -10   16.89   56.08
   1   8  11  314.14  139.09
  -1  -8 -11  666.41  250.32
  -1  -8 -11  464.86  107.18
   1   8  12   52.38   99.64
  -1  -8 -12 -156.35  199.59
  -1  -8 -12  138.72   78.68
   1   9  -8   62.83   71.08
  -1  -9   8   -2.93   60.18
  -1  -9   8  118.98  101.32
   1   9  -7   54.93   70.24
  -1  -9   7   85.00   92.86
   1   9  -6   19.18   63.38
  -1  -9   6   90.50   61.68
   1   9  -5  172.67  100.09
  -1  -9   5   -5.44   66.25
   1   9  -4  183.01   81.39
  -1  -9   4  281.59   74.82
   1   9  -3  116.98   72.15
  -1  -9   3  131.49   57.90
   1   9  -2  135.20   63.61
  -1  -9   2   50.29   49.56
   1   9  -1   89.09   57.27
  -1  -9   1  107.91   75.97
   1   9   0  -64.32   42.07
  -1  -9   0   34.84   37.40
   1   9   1  -10.55   43.91
  -1  -9  -1   15.40   37.14
   1   9   2  285.53   67.92
  -1  -9  -2  298.13   56.05
   1   9   3  233.40   71.23
  -1  -9  -3  290.81   53.79
   1   9   4    8.98   43.72
  -1  -9  -4  -14.31   38.06
   1   9   5   20.00   88.25
  -1  -9  -5   77.08   48.26
   1   9   6  -81.61   60.27
  -1  -9  -6  203.31   51.34
   1   9   7   17.92   56.95
  -1  -9  -7   93.44   50.28
   1   9   8  501.97  111.33
  -1  -9  -8  405.15  137.90
  -1  -9  -8  463.39   87.62
   1   9   9   59.26   68.57
  -1  -9  -9   25.43   89.14
  -1  -9  -9  101.07   91.63
   1   9  10   69.34   71.12
  -1  -9 -10   -3.52   93.81
  -1  -9 -10   21.15   64.51
   1   9  11  -14.84   80.88
  -1  -9 -11  -92.56  102.67
  -1  -9 -11  -28.47   69.01
   1   9  12   68.29  115.90
  -1  -9 -12   51.44  141.64
  -1  -9 -12  147.26   88.81
   1  10  -7  121.00   91.57
   1  10  -6   17.82   75.93
  -1 -10   6   73.32   69.96
   1  10  -5   38.98  122.37
  -1 -10   5   81.30   78.89
   1  10  -4   64.84   77.70
  -1 -10   4   79.51   67.77
   1  10  -3  -26.05   76.41
  -1 -10   3  119.28   57.94
   1  10  -2   65.63   73.49
  -1 -10   2  139.39   58.32
   1  10  -1  -21.96   56.66
  -1 -10   1   72.57   48.49
   1  10   0    8.42   96.17
  -1 -10   0  100.96   51.76
   1  10   1   85.44   56.33
  -1 -10  -1   68.33   47.83
   1  10   2   96.31   60.18
  -1 -10  -2   96.72   49.87
   1  10   3  177.57   71.98
  -1 -10  -3  127.09   53.75
   1  10   4   30.71   58.59
  -1 -10  -4  142.50   49.65
   1  10   5   19.30   84.78
  -1 -10  -5  -16.89   44.80
   1  10   6   -5.40  106.66
  -1 -10  -6  105.48   56.98
   1  10   7   66.22  105.35
  -1 -10  -7   89.04   98.88
   1  10   8  187.74   95.49
  -1 -10  -8  192.15   75.73
   1  10   9  136.28   97.30
  -1 -10  -9  301.06  134.49
  -1 -10  -9  296.37  126.06
   1  10  10  125.28   85.48
  -1 -10 -10   80.25  125.19
  -1 -10 -10   45.48   73.47
   1  10  11  -79.06   81.68
  -1 -10 -11   54.26  104.99
  -1 -10 -11   41.63   67.58
   1  11  -5  -21.10   98.70
  -1 -11   5 -131.33   92.28
   1  11  -4  105.33   88.72
  -1 -11   4   47.01   78.08
   1  11  -3  206.43   81.24
  -1 -11   3  -34.78   65.99
   1  11  -2   54.08   66.51
  -1 -11   2  -26.11   56.13
   1  11  -1  148.21   80.10
  -1 -11   1  142.09   69.74
   1  11   0  -14.78   63.36
  -1 -11   0  -21.08   52.17
   1  11   1   52.54   63.22
  -1 -11  -1   39.18   50.28
   1  11   2    2.39   63.86
  -1 -11  -2   13.58   48.20
   1  11   3  158.72  104.45
  -1 -11  -3  101.10   57.43
   1  11   4  404.04  179.45
  -1 -11  -4  765.91  153.58
   1  11   5  149.97  121.89
  -1 -11  -5  137.82   61.87
   1  11   6  505.92  224.70
  -1 -11  -6  796.33  121.21
   1  11   7  231.99  146.22
  -1 -11  -7  168.53   82.66
   1  11   8  222.40  161.28
  -1 -11  -8  305.05   99.61
   1  11   9    0.55  129.90
  -1 -11  -9    8.36  116.03
  -1 -11  -9   29.30   67.93
   1  11  10  383.84  234.30
  -1 -11 -10  383.12  356.96
  -1 -11 -10  580.27  133.98
   1  12  -3  -74.87   81.70
  -1 -12   3   30.17   68.31
   1  12  -2   44.75   81.25
  -1 -12   2   29.17   68.02
   1  12  -1  194.24   93.30
  -1 -12   1   65.43   71.52
   1  12   0   50.50  131.99
  -1 -12   0  102.45   68.93
   1  12   1   96.38   86.24
  -1 -12  -1  165.40  104.70
   1  12   2   60.23   74.94
  -1 -12  -2    5.93   54.21
   1  12   3   83.73   73.23
  -1 -12  -3   56.63   63.07
   1  12   4   82.64   79.52
  -1 -12  -4   79.38   62.40
   1  12   5  236.17  171.35
  -1 -12  -5  291.03   85.65
   1  12   6   58.23  127.29
  -1 -12  -6   34.67   61.40
   1  12   7  355.06  126.52
  -1 -12  -7  344.46   99.51
   1  12   8   28.84   96.21
  -1 -12  -8  260.23  126.34
   1  12   9  -57.70  102.06
  -1 -12  -9  170.22  144.44
  -1 -12  -9   96.58   83.35
  -1 -13   1  244.89   98.40
   1  13   0  -46.72   79.76
  -1 -13   0   24.00   63.84
   1  13   1 -118.81   90.24
  -1 -13  -1  110.48   66.55
   1  13   2 -164.80   86.12
  -1 -13  -2   53.49   57.80
   1  13   3  -89.37   80.93
  -1 -13  -3  289.17  108.01
   1  13   4  261.49  115.25
  -1 -13  -4  263.98   94.86
   1  13   5   60.60   92.07
  -1 -13  -5   66.97   71.61
   1  13   6   73.09  148.58
  -1 -13  -6   58.97   71.75
   2 -12  -5   70.14   81.80
  -2  12   5  148.52   96.61
   2 -12  -4   29.41   68.47
  -2  12   4   75.64   89.83
   2 -12  -3   98.37   82.20
  -2  12   3  152.82  106.53
   2 -12  -2  214.50  143.58
  -2  12   2  132.84  121.51
   2 -12  -1   13.41  111.96
  -2  12   1  -57.41  153.94
   2 -12   0   54.37   77.13
  -2  12   0  114.66  122.20
   2 -11  -8    5.16  101.76
  -2  11   8   43.85  127.60
   2 -11  -7  -45.65   60.36
  -2  11   7   59.64   77.19
   2 -11  -6  126.68   81.47
  -2  11   6  184.85  101.15
   2 -11  -5  112.69   71.14
  -2  11   5  -20.29   75.71
   2 -11  -4  120.99   80.66
  -2  11   4  228.48   95.61
   2 -11  -3  111.37   68.21
  -2  11   3   30.34  139.75
   2 -11  -2   38.79   69.03
  -2  11   2  162.76   91.56
   2 -11  -1  351.09   97.89
  -2  11   1  204.93  122.30
   2 -11   0   -7.07   66.34
  -2  11   0 -269.20  145.17
   2 -11   1   73.97   70.65
  -2  11  -1  -50.74   97.23
   2 -11   2   20.60   70.45
  -2  11  -2   -6.10  112.85
   2 -11   3  531.02  143.05
  -2  11  -3  372.99  216.68
   2 -10  -9   -2.68   56.39
  -2  10   9   19.83  116.14
   2 -10  -8   16.88   55.26
  -2  10   8  -79.43   71.57
   2 -10  -7  147.46   65.95
  -2  10   7   79.64   86.30
   2 -10  -6  -22.66   53.66
  -2  10   6   74.53   72.42
   2 -10  -5   36.44   88.46
  -2  10   5   13.40   62.52
   2 -10  -4  175.05   68.80
  -2  10   4   16.19   75.24
   2 -10  -3  256.41   79.56
  -2  10   3  363.37  150.47
   2 -10  -2   32.62   50.46
  -2  10   2  -23.64   67.23
   2 -10  -1  -36.98   51.52
  -2  10   1   24.25   66.16
   2 -10   0  540.16  104.44
  -2  10   0  359.04  127.30
   2 -10   1  244.98   80.44
  -2  10  -1  289.49  199.30
   2 -10   2  135.62  119.75
  -2  10  -2  130.88  115.07
   2 -10   3  560.41  130.52
  -2  10  -3  658.33  184.01
   2 -10   4   27.39   80.52
  -2  10  -4  124.99  109.71
   2 -10   5  -65.99   85.75
  -2  10  -5   73.43   95.35
   2  -9 -11    2.42   71.77
  -2   9  11  181.60  154.67
   2  -9 -10  132.43   78.87
  -2   9  10  209.11  109.84
   2  -9  -9   33.04   56.82
  -2   9   9   74.99   75.34
   2  -9  -8  103.32   58.09
  -2   9   8   23.30   71.68
   2  -9  -7   77.32   54.39
  -2   9   7    3.01   65.72
   2  -9  -6   44.93   47.34
  -2   9   6  -37.07   60.56
   2  -9  -5  122.02   89.83
  -2   9   5  125.19   66.67
   2  -9  -4  180.52   63.79
  -2   9   4  112.08  109.51
   2  -9  -3  -29.73   47.75
  -2   9   3   75.98   83.78
   2  -9  -2  105.92   56.21
  -2   9   2  131.49   68.69
   2  -9  -1  265.72   96.49
  -2   9   1  171.14   76.19
   2  -9   0  141.04   61.30
  -2   9   0  139.98   72.65
   2  -9   1  340.75   72.93
  -2   9  -1  262.19  108.78
   2  -9   2   83.40   58.71
  -2   9  -2   37.01   80.15
   2  -9   3   75.83  105.84
  -2   9  -3  133.45   92.24
   2  -9   4  197.11   77.41
  -2   9  -4    3.23  104.62
   2  -9   5  174.62  101.69
  -2   9  -5  139.52  179.28
   2  -9   6  -65.94   97.63
  -2   9  -6   11.35   89.18
   2  -8 -11   73.89   70.10
  -2   8  11  -50.85   80.75
   2  -8 -10   66.66   67.85
  -2   8  10   55.90   86.59
   2  -8  -9   55.17   53.10
  -2   8   9  -44.39   63.61
   2  -8  -8   71.08   52.96
  -2   8   8  122.67  100.04
   2  -8  -7  -46.26   42.91
  -2   8   7  126.72   81.24
   2  -8  -6   42.69   44.85
  -2   8   6   19.64   52.03
   2  -8  -5   34.60   62.96
  -2   8   5  -18.88   49.92
   2  -8  -4  146.96   52.27
  -2   8   4  168.81   59.58
   2  -8  -3  208.45   52.63
  -2   8   3   77.72   60.21
   2  -8  -2  384.39  102.81
  -2   8   2  228.31   72.66
   2  -8  -1  466.22   66.29
  -2   8   1  341.88   79.42
   2  -8   0  463.00   65.95
  -2   8   0  241.88   76.08
   2  -8   1  752.55  133.34
  -2   8  -1  491.58  110.70
   2  -8   2  -10.84   46.96
  -2   8  -2  133.04   62.10
   2  -8   3  168.72   59.35
  -2   8  -3   39.36   80.72
   2  -8   4  124.14   63.75
  -2   8  -4   43.90  125.56
   2  -8   5   78.86   76.29
  -2   8  -5  119.98   87.26
   2  -8   6  -35.87  131.73
  -2   8  -6  -30.91   83.57
   2  -8   7  328.25  180.55
   2  -8   7  132.55  121.48
  -2   8  -7   58.52   99.63
   2  -8   8  150.21  181.52
  -2   8  -8   35.42   92.11
   2  -7 -12   58.95  114.09
  -2   7  12  -78.87   73.11
   2  -7 -11  -63.02   65.97
  -2   7  11  -56.78  108.93
   2  -7 -10  166.18   69.35
  -2   7  10  200.50   90.94
   2  -7  -9   70.52   51.98
  -2   7   9   58.74   72.54
   2  -7  -8    8.62   67.11
  -2   7   8  -47.96   55.32
   2  -7  -7  -85.99   47.24
  -2   7   7  -14.90   50.97
   2  -7  -6  662.73  107.89
  -2   7   6  456.21   84.09
   2  -7  -5   27.27   38.86
  -2   7   5   70.60   46.79
   2  -7  -4  380.53   59.39
  -2   7   4  312.89   61.76
   2  -7  -3   87.83   41.73
  -2   7   3  154.02   47.88
   2  -7  -2 1900.81  181.21
  -2   7   2 1192.97  135.35
   2  -7  -1  163.74   38.17
  -2   7   1  -26.69   41.84
   2  -7   0   65.46   39.55
  -2   7   0  156.69   45.09
   2  -7   1  245.92   51.42
  -2   7  -1  209.23   91.86
   2  -7   2   -0.44   58.38
  -2   7  -2  114.56   76.71
  -2   7  -3  224.68  114.53
  -2   7  -4  228.95   80.05
   2  -7   5 -131.81   62.38
  -2   7  -5  -30.34   75.88
   2  -7   6  140.49   98.61
  -2   7  -6  -54.53  124.90
   2  -7   7  121.92  136.09
   2  -7   7   81.75   96.65
  -2   7  -7   59.73   83.55
   2  -7   8  166.21  161.90
   2  -7   8   12.13  188.37
  -2   7  -8  147.71   92.27
   2  -7   9  171.96  108.39
  -2   7  -9  309.89  153.14
   2  -6 -12   97.48  130.22
   2  -6 -11  -17.00   65.25
  -2   6  11   97.85   62.25
   2  -6 -10   13.72   57.84
  -2   6  10  152.55   70.79
   2  -6  -9  459.94   79.05
  -2   6   9  291.84  149.23
   2  -6  -8  180.13   48.57
  -2   6   8   11.25   67.38
   2  -6  -7 1041.72   99.93
  -2   6   7 1139.26  123.44
   2  -6  -6  127.26   38.96
  -2   6   6  110.85   46.46
   2  -6  -5  135.83   42.12
  -2   6   5  102.35   43.46
   2  -6  -4  145.59   40.79
  -2   6   4  340.52   74.37
   2  -6  -3  653.90   62.37
  -2   6   3  552.69   66.29
   2  -6  -2  105.27   36.23
  -2   6   2  179.45   41.06
   2  -6  -1  180.06   36.56
  -2   6   1   36.21   36.65
   2  -6   0   49.33   46.04
  -2   6   0   47.94   32.68
   2  -6   1  692.52   62.02
  -2   6  -1  623.49   71.40
  -2   6  -2   11.22   36.00
  -2   6  -3  305.71   63.66
  -2   6  -4  -24.84   49.86
   2  -6   5  377.89  112.82
  -2   6  -5  316.16   91.45
   2  -6   6  -49.24   47.04
  -2   6  -6  111.07   95.27
   2  -6   7  577.00  144.28
   2  -6   7  147.60  108.10
  -2   6  -7  243.31   86.95
   2  -6   8  562.09  259.85
  -2   6  -8  329.34   99.45
   2  -6   9  155.99  119.33
  -2   6  -9  193.53  122.36
   2  -6  10  222.24   95.02
  -2   6 -10  120.40   77.06
   2  -5 -13  112.01   98.08
   2  -5 -12  161.79  146.70
   2  -5 -11   54.70  108.11
   2  -5 -10  390.40   85.34
  -2   5  10  249.88   74.76
   2  -5  -9  -88.80   49.64
  -2   5   9   16.16   56.43
   2  -5  -8  -81.76   46.31
  -2   5   8  -84.29   93.75
   2  -5  -7  -23.91   35.29
  -2   5   7  -37.22   73.51
   2  -5  -6 1221.76   93.17
  -2   5   6 1278.70  165.97
   2  -5  -5  136.88   54.02
  -2   5   5  155.15   62.12
   2  -5  -4  788.22   94.72
  -2   5   4  642.91   68.39
   2  -5  -3  211.49   34.67
  -2   5   3  151.10   34.63
   2  -5  -2  538.45   45.57
  -2   5   2  370.31   46.08
   2  -5  -1   16.11   22.94
  -2   5   1   -7.94   23.62
   2  -5   0   74.23   27.45
  -2   5   0   91.61   27.72
   2  -5   1  137.04   29.24
  -2   5  -1  151.42   33.33
  -2   5  -2  542.15   58.56
  -2   5  -3  399.69   88.55
  -2   5  -4   28.84   42.82
   2  -5   5  116.58   45.93
  -2   5  -5   53.26   48.77
   2  -5   6 1132.48  180.96
   2  -5   6 1052.51  161.18
  -2   5  -6  838.74  182.55
   2  -5   7 1063.46  180.84
   2  -5   7 1128.58  173.94
  -2   5  -7  736.87  116.81
   2  -5   8  116.72   75.61
  -2   5  -8  132.41   90.02
   2  -5   9  -29.06   68.99
  -2   5  -9   10.57   47.89
   2  -5  10   55.20  100.16
  -2   5 -10   29.42   55.08
   2  -4 -13  113.50   95.74
   2  -4 -12  -13.25   46.07
   2  -4 -12  184.96  111.52
   2  -4 -11  -16.89   95.34
   2  -4 -10   39.34   85.67
   2  -4  -9 1230.52  162.54
  -2   4   9  597.57   92.99
   2  -4  -8   56.77   44.02
  -2   4   8  106.04   75.58
   2  -4  -7 2235.76  160.48
  -2   4   7 1888.02  250.57
   2  -4  -6  -20.94   28.65
  -2   4   6   90.93   38.31
   2  -4  -5 1103.85   76.90
  -2   4   5 1126.10  127.04
   2  -4  -4   44.25   24.61
  -2   4   4   49.88   27.85
   2  -4  -3    2.34   21.55
  -2   4   3   69.51   24.89
   2  -4  -2  318.47   51.86
  -2   4   2  266.37   47.83
   2  -4  -1   53.35   21.03
  -2   4   1   28.96   21.70
   2  -4   0  440.24   36.61
  -2   4   0  316.40   33.61
   2  -4   1   40.49   19.17
  -2   4  -1   16.72   20.64
  -2   4  -2  181.98   43.02
  -2   4  -3  388.95   44.95
   2  -4   4 1238.56  105.51
  -2   4  -4  924.23   83.57
   2  -4   5  805.93   91.65
  -2   4  -5  679.20   72.79
   2  -4   6  762.65  147.50
   2  -4   6  380.97   77.35
  -2   4  -6  490.44   64.46
   2  -4   7 3361.39  382.63
  -2   4  -7 2820.55  231.15
   2  -4   8  441.95  107.53
  -2   4  -8  420.19   71.95
   2  -4   9    3.11   54.95
  -2   4  -9   41.59   44.92
   2  -4  10    1.46   46.99
  -2   4 -10   -2.31   46.16
   2  -4  11  202.69   72.86
  -2   4 -11  132.26   67.41
  -2   4 -11  205.09  146.35
   2  -3 -13   90.38   86.78
   2  -3 -12   22.60   31.79
   2  -3 -12  326.57  113.94
   2  -3 -11  120.25   48.61
   2  -3 -11  384.70   92.51
   2  -3 -10  458.39  108.32
   2  -3  -9  181.32   69.10
   2  -3  -8 1855.16  174.42
   2  -3  -7  377.60   56.80
  -2   3   7  199.20   43.03
   2  -3  -6  353.42   47.19
  -2   3   6  416.50   53.34
   2  -3  -5   30.27   23.99
  -2   3   5   48.42   31.28
   2  -3  -4 4097.65  193.99
  -2   3   4 3716.36  209.35
   2  -3  -3 1129.57   59.16
  -2   3   3  984.17   89.49
   2  -3  -2 1377.36   85.89
  -2   3   2 1238.59   74.35
   2  -3  -1   23.53   25.87
  -2   3   1   18.31   16.23
   2  -3   0   30.26   15.38
  -2   3   0   21.99   15.09
   2  -3   1 2648.69  131.10
  -2   3  -1 2368.55  134.93
  -2   3  -2  264.26   23.80
  -2   3  -3  -37.62   21.30
   2  -3   4  872.66   75.82
  -2   3  -4  699.16   50.89
   2  -3   5 1226.47  116.59
   2  -3   5 1294.43   77.48
  -2   3  -5 1022.80   77.59
   2  -3   6   -1.79   38.77
   2  -3   6    3.98   23.90
  -2   3  -6   45.11   28.59
   2  -3   7  147.47   61.55
  -2   3  -7  260.09   41.15
   2  -3   8  952.94  110.70
  -2   3  -8  916.54   84.10
   2  -3   9  199.97   56.46
  -2   3  -9  142.82   71.78
   2  -3  10   84.61   51.92
  -2   3 -10    3.98   68.43
  -2   3 -10   61.77   56.24
   2  -3  11  -29.06   48.45
  -2   3 -11   95.73   69.10
  -2   3 -11   64.09   74.64
   2  -3  12   68.07   58.55
  -2   3 -12   28.88   53.41
  -2   3 -12  271.42  103.09
   2  -2 -13   66.96   79.29
   2  -2 -13  202.83   99.47
   2  -2 -12    5.74   50.99
   2  -2 -12 -105.87  115.38
   2  -2 -11   46.40   39.05
   2  -2 -11   80.17   67.34
   2  -2 -10   65.21   42.02
   2  -2 -10  221.82   66.46
   2  -2  -9  471.50   90.05
   2  -2  -8  781.87   98.02
   2  -2  -7  163.35   46.66
   2  -2  -6  442.62   50.39
  -2   2   6  260.19   37.77
   2  -2  -5   21.14   27.81
  -2   2   5   80.96   33.39
   2  -2  -4  868.24   54.88
  -2   2   4  623.16   77.59
   2  -2  -3   46.59   27.61
  -2   2   3   51.83   20.91
   2  -2  -2   40.76   14.85
  -2   2   2  -11.75   16.15
   2  -2  -1   60.22   14.64
  -2   2   1   33.21   16.79
   2  -2   0   32.74   11.89
  -2   2   0   29.39   11.95
   2  -2   1  280.27   23.93
  -2   2  -1  193.61   14.40
  -2   2  -2 2277.85   75.72
  -2   2  -3  467.62   26.34
   2  -2   4  424.38   45.43
   2  -2   4  300.03   27.11
  -2   2  -4  312.10   39.76
   2  -2   5  189.72   59.99
  -2   2  -5  183.73   24.28
   2  -2   6  163.10   59.63
  -2   2  -6  189.42   28.76
   2  -2   7  153.35   45.84
  -2   2  -7  136.17   44.96
   2  -2   8  439.96   60.79
  -2   2  -8  383.08   46.50
   2  -2   9  328.42   67.63
  -2   2  -9  446.76  109.88
   2  -2  10   96.45   48.52
  -2   2 -10   49.41   41.07
  -2   2 -10  193.63   95.07
   2  -2  11   39.31   49.55
  -2   2 -11  -23.65   41.15
  -2   2 -11  130.15   69.63
   2  -2  12   75.09   55.57
  -2   2 -12   66.63   53.94
  -2   2 -12  252.14   84.38
   2  -1 -13  165.97   91.44
   2  -1 -13  182.44   97.80
   2  -1 -12  582.84  189.97
   2  -1 -12  770.27  214.23
   2  -1 -11   78.46   53.98
   2  -1 -11   -0.76   65.35
   2  -1 -10  607.53  111.88
   2  -1  -9    2.00   12.91
   2  -1  -9   45.36   47.83
   2  -1  -8 2238.02  135.25
   2  -1  -8 5255.89  289.75
   2  -1  -7  941.06  102.03
   2  -1  -6 2355.50  168.04
   2  -1  -5 1187.67   89.58
   2  -1  -4 6261.29  356.80
   2  -1  -3  707.03   40.10
  -2   1   3  426.70   28.67
   2  -1  -2 2142.54  104.41
  -2   1   2 1885.69   78.64
   2  -1  -1   84.16   13.57
  -2   1   1   66.92   20.31
   2  -1   0  872.32   36.65
  -2   1   0  773.00   36.49
   2  -1   1  446.35   13.89
  -2   1  -1  411.56   19.14
   2  -1   2  369.44   37.64
  -2   1  -2  414.63   12.49
   2  -1   3 1663.00   90.81
   2  -1   3 1599.72   49.53
  -2   1  -3 1550.75   44.57
   2  -1   4   67.94   20.57
  -2   1  -4   99.29   12.97
   2  -1   5   17.07   21.22
  -2   1  -5  -15.61   18.89
   2  -1   6   95.22   34.60
  -2   1  -6   69.18   27.00
   2  -1   7  159.90   35.85
  -2   1  -7  100.65   22.31
  -2   1  -7  139.98   39.81
   2  -1   8  551.72   68.16
  -2   1  -8  543.35   64.86
   2  -1   9   35.40   38.35
  -2   1  -9   39.58   27.67
  -2   1  -9   30.48   43.16
   2  -1  10  -51.87   44.12
  -2   1 -10  -25.74   32.71
   2  -1  11  148.24   50.71
  -2   1 -11   85.48   67.70
  -2   1 -11  -21.16   96.98
   2  -1  12  191.59   67.46
  -2   1 -12  154.33   60.29
  -2   1 -12  310.19   82.03
   2   0 -13  162.49   81.12
   2   0 -13  361.35  105.22
   2   0 -12   10.08   75.71
   2   0 -12  -25.20   62.91
   2   0 -11  562.44  114.26
   2   0 -11  788.56  123.47
   2   0 -10   46.73   60.28
   2   0 -10  331.73   72.33
   2   0  -9  554.13   81.57
   2   0  -9  793.29  111.71
   2   0  -8   27.16   35.62
   2   0  -8   42.43   51.35
   2   0  -7  111.85   53.20
   2   0  -6  251.10   52.61
   2   0  -5  125.27   41.60
   2   0  -4  652.37   63.19
   2   0  -3 2237.04  125.71
   2   0  -2  645.67   46.08
   2   0  -1  574.65   45.17
   2   0   0  265.83   23.11
   2   0   0  290.08   12.70
   2   0   1   77.55   17.71
   2   0   1   16.07    4.73
   2   0   2   53.68   15.96
  -2   0  -3    9.59    6.56
  -2   0  -3   -4.06    6.73
   2   0   4   25.54   23.80
  -2   0  -4   98.12   23.52
  -2   0  -4   28.19    7.93
  -2   0  -4   29.08   14.21
   2   0   5  280.29   34.82
  -2   0  -5  305.39   17.96
  -2   0  -5  262.95   20.88
   2   0   6 1034.57   76.69
  -2   0  -6 1074.05   56.72
   2   0   7  696.59   94.71
  -2   0  -7  584.49   43.91
   2   0   8 1736.51  171.37
  -2   0  -8 1390.03   90.54
  -2   0  -8 1665.56  102.83
   2   0   9   63.84   39.18
  -2   0  -9   34.12   30.26
  -2   0  -9    3.32   51.48
   2   0  10  389.68   62.26
  -2   0 -10  297.86   82.32
  -2   0 -10  363.76   64.05
   2   0  11  -12.27   45.18
  -2   0 -11   16.45   39.35
  -2   0 -11   94.40   71.40
   2   0  12  540.01   93.21
  -2   0 -12  445.55  143.25
  -2   0 -12  693.36  110.02
  -2   0 -13   50.55   55.36
  -2   0 -13   55.19   73.31
   2   1 -13   43.68   84.82
   2   1 -13   80.08   82.48
   2   1 -12  -21.37   68.06
   2   1 -12   65.98   64.17
   2   1 -11  148.14   66.20
   2   1 -11  423.49   92.27
   2   1 -10   49.04   44.73
   2   1 -10   45.97   58.61
   2   1  -9  204.17   82.70
   2   1  -9  354.39   71.47
   2   1  -8  358.51   64.39
   2   1  -8  327.02   86.80
   2   1  -7  114.23   44.21
   2   1  -7  138.94   48.13
   2   1  -6  127.41   52.12
   2   1  -6  773.24   59.35
   2   1  -5   39.74   43.85
   2   1  -4  985.41   63.66
   2   1  -3  -17.37   20.45
   2   1  -2 3091.02   78.54
   2   1  -2 2643.96  122.46
   2   1  -1    7.22   15.46
   2   1  -1    7.13   19.80
  -2  -1   1   21.16   10.71
   2   1   0  178.40   27.36
   2   1   0  172.76   18.51
   2   1   1   53.89   15.43
  -2  -1  -1   43.01   13.57
  -2  -1  -1   60.67    4.94
   2   1   2  295.85   24.95
  -2  -1  -2  233.67   32.34
   2   1   3  147.69   23.93
  -2  -1  -3   74.91   29.42
   2   1   4  180.28   29.17
  -2  -1  -4  144.90   23.42
  -2  -1  -4  185.66   17.88
   2   1   5  725.36   50.54
  -2  -1  -5  585.21   43.43
  -2  -1  -5  659.74   30.75
   2   1   6  452.56   67.28
  -2  -1  -6  343.78   50.65
  -2  -1  -6  311.79   26.08
   2   1   7   59.61   32.83
  -2  -1  -7    8.43   35.89
  -2  -1  -7   57.85   23.93
  -2  -1  -7   88.63   22.05
   2   1   8  193.26   41.97
  -2  -1  -8  202.22   78.10
  -2  -1  -8   91.19   58.08
  -2  -1  -8  213.55   33.77
   2   1   9  590.38  104.03
  -2  -1  -9  641.17   89.46
  -2  -1  -9  402.21   64.56
  -2  -1  -9  539.36   60.60
   2   1  10  297.10   62.16
  -2  -1 -10  321.73   94.84
   2   1  11   52.52   49.40
  -2  -1 -11   80.21   42.10
  -2  -1 -11  103.07   54.53
  -2  -1 -12   53.19   66.03
  -2  -1 -12  201.01   70.79
  -2  -1 -13  323.94  156.17
  -2  -1 -13  361.41   98.85
   2   2 -12  -55.23   73.99
   2   2 -12  -12.72   72.18
   2   2 -11   41.21  121.85
   2   2 -11  139.54  102.14
   2   2 -10  -59.42   66.54
   2   2 -10 -107.31   83.24
   2   2  -9  354.48   84.35
   2   2  -9  385.24   91.02
   2   2  -8   97.57   54.23
   2   2  -7  457.67   89.02
   2   2  -6   15.56   28.92
   2   2  -5  360.82   61.79
   2   2  -4   24.69   41.10
  -2  -2   3   -5.30    3.60
   2   2  -2 1142.31   61.21
  -2  -2   2 1202.02   27.80
  -2  -2   1 1644.34   49.03
  -2  -2   1 1546.54   61.18
  -2  -2   0  599.52   28.96
  -2  -2   0  639.58   28.44
   2   2   1  345.81   24.65
   2   2   1  346.61   22.68
  -2  -2  -1  385.14   26.66
  -2  -2  -1  362.66   17.46
   2   2   2  141.02   33.67
   2   2   2  109.37   16.31
  -2  -2  -2  127.81   22.12
  -2  -2  -2  134.00   15.71
   2   2   3  291.61   42.68
   2   2   3  244.22   20.44
  -2  -2  -3  255.50   26.69
  -2  -2  -3  265.87   12.99
   2   2   4  301.15   30.25
   2   2   4  272.16   24.62
  -2  -2  -4  200.83   30.20
  -2  -2  -4  318.99   24.56
   2   2   5   63.15   24.70
   2   2   5   66.50   17.06
  -2  -2  -5   78.26   27.08
   2   2   6    7.60   24.42
  -2  -2  -6   62.38   27.83
  -2  -2  -6   33.69   20.11
   2   2   7  108.19   35.26
  -2  -2  -7  194.94   44.14
  -2  -2  -7  123.34   43.65
   2   2   8  361.68   51.66
  -2  -2  -8  216.44   76.86
  -2  -2  -8  352.01   42.52
   2   2   9  199.12   46.79
  -2  -2  -9  172.94   52.72
  -2  -2  -9  188.75   42.40
   2   2  10   28.72   40.70
  -2  -2 -10  178.74   57.77
  -2  -2 -10   -7.93   50.55
  -2  -2 -10   22.09   39.32
  -2  -2 -11  167.26  121.07
  -2  -2 -11  119.95  114.89
  -2  -2 -11  147.22   54.26
  -2  -2 -12   15.69   63.67
  -2  -2 -12   25.50   67.10
  -2  -2 -12   19.39   81.40
  -2  -2 -13  -72.20   61.35
  -2  -2 -13  -31.14   66.38
   2   3 -12  567.13  154.07
   2   3 -12  837.40  214.33
   2   3 -11  107.35  169.48
   2   3 -10   78.60   79.76
   2   3 -10  248.34   85.22
   2   3  -9  -30.80   55.86
   2   3  -8  206.69   65.52
   2   3  -7  112.33   50.59
   2   3  -6  832.06   85.53
   2   3  -5   73.18   31.84
  -2  -3   4   57.87    7.88
  -2  -3   4  -14.23   31.66
   2   3  -3  801.16   56.86
  -2  -3   3  822.72   32.85
  -2  -3   3 1080.96   70.33
   2   3  -2 6478.53  342.58
  -2  -3   2 6653.29  301.30
  -2  -3   2 6628.79  370.23
   2   3  -1  -14.17   25.62
  -2  -3   1    0.97   12.07
  -2  -3   1   19.06   16.78
   2   3   0  735.24   56.99
  -2  -3   0  752.79   58.89
  -2  -3   0  802.39   37.74
   2   3   1 1156.41   62.70
  -2  -3  -1 1189.92   55.22
  -2  -3  -1 1022.04   41.97
   2   3   2  190.25   24.47
   2   3   2  188.53   18.18
  -2  -3  -2  258.30   28.47
  -2  -3  -2  190.63   17.00
   2   3   3 1096.14   59.61
   2   3   3  982.80   42.35
  -2  -3  -3 1162.73   70.93
  -2  -3  -3 1201.78   44.42
   2   3   4 1412.03   72.30
   2   3   4 1206.33   54.15
  -2  -3  -4 1378.04   82.70
  -2  -3  -4 1356.36   51.48
   2   3   5  245.14   32.57
   2   3   5  197.66   22.98
  -2  -3  -5  216.38   38.76
  -2  -3  -5  257.95   25.86
   2   3   6  153.85   33.58
   2   3   6  147.43   30.51
  -2  -3  -6  264.34   65.76
  -2  -3  -6  247.43   28.65
   2   3   7  114.74   32.70
   2   3   7   86.16   49.36
  -2  -3  -7   98.69   37.09
  -2  -3  -7  107.43   51.02
  -2  -3  -8   33.52   41.84
  -2  -3  -8   36.52   34.56
  -2  -3  -9   98.26   82.39
  -2  -3  -9   -7.60   61.00
  -2  -3 -10   24.14   67.23
  -2  -3 -10   77.66   72.67
  -2  -3 -11  212.41   80.71
  -2  -3 -11  226.60  108.50
  -2  -3 -12   62.93   94.68
  -2  -3 -12  112.63   93.91
  -2  -3 -12  144.62  105.05
  -2  -3 -13   56.00   91.58
  -2  -3 -13   45.83  163.58
  -2  -3 -13  137.76   75.78
   2   4 -12   59.00   90.35
   2   4 -12   69.19  186.18
   2   4 -11  -69.23   83.31
   2   4 -11  -98.91   90.25
   2   4 -10   49.40  110.64
   2   4  -9  -28.02   48.26
   2   4  -8   67.92   47.30
   2   4  -7  425.96   66.74
   2   4  -6  327.76   66.81
  -2  -4   6  139.78   14.33
   2   4  -5  172.95   41.03
  -2  -4   5  254.32   53.67
   2   4  -4  162.06   36.33
  -2  -4   4  166.70   43.22
   2   4  -3 1447.74   97.39
  -2  -4   3 1593.68   86.69
   2   4  -2 3314.18  185.80
  -2  -4   2 3996.38  192.07
   2   4  -1 2812.12  139.06
  -2  -4   1 3176.98  140.13
   2   4   0  284.62   28.21
  -2  -4   0  311.60   27.20
   2   4   1 1526.22   73.05
  -2  -4  -1 1598.64   79.13
  -2  -4  -1 1526.18   64.01
   2   4   2  817.11   48.74
  -2  -4  -2  977.17   62.36
  -2  -4  -2 1047.99   65.86
   2   4   3 5312.40  281.51
  -2  -4  -3 5591.11  407.86
  -2  -4  -3 5772.82  264.52
   2   4   4  246.96   28.91
  -2  -4  -4  240.33   40.05
  -2  -4  -4  280.90   24.94
   2   4   5  417.67   35.13
  -2  -4  -5  498.37   57.71
  -2  -4  -5  476.09   51.22
   2   4   6   59.83   38.81
  -2  -4  -6   98.04   37.29
  -2  -4  -6   70.99   27.30
   2   4   7  425.66   54.35
  -2  -4  -7  713.89   78.02
  -2  -4  -7  599.28   56.67
   2   4   8  410.79   56.27
  -2  -4  -8  228.01   69.61
  -2  -4  -8  341.16   84.96
   2   4   9   95.72   42.86
  -2  -4  -9   79.18   53.14
  -2  -4  -9   97.95   48.22
  -2  -4 -10  -19.83   56.68
  -2  -4 -10  -11.15   46.68
  -2  -4 -11   84.97   83.02
  -2  -4 -11   24.65   56.21
  -2  -4 -12   48.55  118.77
  -2  -4 -12   67.61   64.76
  -2  -4 -13  -48.16  140.37
  -2  -4 -13   23.50   63.84
   2   5 -11   31.35   68.23
   2   5 -10   64.85   63.34
   2   5  -9   52.84   86.48
   2   5  -8  175.38   95.62
   2   5  -7   -4.99   43.56
  -2  -5   7   47.34   18.77
   2   5  -6  104.21   49.30
  -2  -5   6  219.19   60.06
   2   5  -5  312.49   55.44
  -2  -5   5  364.03   67.21
   2   5  -4 1369.06  111.60
  -2  -5   4 1568.59   99.23
   2   5  -3  431.70   51.69
  -2  -5   3  406.52   53.34
   2   5  -2 1134.90   80.78
  -2  -5   2 1415.59  110.34
   2   5  -1 4238.83  306.10
  -2  -5   1 4433.53  221.72
   2   5   0 1665.67   95.34
  -2  -5   0 1917.78   94.04
   2   5   1 1546.10   91.69
   2   5   2 1160.70   74.67
  -2  -5  -2 1509.68   70.45
   2   5   3  138.37   25.83
  -2  -5  -3   64.15   30.85
  -2  -5  -3   81.89   23.33
   2   5   4  240.45   37.09
  -2  -5  -4  352.27   48.95
  -2  -5  -4  378.72   34.33
   2   5   5   76.62   24.96
  -2  -5  -5  -28.01   31.65
  -2  -5  -5   13.18   21.06
   2   5   6   42.73   32.88
  -2  -5  -6   65.60   62.43
  -2  -5  -6  177.24   45.38
   2   5   7  368.57   55.15
  -2  -5  -7  419.48   75.37
  -2  -5  -7  559.60   56.99
   2   5   8  -73.39   37.03
  -2  -5  -8    9.21   47.01
  -2  -5  -8   -4.38   41.73
   2   5   9  175.10   62.54
  -2  -5  -9  237.86   73.27
  -2  -5  -9  225.10   60.31
   2   5  10   17.14   47.20
  -2  -5 -10   26.34   57.17
  -2  -5 -10   39.75   52.12
  -2  -5 -11  -67.26  130.31
  -2  -5 -11  129.42   66.25
  -2  -5 -12  116.05  100.05
  -2  -5 -12   92.39   74.35
  -2  -5 -13  118.24  133.20
  -2  -5 -13   60.60   78.98
   2   6 -10  109.71   76.11
   2   6  -9  373.55   93.39
   2   6  -8  -41.12   49.65
  -2  -6   8   -2.54   11.36
   2   6  -7  325.29   64.20
  -2  -6   7  149.27   41.99
  -2  -6   7  149.22   68.02
   2   6  -6   54.40   46.41
  -2  -6   6   -6.36   87.34
   2   6  -5   48.13   67.42
  -2  -6   5  100.09   62.38
   2   6  -4   87.95   36.52
  -2  -6   4   -8.43   40.52
   2   6  -3  465.11   63.23
  -2  -6   3  479.00   59.24
   2   6  -2  206.22   57.65
  -2  -6   2  108.56   35.08
   2   6  -1 1104.36   81.93
  -2  -6   1 1175.34  110.61
   2   6   0 4118.05  269.20
  -2  -6   0 4738.92  251.90
   2   6   1 3406.50  267.54
  -2  -6  -1 3076.89  212.21
   2   6   2   82.17   29.17
  -2  -6  -2   91.44   27.34
   2   6   3  324.39   44.80
  -2  -6  -3  417.36   60.10
   2   6   4 1459.33  106.85
  -2  -6  -4 1606.09  123.57
  -2  -6  -4 1846.64  105.00
   2   6   5  223.94   44.88
  -2  -6  -5  262.69   55.58
   2   6   6  145.64   37.63
  -2  -6  -6   80.86   49.87
  -2  -6  -6  128.67   33.47
   2   6   7  114.44   70.16
  -2  -6  -7  -13.17   50.30
  -2  -6  -7  179.10   40.21
   2   6   8  212.55   54.55
  -2  -6  -8  163.21   73.58
  -2  -6  -8  259.81   57.36
  -2  -6  -9  140.59   75.41
  -2  -6  -9  285.79   99.68
   2   6  10  276.34   90.45
  -2  -6 -10  426.60  104.50
  -2  -6 -10  299.88   95.33
   2   6  11  -56.48   55.71
  -2  -6 -11  107.66  116.15
  -2  -6 -11   69.71   67.08
  -2  -6 -12  486.17  142.82
  -2  -6 -12  392.19  135.52
  -2  -6 -13  173.91  116.61
  -2  -6 -13   -2.67   90.83
   2   7 -10  255.96   90.82
   2   7  -9   -4.36   55.97
   2   7  -8  300.15   61.10
  -2  -7   8   45.16   18.23
   2   7  -7   -1.51   49.31
  -2  -7   7   52.53   63.34
   2   7  -6   97.31   51.77
  -2  -7   6   93.05   67.99
   2   7  -5    2.26   44.29
  -2  -7   5    5.24   37.33
   2   7  -4 1161.49  138.75
  -2  -7   4 1699.74  143.18
   2   7  -3   40.97   42.97
  -2  -7   3  107.58   41.02
   2   7  -2  229.46   55.61
  -2  -7   2  399.29   51.02
   2   7  -1   53.40   50.65
  -2  -7   1  -15.80   28.99
   2   7   0  175.44   44.56
  -2  -7   0  112.30   36.95
   2   7   1  296.86   52.48
  -2  -7  -1  453.48   45.31
   2   7   2  -66.93   51.53
  -2  -7  -2  119.09   29.66
   2   7   3  -33.98   31.39
  -2  -7  -3   55.27   25.97
   2   7   4  -44.25   33.01
  -2  -7  -4   65.47   28.14
   2   7   5   65.76   44.33
  -2  -7  -5  219.70   53.99
  -2  -7  -5  165.10   39.68
   2   7   6   65.48   39.40
  -2  -7  -6  -14.45   47.18
  -2  -7  -6   22.02   33.82
   2   7   7  412.18  123.92
  -2  -7  -7  675.32  111.40
  -2  -7  -7  795.02   78.38
   2   7   8  109.55   53.64
  -2  -7  -8   99.37   65.11
  -2  -7  -8  147.48   52.86
   2   7   9   57.59   55.50
  -2  -7  -9   71.16   71.41
  -2  -7  -9   69.13   56.46
   2   7  10  429.12  186.18
  -2  -7 -10  417.27  125.66
  -2  -7 -10  578.91  111.08
   2   7  11  487.96  146.70
  -2  -7 -11  600.21  255.02
  -2  -7 -11  758.44  143.20
   2   7  12  280.81  118.47
  -2  -7 -12  547.17  242.25
  -2  -7 -12  543.28  132.44
  -2  -7 -13  102.69  108.58
  -2  -7 -13   28.14   89.52
   2   8  -9  152.48   89.67
   2   8  -8   54.54   68.28
  -2  -8   8   26.96   74.35
   2   8  -7   73.12   73.64
  -2  -8   7  277.20  132.86
   2   8  -6  102.93   60.95
  -2  -8   6    4.91   67.92
   2   8  -5    6.20   53.25
  -2  -8   5   83.86   48.44
   2   8  -4   58.34   46.92
  -2  -8   4  -26.59   49.41
   2   8  -3  115.79   49.91
  -2  -8   3   35.47   74.55
   2   8  -2   15.64   76.95
  -2  -8   2  127.81   68.24
   2   8  -1  789.01   96.86
  -2  -8   1  859.92   83.84
   2   8   0  597.70   80.80
  -2  -8   0  565.58   70.49
   2   8   1 5434.31  536.33
  -2  -8  -1 5487.37  360.44
   2   8   2  162.98   46.44
  -2  -8  -2  121.09   41.81
   2   8   3  206.83   53.98
  -2  -8  -3  340.28   69.21
   2   8   4  208.08   79.04
  -2  -8  -4  215.77   68.50
   2   8   5  544.89   88.66
  -2  -8  -5  788.76  115.95
   2   8   6    9.83   47.12
  -2  -8  -6   59.19   57.02
  -2  -8  -6   63.69   65.75
   2   8   7   68.91   47.00
  -2  -8  -7   57.95   61.77
  -2  -8  -7  -24.26   43.90
   2   8   8  156.45   70.70
  -2  -8  -8  143.08  130.31
  -2  -8  -8  141.34   58.99
   2   8   9  166.43  113.46
  -2  -8  -9  213.84   86.72
  -2  -8  -9  140.59   69.93
   2   8  10  261.30  112.24
  -2  -8 -10  321.66  137.71
  -2  -8 -10  674.19  113.89
   2   8  11   99.57  100.53
  -2  -8 -11   27.93  102.66
  -2  -8 -11  194.49   90.53
   2   8  12  367.96  156.37
  -2  -8 -12  354.73  177.49
  -2  -8 -12  576.93  142.54
   2   9  -8  -37.48   66.03
  -2  -9   8   46.52   88.74
   2   9  -7  -34.74   66.18
  -2  -9   7  -29.46   86.56
   2   9  -6   81.58   65.84
  -2  -9   6  -12.74   94.07
   2   9  -5   48.79   67.87
  -2  -9   5  240.71  113.01
   2   9  -4  110.21   71.23
  -2  -9   4  307.13  107.04
   2   9  -3  -15.61   52.04
  -2  -9   3   30.31   69.28
   2   9  -2   18.05   50.08
  -2  -9   2   26.03   69.78
   2   9  -1   96.09   53.03
  -2  -9   1 -100.85   41.91
   2   9   0   98.03   52.30
  -2  -9   0   63.06   45.17
   2   9   1  146.13   52.81
  -2  -9  -1  134.65   45.33
   2   9   2  187.44   55.90
  -2  -9  -2  109.57   49.44
   2   9   3   69.52   55.18
  -2  -9  -3  202.55   45.48
   2   9   4  -17.73   81.24
  -2  -9  -4   55.28   37.82
   2   9   5  258.94   79.58
  -2  -9  -5  429.28   64.57
   2   9   6  352.57  100.50
  -2  -9  -6  577.33  129.97
  -2  -9  -6  634.22   87.19
   2   9   7  145.42   58.38
  -2  -9  -7   77.97   75.23
  -2  -9  -7  -56.16   51.63
   2   9   8  -22.33   67.37
  -2  -9  -8   49.76   83.46
  -2  -9  -8  107.90   59.13
   2   9   9  101.76   76.48
  -2  -9  -9  127.45   91.86
  -2  -9  -9  116.14  112.08
   2   9  10  -38.80   76.56
  -2  -9 -10  220.45  141.68
  -2  -9 -10  102.50   75.09
   2   9  11  151.61   83.39
  -2  -9 -11 -187.37  102.78
  -2  -9 -11  -79.35   76.77
   2   9  12  -48.39  106.31
  -2  -9 -12 -108.54  109.20
  -2  -9 -12   98.76  135.64
   2  10  -7  157.51   93.43
  -2 -10   7  197.21  121.98
   2  10  -6  -42.28   70.99
  -2 -10   6  -26.41   66.52
   2  10  -5  291.08   96.42
  -2 -10   5  155.34   99.54
   2  10  -4  -17.98   65.86
  -2 -10   4   56.01   59.99
   2  10  -3  284.55  163.14
  -2 -10   3  389.77  132.59
   2  10  -2  -49.81   70.04
  -2 -10   2 -126.25   89.45
   2  10  -1   47.79   60.00
  -2 -10   1   41.96   79.66
   2  10   0   50.15   57.92
  -2 -10   0   90.53   81.46
   2  10   1  243.32  116.33
  -2 -10  -1  262.29   93.85
   2  10   2  183.09  104.61
   2  10   3  430.39  143.01
  -2 -10  -3  545.46  121.39
   2  10   4   31.22   54.05
  -2 -10  -4   54.84   42.98
   2  10   5   28.32   59.96
  -2 -10  -5   95.66   47.54
   2  10   6  478.58  118.40
  -2 -10  -6  569.19   90.82
   2  10   7  344.66  105.80
  -2 -10  -7  428.55  146.05
  -2 -10  -7  491.47  147.17
   2  10   8  124.92   90.93
  -2 -10  -8  316.91  133.89
  -2 -10  -8  330.29   88.48
   2  10   9   49.30  150.19
  -2 -10  -9  109.00  121.92
  -2 -10  -9  206.47   84.68
   2  10  10  -63.14  136.79
  -2 -10 -10   54.51  111.59
  -2 -10 -10 -168.27   86.54
   2  10  11   70.56   89.92
  -2 -10 -11  -75.24  116.93
  -2 -10 -11   72.64  137.94
   2  11  -5   26.90  126.73
  -2 -11   5   41.42   85.01
   2  11  -4  129.49   95.56
  -2 -11   4  104.38  131.65
   2  11  -3   67.09   83.88
   2  11  -2   -1.20   68.26
  -2 -11   2   30.22   56.64
   2  11  -1   77.87  103.84
  -2 -11   1  -62.73   55.11
   2  11   0   66.97   59.77
  -2 -11   0  -20.69   50.52
   2  11   1  170.33   75.24
  -2 -11  -1  152.72   65.46
   2  11   2   48.15   62.57
  -2 -11  -2   69.34   49.26
   2  11   3   53.52   64.78
  -2 -11  -3   31.68   52.02
   2  11   4  -37.69   55.61
  -2 -11  -4  -10.95   46.89
   2  11   5   67.05   68.68
  -2 -11  -5   42.24   82.61
   2  11   6   -6.81   83.98
  -2 -11  -6  192.39   61.60
   2  11   7  107.08   82.23
  -2 -11  -7  159.12  121.59
  -2 -11  -7   70.45   65.69
   2  11   8  120.92   92.89
  -2 -11  -8  125.65  141.38
  -2 -11  -8  271.35  126.72
   2  11   9  -88.41   97.73
  -2 -11  -9   44.18  130.23
  -2 -11  -9  227.60   85.74
   2  11  10  193.53  110.86
  -2 -11 -10  257.53  153.48
  -2 -11 -10  115.55  110.87
   2  12  -3   62.81   89.58
  -2 -12   3   44.73   78.01
   2  12  -2    6.53  113.10
  -2 -12   2   -4.13   59.96
   2  12  -1   42.33   79.87
  -2 -12   1   90.62   67.90
   2  12   0   71.45   74.16
  -2 -12   0   21.93   60.46
   2  12   1  230.38  130.44
  -2 -12  -1   99.96   68.48
   2  12   2   73.14   64.26
  -2 -12  -2  -42.40   48.51
   2  12   3  135.77   84.80
  -2 -12  -3   35.45   91.81
   2  12   4  112.95   76.51
  -2 -12  -4   98.86   65.39
   2  12   5   86.78   74.71
  -2 -12  -5   44.36   58.92
   2  12   6  174.16  113.58
  -2 -12  -6  399.72  131.10
   2  12   7  128.74   80.64
  -2 -12  -7   72.08  123.94
  -2 -12  -7  -54.42   59.43
   2  12   8  -42.26   80.73
  -2 -12  -8  127.33  132.18
  -2 -12  -8  -46.46   68.13
   2  12   9   36.60  118.52
  -2 -12  -9   79.32  166.86
  -2 -12  -9  205.74   92.78
   2  13  -1  -10.36   82.76
  -2 -13   1   -1.99   65.28
   2  13   0  100.26   90.72
  -2 -13   0   20.45   70.00
   2  13   1   33.15   85.17
  -2 -13  -1  104.77  108.49
   2  13   2  365.85  120.58
  -2 -13  -2  224.59   90.60
   2  13   3  164.86  127.12
  -2 -13  -3  -11.22   58.46
   2  13   4   20.76   78.51
  -2 -13  -4   49.29   66.94
   2  13   5  137.11   91.16
  -2 -13  -5   94.33   76.75
   2  13   6  133.46  110.45
  -2 -13  -6  166.48   80.77
   2  13   7   55.10   97.16
  -2 -13  -7 -179.94  150.84
  -2 -13  -7  181.38  112.87
   3 -11  -6  272.72  136.97
  -3  11   6   12.76  102.11
   3 -11  -5  505.88  128.96
  -3  11   5  407.34  158.71
   3 -11  -4  -54.49   73.46
  -3  11   4   -9.36  135.84
   3 -11  -3  211.28   94.33
  -3  11   3  242.00  121.43
   3 -11  -2  377.73  104.13
  -3  11   2  204.93  147.42
   3 -11  -1   59.44   82.67
  -3  11   1  214.73  196.20
   3 -11   0   70.35   74.76
  -3  11   0  -28.80  132.53
   3 -11   1  151.52   92.09
  -3  11  -1   -6.22  157.48
   3 -10  -8  -41.09  100.26
  -3  10   8  161.61  131.53
   3 -10  -7   86.27   72.14
  -3  10   7  183.62   91.22
   3 -10  -6  -31.99   64.20
  -3  10   6  -27.09   75.91
   3 -10  -5  -42.75   59.80
  -3  10   5   55.59   74.35
   3 -10  -4  135.29   75.18
  -3  10   4  -49.23  124.29
   3 -10  -3  200.37   71.69
  -3  10   3  -20.61   86.90
   3 -10  -2   78.37   68.61
  -3  10   2  154.33   93.20
   3 -10  -1  330.38   91.86
  -3  10   1  183.79  130.80
   3 -10   0   11.54   69.56
  -3  10   0  117.19  106.76
   3 -10   1  122.15   69.85
  -3  10  -1  -98.31  118.98
   3 -10   2  -62.93  108.48
  -3  10  -2  165.47  181.80
   3 -10   3  -76.47   81.08
  -3  10  -3   48.87  130.83
   3  -9 -10  511.47  115.92
  -3   9  10  218.46  153.21
   3  -9  -9  206.41   83.66
  -3   9   9   24.63  173.91
   3  -9  -8   99.72  101.75
  -3   9   8   31.24   76.61
   3  -9  -7   44.06   57.87
  -3   9   7   10.86   68.77
   3  -9  -6  169.73   62.85
  -3   9   6   51.00   75.92
   3  -9  -5  143.34   66.63
  -3   9   5  215.77  131.27
   3  -9  -4   81.54   60.55
  -3   9   4   30.86   74.81
   3  -9  -3  158.73   66.18
  -3   9   3   13.06   70.33
   3  -9  -2  568.55  102.74
  -3   9   2  492.39  125.55
   3  -9  -1  505.46  100.44
  -3   9   1  610.45  137.88
   3  -9   0  341.55  129.00
  -3   9   0  258.42  181.15
   3  -9   1  112.99   64.22
  -3   9  -1  143.64  106.71
   3  -9   2  128.22   71.79
  -3   9  -2   20.68  114.77
   3  -9   3   50.84  119.20
  -3   9  -3  198.68  211.69
  -3   9  -4   34.54  126.30
   3  -9   5   54.50   93.86
  -3   9  -5   22.22  119.05
   3  -8 -10  437.09  119.76
  -3   8  10  362.46  132.55
   3  -8  -9  219.79   82.90
  -3   8   9  118.47  100.03
   3  -8  -8   79.48   96.16
  -3   8   8  110.10   76.02
   3  -8  -7   15.46   50.53
  -3   8   7   83.00   92.73
   3  -8  -6  199.17   81.98
  -3   8   6  -17.14   58.52
   3  -8  -5   -5.53   44.61
  -3   8   5   -0.57   50.30
   3  -8  -4   42.32   46.56
  -3   8   4   35.53   60.02
   3  -8  -3   79.38   50.69
  -3   8   3   16.99   54.78
   3  -8  -2   25.79   58.52
  -3   8   2  202.81   65.64
   3  -8  -1  919.66  146.71
  -3   8   1  447.42  123.93
   3  -8   0  328.01   71.13
  -3   8   0  351.34  147.05
   3  -8   1   -5.58   49.41
  -3   8  -1   83.59  103.24
  -3   8  -2  126.57   94.06
  -3   8  -3  446.84  166.38
  -3   8  -4  202.97  129.06
   3  -8   5   61.39   84.74
  -3   8  -5  116.97  109.31
   3  -8   6  155.92  147.87
  -3   8  -6  154.99  122.94
   3  -8   7  -87.69  174.13
   3  -8   7   59.88  173.86
  -3   8  -7   61.92   96.57
   3  -7 -11  290.21  163.35
  -3   7  11  258.95   97.28
   3  -7 -10  371.65  102.74
  -3   7  10  352.89  118.23
   3  -7  -9  213.98   78.10
  -3   7   9  314.81  145.85
   3  -7  -8   66.30   51.13
  -3   7   8    6.36   69.02
   3  -7  -7   80.38   55.31
  -3   7   7   38.90   59.65
   3  -7  -6   94.43   75.11
  -3   7   6    4.57   49.34
   3  -7  -5  -49.77   41.78
  -3   7   5   -5.49   46.42
   3  -7  -4  -16.61   40.82
  -3   7   4  -34.21   47.10
   3  -7  -3   47.96   39.07
  -3   7   3  -25.75   40.90
   3  -7  -2  215.55   53.64
  -3   7   2  184.80   61.47
   3  -7  -1   78.08   69.38
  -3   7   1   69.01   83.71
   3  -7   0  824.20   90.67
  -3   7   0  759.35  174.96
   3  -7   1  494.44  105.20
  -3   7  -1  165.82  134.83
  -3   7  -2   10.86   90.01
  -3   7  -3  218.61  104.09
  -3   7  -4  376.99  131.34
   3  -7   5  -55.45   66.10
  -3   7  -5  -21.59   88.57
   3  -7   6  -35.22   99.49
  -3   7  -6  -16.51  141.11
   3  -7   7  226.22  262.55
   3  -7   7  -11.46  161.14
  -3   7  -7  153.14  100.33
   3  -7   8  424.50  244.46
   3  -7   8  -48.55   94.88
  -3   7  -8   15.96   75.95
   3  -6 -12  222.34  177.55
   3  -6 -11   59.53  125.36
   3  -6 -10  136.55   78.28
  -3   6  10  152.45   69.15
   3  -6  -9   32.43   55.59
  -3   6   9   19.93   64.34
   3  -6  -8  -91.59   47.05
  -3   6   8  111.55   62.25
   3  -6  -7   36.61   63.91
  -3   6   7  -43.49   83.76
   3  -6  -6  622.11   78.27
  -3   6   6  580.17   88.67
   3  -6  -5  131.51   48.66
  -3   6   5  120.65   49.41
   3  -6  -4   48.83   35.69
  -3   6   4  -13.48   37.84
   3  -6  -3   30.61   35.98
  -3   6   3   49.39   40.61
   3  -6  -2 2278.56  156.18
  -3   6   2 1865.98  157.39
   3  -6  -1  664.56   96.34
  -3   6   1  401.19   69.13
   3  -6   0  280.50   48.42
  -3   6   0  224.41   59.03
   3  -6   1  143.82   39.36
  -3   6  -1  114.31   80.59
  -3   6  -2  161.69   98.38
  -3   6  -3   93.68   96.64
  -3   6  -4  148.29  122.99
   3  -6   5  237.14  113.94
  -3   6  -5  223.09  152.60
   3  -6   6  278.95  162.02
   3  -6   6  297.73  108.18
  -3   6  -6  217.66  104.10
   3  -6   7  200.79  131.57
   3  -6   7   74.56  110.67
  -3   6  -7   19.66   83.98
   3  -6   8   26.35  113.92
  -3   6  -8  -36.04   73.07
   3  -6   9  172.77  157.89
  -3   6  -9  -29.14  116.80
   3  -5 -12   21.42  133.33
   3  -5 -11  135.05  144.61
   3  -5 -10   48.29   72.46
   3  -5  -9   49.94   58.80
  -3   5   9    7.50   51.08
   3  -5  -8  120.57   58.05
  -3   5   8  103.63   63.16
   3  -5  -7  943.03  100.71
  -3   5   7  692.00  121.14
   3  -5  -6  404.43   61.72
  -3   5   6  345.02  108.15
   3  -5  -5  178.92   59.82
  -3   5   5   51.84   43.39
   3  -5  -4    1.51   29.73
  -3   5   4   60.62   35.20
   3  -5  -3 1125.97   87.46
  -3   5   3  857.79   86.30
   3  -5  -2  236.18   40.06
  -3   5   2  225.61   61.34
   3  -5  -1  138.26   33.60
  -3   5   1  133.57   35.41
   3  -5   0   30.99   29.06
  -3   5   0   -2.09   30.35
   3  -5   1  722.22   58.80
  -3   5  -1  548.25   70.21
   3  -5   2   70.96   50.33
  -3   5  -2   49.72   58.09
  -3   5  -3  452.55   72.23
  -3   5  -4  119.36   59.32
   3  -5   5   43.71   47.00
  -3   5  -5   46.74   58.18
   3  -5   6  149.61   98.08
   3  -5   6   76.25   73.37
  -3   5  -6   18.64   68.53
   3  -5   7  274.12  126.46
   3  -5   7  158.41   71.85
  -3   5  -7  170.17  139.88
   3  -5   8   67.77   90.28
  -3   5  -8   95.06   76.08
   3  -5   9 -163.54  120.19
  -3   5  -9    9.23  112.51
   3  -5  10  158.95   84.99
  -3   5 -10  -37.28   59.88
   3  -4 -12  -74.42  145.73
   3  -4 -11  113.97  139.51
   3  -4 -10  214.38  137.98
   3  -4  -9  129.13  109.68
   3  -4  -8  475.74   84.04
  -3   4   8  331.01   67.34
   3  -4  -7  115.41   49.01
  -3   4   7   54.72   50.62
   3  -4  -6  517.27   66.54
  -3   4   6  395.57  118.56
   3  -4  -5  228.80   42.03
  -3   4   5   96.36   50.99
   3  -4  -4   70.24   27.42
  -3   4   4  -18.43   32.64
   3  -4  -3    9.70   24.36
  -3   4   3   41.59   27.27
   3  -4  -2  203.74   35.49
  -3   4   2  182.93   54.39
   3  -4  -1   86.21   24.20
  -3   4   1   -6.24   23.28
   3  -4   0  577.98   44.95
  -3   4   0  439.22   44.65
   3  -4   1  100.60   41.67
  -3   4  -1  116.20   29.06
   3  -4   2  455.27   41.61
  -3   4  -2  414.64   45.03
  -3   4  -3  162.85   36.98
  -3   4  -4  826.76  133.13
   3  -4   5   52.08   78.48
   3  -4   5   96.61   58.93
  -3   4  -5  121.66   81.23
   3  -4   6   68.48   72.05
   3  -4   6  141.85   70.11
  -3   4  -6  -56.21   55.13
   3  -4   7   47.55   67.69
  -3   4  -7  120.73   88.82
   3  -4   8  -14.52   77.81
  -3   4  -8   54.66   52.74
   3  -4   9  -92.78   71.88
  -3   4  -9   48.75   80.22
   3  -4  10   13.95   67.95
  -3   4 -10   49.35   50.17
  -3   4 -10   23.88   59.69
   3  -3 -13  437.27  145.33
   3  -3 -12  438.49  131.24
   3  -3 -11  -28.40  129.70
   3  -3 -10   22.43   73.80
   3  -3  -9   22.78   64.36
   3  -3  -8  140.87   71.38
   3  -3  -7  133.06   64.29
  -3   3   7  -15.34   32.66
   3  -3  -6   -9.60   34.45
  -3   3   6   28.46   29.43
   3  -3  -5  467.51   53.45
  -3   3   5  471.90   58.99
   3  -3  -4  128.11   32.18
  -3   3   4  102.78   38.86
   3  -3  -3   60.75   26.41
  -3   3   3   87.50   28.84
   3  -3  -2  111.20   24.00
  -3   3   2   97.10   26.39
   3  -3  -1  229.98   30.23
  -3   3   1  228.97   44.03
   3  -3   0    1.08   25.66
  -3   3   0   -3.49   16.08
   3  -3   1  968.53   67.10
  -3   3  -1  663.43   44.06
   3  -3   2  798.00   44.51
  -3   3  -2  735.99   64.74
  -3   3  -3  999.60   60.77
   3  -3   4   42.20   45.61
   3  -3   4   12.05   30.50
  -3   3  -4  -17.21   23.22
   3  -3   5   75.52   52.48
   3  -3   5   33.26   26.82
  -3   3  -5   18.45   53.30
   3  -3   6  658.33  105.37
  -3   3  -6 1039.07   96.00
   3  -3   7   77.72   96.62
  -3   3  -7   44.46   39.52
   3  -3   8  283.52  116.40
  -3   3  -8  255.03   88.51
   3  -3   9  331.55  119.53
  -3   3  -9  132.41   51.97
  -3   3  -9  126.34   51.01
   3  -3  10   74.61   95.27
  -3   3 -10   38.31   43.62
  -3   3 -10   20.68   59.15
   3  -3  11   17.55  105.08
  -3   3 -11    3.59   44.79
  -3   3 -11  120.21   70.50
   3  -2 -13   70.76   76.24
   3  -2 -13  100.33  101.27
   3  -2 -12  -18.64   55.22
   3  -2 -12  119.88   85.38
   3  -2 -11  129.86   86.04
   3  -2 -10  898.81  153.72
   3  -2  -9    6.34   56.58
   3  -2  -8  208.92   73.53
   3  -2  -7  187.20   60.57
   3  -2  -6   42.77   39.71
   3  -2  -5   34.82   30.64
  -3   2   5  -12.17   22.71
   3  -2  -4  399.24   48.59
  -3   2   4  346.61   65.36
   3  -2  -3  207.73   28.65
  -3   2   3  180.37   31.57
   3  -2  -2  105.53   20.79
  -3   2   2   66.82   25.93
   3  -2  -1  133.93   30.62
  -3   2   1  175.29   35.26
   3  -2   0  103.74   18.29
  -3   2   0  149.34   18.84
   3  -2   1    4.98   11.98
  -3   2  -1   15.50   11.91
   3  -2   2 1225.56   43.09
  -3   2  -2 1095.59   43.08
   3  -2   3 1749.72  131.59
  -3   2  -3 1488.38   62.78
   3  -2   4  590.68   71.94
   3  -2   4  476.17   31.65
  -3   2  -4  486.74   31.66
   3  -2   5  202.23   49.23
  -3   2  -5  459.83   59.43
   3  -2   6 4741.86  512.91
  -3   2  -6 4465.38  279.51
   3  -2   7 1267.06  178.49
  -3   2  -7 1097.58  124.55
   3  -2   8   27.86   52.51
  -3   2  -8   36.32   32.72
  -3   2  -8   46.98   53.78
   3  -2   9   21.61   50.36
  -3   2  -9   31.54   50.91
  -3   2  -9   15.19   66.48
   3  -2  10  142.40   67.39
  -3   2 -10   67.84   40.58
  -3   2 -10   71.07   81.23
   3  -2  11   92.20   61.99
  -3   2 -11   34.69   39.20
  -3   2 -11   27.26   86.87
   3  -2  12   17.73   64.21
   3  -1 -13  428.10  122.40
   3  -1 -13  536.98  136.73
   3  -1 -12  998.78  256.11
   3  -1 -12 1458.17  207.89
   3  -1 -11   27.88   61.14
   3  -1 -11  282.81   82.32
   3  -1 -10   57.21   41.40
   3  -1 -10  -67.41   61.35
   3  -1  -9  706.54  121.09
   3  -1  -8  735.46  114.81
   3  -1  -7 2217.94  296.01
   3  -1  -6  -58.40   70.70
   3  -1  -5  451.22   97.98
   3  -1  -4  331.83   48.46
   3  -1  -3  543.83   48.05
   3  -1  -2  249.35   24.82
  -3   1   2  126.13   19.42
   3  -1  -1  243.46   34.01
  -3   1   1  223.89   21.64
   3  -1   0  631.22   27.36
  -3   1   0  677.60   45.48
   3  -1   1 6007.85  230.73
  -3   1  -1 5695.91  215.63
   3  -1   2  536.82   47.37
  -3   1  -2  354.82   13.13
   3  -1   3  146.41   37.63
   3  -1   3  143.24   11.02
  -3   1  -3  154.04   10.73
   3  -1   4   75.89   28.20
  -3   1  -4   85.76    9.88
   3  -1   5  969.12   86.47
  -3   1  -5  919.71   42.86
   3  -1   6  166.50   36.80
  -3   1  -6  147.77   22.90
  -3   1  -6  129.35   19.57
   3  -1   7 1063.00  119.84
  -3   1  -7 1218.70   94.97
  -3   1  -7 1238.30   73.30
   3  -1   8  788.02   89.69
  -3   1  -8  541.99   52.32
  -3   1  -8  740.31   83.20
   3  -1   9  114.58   59.48
  -3   1  -9  115.77   51.93
  -3   1  -9  117.11   37.79
   3  -1  10   13.96   50.28
  -3   1 -10   39.13   48.71
  -3   1 -10   -9.23   35.51
   3  -1  11  391.30   91.19
  -3   1 -11  269.36   85.61
  -3   1 -11  230.78  105.14
   3  -1  12    1.15   55.11
  -3   1 -12  -10.68   37.33
  -3   1 -12  -11.39   48.91
   3   0 -13   33.80   55.26
   3   0 -13 -130.79   70.87
   3   0 -12  140.03  107.97
   3   0 -12   46.66   72.95
   3   0 -11  -73.21   55.05
   3   0 -11   75.38  101.08
   3   0 -10  194.90   92.56
   3   0 -10 1918.40  157.42
   3   0  -9  419.34   73.69
   3   0  -9  646.51  113.12
   3   0  -8  106.82   45.56
   3   0  -8  287.94   79.72
   3   0  -7  229.45   75.63
   3   0  -6 1104.73  122.15
   3   0  -5  515.62   72.68
   3   0  -4  656.57   76.57
   3   0  -3  266.89   48.78
   3   0  -2 1363.29   90.59
   3   0  -1  144.06   21.76
   3   0  -1  177.74   33.33
   3   0   0 3109.71  150.82
   3   0   0 3280.80  108.08
   3   0   1 2480.29  115.84
   3   0   1 2049.69   49.63
   3   0   2  222.68   28.20
   3   0   3 1007.84   76.06
   3   0   4  328.13   59.81
   3   0   5   33.09   25.77
  -3   0  -5   38.68   13.74
   3   0   6  367.82   56.26
  -3   0  -6  448.93   33.29
  -3   0  -6  393.97   24.81
   3   0   7  641.98   81.14
  -3   0  -7  619.69   58.62
   3   0   8  308.17  104.89
  -3   0  -8  307.92   47.36
  -3   0  -8  384.32   39.21
   3   0   9  887.80   99.45
  -3   0  -9  560.32   76.04
  -3   0  -9  694.15   66.61
   3   0  10   53.60   57.99
  -3   0 -10   20.60   46.46
  -3   0 -10  145.99   65.15
   3   0  11  102.46   54.02
  -3   0 -11   21.25   33.91
  -3   0 -11   30.60   47.31
   3   0  12   26.70   59.75
  -3   0 -12   36.33   38.05
  -3   0 -12   54.09   83.54
   3   1 -12  229.90  146.09
   3   1 -12  467.46  151.32
   3   1 -11  302.51   69.42
   3   1 -11  800.44  230.29
   3   1 -10  167.91   56.32
   3   1 -10  568.56  122.32
   3   1  -9  486.81   82.69
   3   1  -9  768.60  215.53
   3   1  -8 1460.61  149.13
   3   1  -8 2503.40  228.73
   3   1  -7  892.95   92.48
   3   1  -7 1170.82  138.51
   3   1  -6 1165.43  146.21
   3   1  -6 1470.56  121.39
   3   1  -5 1028.84   76.62
   3   1  -5 1062.27   88.12
   3   1  -4  904.11   22.53
   3   1  -4 1082.47   65.00
   3   1  -3 2220.89   80.67
   3   1  -3 2159.91  111.68
   3   1  -2  135.01   16.42
   3   1  -2  192.96   38.45
   3   1  -1  622.60   32.59
   3   1  -1  554.86   30.51
   3   1   0  -34.91   25.32
   3   1   0   17.51   14.20
   3   1   1 1854.38   87.16
  -3  -1  -1 1803.82   94.88
   3   1   2 1895.00  100.77
   3   1   2 2044.52   34.74
   3   1   2 2035.33   34.86
  -3  -1  -2 2092.59  153.76
   3   1   3  786.80   51.66
  -3  -1  -3  749.77   60.86
   3   1   4  131.06   24.72
  -3  -1  -4    1.96   31.31
   3   1   5  426.59   52.49
  -3  -1  -5  375.72   80.06
  -3  -1  -5  397.73   15.60
   3   1   6  930.24  119.23
  -3  -1  -6  686.07   76.33
   3   1   7   78.41   40.31
  -3  -1  -7   91.84   43.30
  -3  -1  -7   28.73   25.66
  -3  -1  -7  126.56   40.56
   3   1   8  676.34   91.28
  -3  -1  -8  683.19   91.76
  -3  -1  -8  649.95   62.49
   3   1   9  344.14   99.12
  -3  -1  -9  177.17   35.25
  -3  -1  -9  251.87   46.67
   3   1  10   14.01   47.08
  -3  -1 -10  -45.68   45.30
  -3  -1 -10   92.08   38.01
   3   1  11  179.47   67.27
  -3  -1 -11  137.87   42.53
  -3  -1 -11  150.46   86.40
   3   1  12   -4.01   53.93
  -3  -1 -12   32.16   48.21
   3   1  13  297.74   79.01
  -3  -1 -13  144.78   57.51
  -3  -1 -13  229.31   76.42
   3   2 -12   16.60  110.92
   3   2 -12  130.04  121.50
   3   2 -11   69.50   69.91
   3   2 -11  206.73  117.67
   3   2 -10  136.07   68.41
   3   2 -10  193.05  104.71
   3   2  -9  -44.35   53.12
   3   2  -9 -143.04  122.19
   3   2  -8  263.59   89.28
   3   2  -8  432.58   84.44
   3   2  -7  592.62   62.75
   3   2  -6  633.67   60.76
   3   2  -5  765.54   59.70
   3   2  -4   73.21   25.11
   3   2  -3  106.50   44.11
   3   2  -2   12.99   18.58
  -3  -2   2   18.21   12.21
   3   2  -1   39.19   13.46
  -3  -2   1   91.53   20.99
  -3  -2   0   85.71   16.33
  -3  -2   0  175.09   28.89
   3   2   1  -20.14   18.14
  -3  -2  -1   20.68   21.66
  -3  -2  -1   21.11    8.87
   3   2   2  253.04   31.50
   3   2   2  273.22   19.28
  -3  -2  -2  325.25   35.32
  -3  -2  -2  252.89   19.26
   3   2   3  671.35   50.18
   3   2   3  605.63   25.03
  -3  -2  -3  650.11   54.04
  -3  -2  -3  597.38   18.60
   3   2   4  712.87   62.97
   3   2   4  760.75   36.12
  -3  -2  -4  868.34   69.50
  -3  -2  -4  788.56   24.47
   3   2   5    7.51   31.76
  -3  -2  -5   74.88   38.57
   3   2   6   44.52   38.29
  -3  -2  -6   74.56   31.69
  -3  -2  -6  124.38   32.66
   3   2   7  399.54   79.53
  -3  -2  -7  256.91   49.32
   3   2   8  -30.23   36.53
  -3  -2  -8   -4.42   43.85
  -3  -2  -8   15.90   23.46
  -3  -2  -8  -21.03   35.58
   3   2   9 1201.17  135.99
  -3  -2  -9 1303.92  167.77
  -3  -2  -9 1568.04  149.30
   3   2  10   75.93   56.48
  -3  -2 -10   99.29   74.07
  -3  -2 -10   74.66   67.05
  -3  -2 -10  217.83   58.75
   3   2  11   42.80   49.83
  -3  -2 -11   65.52   69.81
  -3  -2 -11  -14.74   32.30
  -3  -2 -11   22.51   51.60
   3   2  12  -36.16   49.88
  -3  -2 -12   50.25   43.55
  -3  -2 -12  -35.79   53.02
  -3  -2 -13  251.37  117.08
  -3  -2 -13  294.14   90.67
   3   3 -12 -134.21  203.71
   3   3 -11  356.43  107.15
   3   3 -11  519.82  157.37
   3   3 -10  231.62   79.36
   3   3 -10  168.67   96.67
   3   3  -9   37.55   57.49
   3   3  -9   86.24   66.72
   3   3  -8   90.13   54.49
   3   3  -7   50.44   44.56
   3   3  -6   47.56   40.06
   3   3  -5  779.41   75.82
   3   3  -4  277.82   40.72
  -3  -3   3 4328.17  147.76
  -3  -3   3 3237.83  241.85
  -3  -3   2  902.18   34.64
  -3  -3   2  485.96   62.63
  -3  -3   1  662.10   33.62
  -3  -3   1  754.61   42.88
  -3  -3   0  126.00   20.60
  -3  -3   0  166.73   23.11
   3   3   1  102.94   15.76
  -3  -3  -1   50.61   21.06
  -3  -3  -1   85.08   16.68
   3   3   2   39.06   20.01
   3   3   2   -7.21   21.40
  -3  -3  -2   14.16   20.36
  -3  -3  -2   24.53   12.78
   3   3   3  526.44   44.64
   3   3   3  532.34   27.94
  -3  -3  -3  481.39   44.53
   3   3   4  323.13   38.35
   3   3   4  276.87   30.41
  -3  -3  -4  257.94   38.34
  -3  -3  -4  295.52   21.23
   3   3   5  270.68   64.05
  -3  -3  -5  233.66   47.62
  -3  -3  -5  345.40   35.95
   3   3   6  288.89   46.75
   3   3   6  233.62   46.90
  -3  -3  -6  270.28   50.63
  -3  -3  -6  273.31   42.15
   3   3   7 1528.73  133.12
  -3  -3  -7 1643.59  167.38
  -3  -3  -7 1991.30  125.57
   3   3   8  411.64  104.25
  -3  -3  -8  507.62   91.50
  -3  -3  -8  474.79   70.10
   3   3   9  101.60   46.84
  -3  -3  -9  118.22   51.45
  -3  -3  -9   12.41   88.24
   3   3  10  212.93   62.43
  -3  -3 -10  296.40  123.99
  -3  -3 -10  241.77   80.11
  -3  -3 -11   99.03   87.82
  -3  -3 -11  105.59   58.95
  -3  -3 -11   31.32   70.37
  -3  -3 -12  -16.01   88.37
  -3  -3 -12   13.87   59.88
  -3  -3 -12   66.48   65.56
  -3  -3 -13  247.29  107.50
  -3  -3 -13  -22.13   56.37
  -3  -3 -13  148.41   72.85
   3   4 -11  271.68  108.67
   3   4 -11  454.57  130.28
   3   4 -10  114.04   74.68
   3   4  -9   14.74   55.41
   3   4  -8  -34.99   53.49
   3   4  -7  264.95   66.46
   3   4  -6  310.04   61.62
   3   4  -5  403.42   56.44
   3   4  -4  364.63   71.36
  -3  -4   4  585.95   69.62
   3   4  -3  100.39   31.29
  -3  -4   3   69.02   23.22
  -3  -4   3   77.29   36.98
   3   4  -2  295.51   41.05
  -3  -4   2  355.37   39.85
  -3  -4   2  336.26   36.58
  -3  -4   1   50.19   29.90
  -3  -4   1  -14.35   23.39
   3   4   0   97.45   24.22
  -3  -4   0  133.42   41.92
  -3  -4   0  116.12   23.69
   3   4   1   17.06   17.91
  -3  -4  -1   93.53   35.71
  -3  -4  -1   19.72   28.19
   3   4   2  188.49   25.50
  -3  -4  -2  268.37   35.19
  -3  -4  -2  227.72   36.53
   3   4   3  219.31   31.04
   3   4   3  187.30   23.02
  -3  -4  -3  118.42   35.89
  -3  -4  -3  174.70   34.39
   3   4   4  289.38   38.84
   3   4   4  239.32   26.37
  -3  -4  -4  307.81   45.87
  -3  -4  -4  335.08   41.71
   3   4   5  199.70   35.48
   3   4   5  132.74   23.54
  -3  -4  -5  124.60   41.86
  -3  -4  -5  118.86   38.52
   3   4   6  420.86   52.61
   3   4   6  384.91   58.83
  -3  -4  -6  389.67   58.26
   3   4   7   -8.88   31.55
   3   4   7   31.43   29.58
  -3  -4  -7  -36.06   36.42
  -3  -4  -7   31.00   43.19
   3   4   8  142.64   62.17
  -3  -4  -8  165.01   59.75
  -3  -4  -8  174.10   80.67
  -3  -4  -9   85.65   84.47
  -3  -4  -9  -12.99   55.89
  -3  -4 -10  181.99  100.30
  -3  -4 -10  284.80  129.42
  -3  -4 -11   39.81   73.23
  -3  -4 -11  131.08   76.60
  -3  -4 -12  128.60  140.08
  -3  -4 -12  242.82   96.36
  -3  -4 -13   27.33  105.32
  -3  -4 -13   23.15   78.58
  -3  -4 -13  -11.57   68.61
   3   5 -11   46.47   81.36
   3   5 -10   30.45   71.83
   3   5  -9   -2.49   59.55
   3   5  -8  116.98   66.08
   3   5  -7   34.41   50.42
   3   5  -6   68.95   43.29
   3   5  -5   90.91   46.87
  -3  -5   5  115.55   51.50
   3   5  -4    8.72   33.89
  -3  -5   4   22.42   16.15
  -3  -5   4  -36.20   39.46
   3   5  -3  639.37   71.84
  -3  -5   3  742.86   66.70
  -3  -5   3  892.14   66.69
   3   5  -2 1067.62  131.09
  -3  -5   2 1209.70  104.89
  -3  -5   2 1425.27   96.59
   3   5  -1 1058.93  113.83
  -3  -5   1  993.92   97.11
  -3  -5   1 1104.60   75.28
   3   5   0  206.57   31.62
  -3  -5   0  187.54   32.04
  -3  -5   0  224.82   31.37
   3   5   1  106.82   25.09
  -3  -5  -1   60.21   29.05
  -3  -5  -1   64.48   23.74
   3   5   2   99.21   27.24
  -3  -5  -2   53.62   33.95
  -3  -5  -2  158.18   23.36
   3   5   3 4850.73  280.13
  -3  -5  -3 5360.07  360.12
  -3  -5  -3 5169.15  313.57
   3   5   4   62.34   25.23
  -3  -5  -4   81.64   42.36
  -3  -5  -4  132.95   24.29
   3   5   5  258.08   38.06
  -3  -5  -5  246.75   56.20
  -3  -5  -5  268.91   37.98
   3   5   6  -24.66   28.17
  -3  -5  -6    3.36   39.31
  -3  -5  -6  -23.22   26.46
   3   5   7  520.32   67.59
  -3  -5  -7  765.33   99.78
  -3  -5  -7  832.41   67.86
   3   5   8  160.87   79.28
  -3  -5  -8   64.45   57.15
  -3  -5  -8  167.66   51.32
   3   5   9  280.22   79.62
  -3  -5  -9  391.76   86.84
  -3  -5  -9  504.78   92.73
  -3  -5 -10  -27.43   62.00
  -3  -5 -10   19.23   64.93
  -3  -5 -11  276.95  120.71
  -3  -5 -11  156.27  183.76
  -3  -5 -12  160.01  118.58
  -3  -5 -12    7.12   98.87
  -3  -5 -13   76.33  114.43
  -3  -5 -13  102.50  102.36
   3   6 -10  209.56  107.44
   3   6  -9  178.34   89.37
   3   6  -8   70.13   59.83
   3   6  -7  -99.87   59.01
   3   6  -6  202.26   80.96
  -3  -6   6   33.49   27.18
  -3  -6   6   34.42   60.49
   3   6  -5   22.77   44.41
  -3  -6   5   13.97   24.09
  -3  -6   5  116.22   51.29
   3   6  -4   75.84   42.76
  -3  -6   4   26.36   37.76
   3   6  -3  275.97   49.39
  -3  -6   3  241.05   39.72
  -3  -6   3  287.66   55.81
   3   6  -2 2842.10  218.92
  -3  -6   2 2743.80  181.33
  -3  -6   2 3084.10  191.84
   3   6  -1  461.47   56.54
  -3  -6   1  520.66   55.97
  -3  -6   1  548.55   53.48
   3   6   0  226.45   39.00
  -3  -6   0  220.75   65.15
  -3  -6   0  238.66   36.89
   3   6   1  109.57   43.43
  -3  -6  -1   67.63   33.44
  -3  -6  -1    2.67   26.11
   3   6   2 1419.60  105.05
  -3  -6  -2 1455.27  117.66
  -3  -6  -2 1504.59   87.11
   3   6   3   66.00   29.68
  -3  -6  -3   68.10   36.30
  -3  -6  -3   54.44   43.28
   3   6   4  736.95   78.15
  -3  -6  -4  775.15   88.60
  -3  -6  -4  978.86   65.49
   3   6   5  106.44   35.96
  -3  -6  -5   89.44   53.67
  -3  -6  -5  168.74   34.03
   3   6   6  199.00   48.59
  -3  -6  -6  370.73   67.53
  -3  -6  -6  303.87   47.94
   3   6   7   23.22   40.27
  -3  -6  -7   67.20   50.13
  -3  -6  -7   64.87   37.78
   3   6   8   25.22   42.07
  -3  -6  -8   -8.75   58.63
  -3  -6  -8   85.12   44.09
   3   6   9  194.95   87.86
  -3  -6  -9   40.65   63.20
  -3  -6  -9  -44.56   60.26
   3   6  10  -31.12   60.47
  -3  -6 -10   35.98   62.72
  -3  -6 -10   49.49   72.19
   3   6  11   11.29   57.82
  -3  -6 -11  -76.07   77.37
  -3  -6 -11    8.87   83.19
  -3  -6 -12  130.02  103.17
  -3  -6 -12   16.40  101.48
  -3  -6 -13    6.89  139.88
  -3  -6 -13   89.52  100.76
   3   7  -9   95.20   75.73
   3   7  -8   78.80   68.22
   3   7  -7  185.09   92.14
  -3  -7   7   17.70   27.67
  -3  -7   7   34.20   60.17
   3   7  -6   82.19   55.88
  -3  -7   6   15.87   54.80
  -3  -7   6   88.23   64.21
   3   7  -5  343.95   70.34
  -3  -7   5  209.52   53.52
  -3  -7   5  380.89   82.76
   3   7  -4  162.85   78.13
  -3  -7   4   60.84   44.72
   3   7  -3 1181.63  139.98
  -3  -7   3 1643.74  136.45
   3   7  -2  852.66  104.99
  -3  -7   2 1286.20  105.58
   3   7  -1   75.47   37.22
  -3  -7   1   35.99   33.77
   3   7   0   52.26   40.41
  -3  -7   0  143.33   46.74
  -3  -7   0  194.06   56.55
   3   7   1  167.62   46.33
  -3  -7  -1  156.89   49.71
  -3  -7  -1  189.75   40.18
   3   7   2   54.44   51.79
  -3  -7  -2   34.03   42.38
  -3  -7  -2   50.25   28.96
   3   7   3  258.66   48.24
  -3  -7  -3  228.09   60.69
  -3  -7  -3  227.96   43.32
   3   7   4   82.70   39.00
  -3  -7  -4  -32.12   46.01
  -3  -7  -4   73.67   48.21
   3   7   5 1724.46  150.82
  -3  -7  -5 2035.72  189.74
  -3  -7  -5 2166.13  197.81
   3   7   6  -55.48   59.59
  -3  -7  -6   67.81   71.68
  -3  -7  -6   10.50   34.92
   3   7   7  216.30   56.99
  -3  -7  -7  223.13   78.59
  -3  -7  -7  292.35   88.46
   3   7   8   45.62   51.13
  -3  -7  -8  183.93   62.20
  -3  -7  -8   -7.52   52.90
   3   7   9   82.90   58.95
  -3  -7  -9  108.54   70.73
  -3  -7  -9   61.77   66.25
   3   7  10  -54.94   70.94
  -3  -7 -10  -14.72   74.54
  -3  -7 -10   44.97  117.72
   3   7  11  118.75   96.09
  -3  -7 -11  201.12   92.00
  -3  -7 -11   51.02  115.64
   3   7  12   13.89   77.23
  -3  -7 -12  -10.08  154.29
  -3  -7 -12   99.24  105.69
   3   8  -9  111.07   82.01
   3   8  -8   69.18   70.70
   3   8  -7   16.74  111.40
  -3  -8   7  183.42   90.69
   3   8  -6   77.46   63.63
  -3  -8   6   17.81   48.20
  -3  -8   6    1.34   69.06
   3   8  -5   -6.71   62.01
  -3  -8   5   88.37   51.37
   3   8  -4   39.05   90.68
  -3  -8   4   93.23   90.34
   3   8  -3  -49.18   49.00
  -3  -8   3   -6.51   71.60
   3   8  -2   48.58   49.42
  -3  -8   2   94.09   68.68
   3   8  -1  531.48  124.16
  -3  -8   1  564.65  109.71
   3   8   0 2536.18  311.52
  -3  -8   0 2381.69  180.06
   3   8   1   97.73   42.62
  -3  -8  -1   14.31   37.56
   3   8   2   56.17   39.91
  -3  -8  -2   26.65   54.82
  -3  -8  -2   80.35   35.64
   3   8   3   46.61   41.69
  -3  -8  -3   43.52   54.24
  -3  -8  -3   42.87   36.98
   3   8   4 1087.39  126.38
  -3  -8  -4 1286.69  154.62
  -3  -8  -4 1140.88   98.87
   3   8   5   50.85   73.98
  -3  -8  -5  219.15   62.14
  -3  -8  -5   45.15   40.31
   3   8   6  455.23   83.42
  -3  -8  -6  406.47   93.73
  -3  -8  -6  414.13   67.82
   3   8   7   94.65   81.31
  -3  -8  -7   97.27   60.55
  -3  -8  -7  -12.51   48.43
   3   8   8   51.06   64.19
  -3  -8  -8   44.48   74.15
  -3  -8  -8  192.62   98.94
   3   8   9  115.26  102.37
  -3  -8  -9   85.62   76.06
  -3  -8  -9   30.88   73.09
   3   8  10    2.61   74.88
  -3  -8 -10  115.32   80.85
  -3  -8 -10   70.14  135.81
   3   8  11   52.72  116.86
  -3  -8 -11  193.35  114.44
  -3  -8 -11  327.14  124.57
   3   8  12  122.40  116.56
  -3  -8 -12   -8.34  108.00
  -3  -8 -12  298.51  126.42
   3   9  -8   11.15   74.88
   3   9  -7  266.98  155.84
  -3  -9   7  203.58  114.36
   3   9  -6  258.77   90.99
  -3  -9   6  151.53  102.32
   3   9  -5  198.83   95.45
  -3  -9   5  439.26   85.07
   3   9  -4  132.43   86.20
  -3  -9   4  -62.77   56.77
   3   9  -3  -70.54   58.07
  -3  -9   3  -62.70   53.83
   3   9  -2   -4.74   51.92
  -3  -9   2   33.83   46.28
   3   9  -1  251.51   83.02
  -3  -9   1  420.49   69.27
   3   9   0  184.69   73.05
  -3  -9   0  307.52   59.93
   3   9   1  245.33   61.60
  -3  -9  -1  165.39   53.68
   3   9   2   66.00   47.08
  -3  -9  -2   79.93   41.15
   3   9   3   12.51   74.51
  -3  -9  -3  197.84   68.85
  -3  -9  -3   20.29   43.26
   3   9   4   26.39   53.96
  -3  -9  -4   23.99   67.66
  -3  -9  -4   68.36   40.95
   3   9   5  161.21   65.26
  -3  -9  -5  187.49   91.85
  -3  -9  -5  269.92   82.36
   3   9   6  203.61   80.09
  -3  -9  -6  357.92  100.07
  -3  -9  -6  220.77   57.90
   3   9   7   41.05   61.11
  -3  -9  -7   34.64   71.33
  -3  -9  -7   49.40   51.26
   3   9   8  -41.33   62.54
  -3  -9  -8   83.26  117.84
  -3  -9  -8  -87.13   64.07
   3   9   9  -12.01   82.68
  -3  -9  -9  258.32  102.86
  -3  -9  -9  262.54   93.62
   3   9  10  -37.76   78.18
  -3  -9 -10 -117.42   86.64
  -3  -9 -10   46.09   90.78
   3   9  11  215.43  132.95
  -3  -9 -11  462.04  139.80
  -3  -9 -11  278.74  163.53
   3   9  12  147.59  177.58
  -3  -9 -12 -178.89  105.97
  -3  -9 -12  263.89  186.34
   3  10  -6  104.61   98.83
  -3 -10   6  385.31  114.59
   3  10  -5   81.18   75.52
  -3 -10   5   50.88   65.83
   3  10  -4  -72.36   63.06
  -3 -10   4   91.00   63.69
   3  10  -3  176.08   75.61
  -3 -10   3   31.11   67.67
   3  10  -2  327.87  146.07
  -3 -10   2  342.63   83.32
   3  10  -1  199.45   88.83
  -3 -10   1  306.81   69.57
   3  10   0  372.96   93.96
  -3 -10   0  452.83  119.90
   3  10   1   38.74   55.67
  -3 -10  -1  129.82   78.82
   3  10   2  248.64   83.56
  -3 -10  -2  559.48  109.79
   3  10   3   89.92   48.03
  -3 -10  -3  -37.50   74.02
  -3 -10  -3  -48.10   38.46
   3  10   4  247.44   83.43
  -3 -10  -4  313.87  114.43
  -3 -10  -4  220.06   65.06
   3  10   5   87.66   63.36
  -3 -10  -5  282.16   92.93
  -3 -10  -5   22.19   48.88
   3  10   6  -53.83   93.52
  -3 -10  -6   85.78   83.93
  -3 -10  -6  -25.73   44.83
   3  10   7  243.82   91.25
  -3 -10  -7  149.59  121.44
  -3 -10  -7  167.55  104.12
   3  10   8   -1.51   71.85
  -3 -10  -8  127.28   90.90
  -3 -10  -8   55.73   65.29
   3  10   9   31.01   88.62
  -3 -10  -9 -153.42  164.65
  -3 -10  -9 -211.78  135.14
   3  10  10   -1.40  134.22
  -3 -10 -10  -36.65  105.57
  -3 -10 -10  -37.25   98.81
   3  10  11  257.18  200.29
  -3 -10 -11  127.36  139.47
  -3 -10 -11  270.47  153.11
   3  11  -5  474.15  150.16
  -3 -11   5  551.01  121.81
   3  11  -4   59.78   97.32
  -3 -11   4  222.38   93.00
   3  11  -3  -63.70   75.85
  -3 -11   3   31.21   63.93
   3  11  -2  211.89   88.11
  -3 -11   2   49.87   67.75
   3  11  -1  526.32  129.34
  -3 -11   1  682.62  166.90
   3  11   0  -57.59   96.20
  -3 -11   0   -1.60   82.06
   3  11   1  909.30  158.88
  -3 -11  -1 1255.86  138.51
   3  11   2  111.62   75.77
  -3 -11  -2  170.76   63.10
   3  11   3  -95.04   58.82
  -3 -11  -3   73.24   44.60
   3  11   4   97.30   85.95
  -3 -11  -4  164.80  125.51
  -3 -11  -4  216.97   63.79
   3  11   5  235.93   98.69
  -3 -11  -5  381.77  151.67
  -3 -11  -5  423.55  117.02
   3  11   6   81.72   65.36
  -3 -11  -6  -45.05  157.78
  -3 -11  -6  -36.36   48.73
   3  11   7   49.53  135.72
  -3 -11  -7  -43.36  128.37
  -3 -11  -7  135.71   64.34
   3  11   8  252.69  104.10
  -3 -11  -8  194.29  137.28
  -3 -11  -8  135.29  132.55
   3  11   9  129.95   97.62
  -3 -11  -9    3.48  117.87
  -3 -11  -9   31.24   85.71
   3  11  10   61.19  111.14
  -3 -11 -10  148.82  148.52
  -3 -11 -10  163.28  113.19
   3  12  -3   94.01  100.72
  -3 -12   3   87.76   85.34
   3  12  -2  -42.96   80.35
  -3 -12   2   44.38   99.38
   3  12  -1   99.41  131.16
  -3 -12   1   39.91   65.53
   3  12   0   32.26   77.40
  -3 -12   0   80.74   63.27
   3  12   1 -114.99   72.33
  -3 -12  -1  120.50   59.49
   3  12   2  938.77  201.29
  -3 -12  -2 1534.58  168.64
   3  12   3   78.00  100.36
  -3 -12  -3  -21.32   49.17
   3  12   4  174.35   95.08
  -3 -12  -4  162.36  136.73
  -3 -12  -4  113.16   64.30
   3  12   5  172.38  149.17
  -3 -12  -5  273.98  151.30
  -3 -12  -5  154.24   74.37
   3  12   6  282.96  221.58
  -3 -12  -6  922.32  355.11
  -3 -12  -6  573.81  111.32
   3  12   7   18.07  140.82
  -3 -12  -7    1.88  143.08
  -3 -12  -7   71.50   66.72
   3  12   8  220.15  161.27
  -3 -12  -8 -131.63  248.35
  -3 -12  -8   82.58   78.23
   3  12   9  191.44  124.80
  -3 -12  -9  147.86  159.79
  -3 -12  -9   85.66   98.83
   3  13  -1  134.67  104.92
  -3 -13   1  161.93   89.06
   3  13   0   67.57   97.74
  -3 -13   0  112.41   76.04
   3  13   1  100.58   89.15
  -3 -13  -1   90.02   73.99
   3  13   2  113.21   84.23
  -3 -13  -2  -24.85  104.88
   3  13   3  198.57   86.57
  -3 -13  -3  -59.67   63.10
   3  13   4 -148.66   71.60
  -3 -13  -4   11.17  120.67
  -3 -13  -4   76.41   55.35
   3  13   5  -31.53   82.20
  -3 -13  -5  161.23  135.53
  -3 -13  -5   44.72  104.54
   3  13   6  161.15  178.51
  -3 -13  -6  354.64  178.48
  -3 -13  -6  106.52   85.94
  -3 -13  -7  276.47  220.20
   4 -10  -6   66.56   79.58
  -4  10   6   47.93   94.17
   4 -10  -5    0.76   67.36
  -4  10   5    2.95  130.93
   4 -10  -4  133.28   87.31
  -4  10   4   21.73  104.41
   4 -10  -3   33.71   83.31
  -4  10   3  246.20  121.98
   4 -10  -2  147.05   90.86
  -4  10   2  336.92  200.75
   4 -10  -1   45.21   81.68
  -4  10   1  184.64  131.20
   4 -10   0   51.41   81.75
  -4  10   0   23.71  152.10
   4 -10   1   91.66   88.62
  -4  10  -1  245.19  209.43
   4  -9  -8   38.07   75.61
  -4   9   8   39.48   93.33
   4  -9  -7   13.26   68.25
  -4   9   7   41.43   78.95
   4  -9  -6  -21.08   58.87
  -4   9   6   33.05   70.07
   4  -9  -5  187.62   77.47
  -4   9   5  103.52   94.05
   4  -9  -4  -21.14   62.23
  -4   9   4   75.94   75.35
   4  -9  -3   32.49   70.00
  -4   9   3   35.01   88.76
   4  -9  -2  326.01   99.40
  -4   9   2  375.02  223.96
   4  -9  -1  183.73   78.36
  -4   9   1  117.64  120.06
   4  -9   0    5.64  104.79
  -4   9   0  106.25  120.41
  -4   9  -1  322.74  329.97
  -4   9  -2  148.61  211.51
  -4   9  -3  277.00  392.32
  -4   9  -4  124.27  210.32
   4  -8  -9  -54.68   87.62
  -4   8   9  -93.68   87.75
   4  -8  -8  192.78  129.35
  -4   8   8   98.25   98.87
   4  -8  -7   -1.56   58.95
  -4   8   7   71.36  108.07
   4  -8  -6  -94.57   68.10
  -4   8   6 -117.09   77.66
   4  -8  -5  192.99   72.18
  -4   8   5  130.33   81.57
   4  -8  -4   82.62   66.34
  -4   8   4  195.16   79.16
   4  -8  -3  108.67   65.91
  -4   8   3   32.92  118.76
   4  -8  -2 1379.61  174.70
  -4   8   2 1093.28  225.10
   4  -8  -1   70.03   64.29
  -4   8   1  124.35   85.52
   4  -8   0  407.13   94.57
  -4   8   0  483.76  152.10
   4  -8   1   43.93   63.95
  -4   8  -1   84.30  174.19
  -4   8  -2  -15.84  129.11
  -4   8  -3  321.34  227.24
  -4   8  -4   90.76  280.11
   4  -8   5 -143.78  248.47
  -4   8  -5 -169.59  182.08
   4  -7 -10  -15.29   85.24
  -4   7  10  124.01   73.48
   4  -7  -9  463.47  113.98
  -4   7   9  354.93  126.56
   4  -7  -8  282.58  125.05
  -4   7   8   40.26  138.64
   4  -7  -7   75.92   65.66
  -4   7   7   26.02   73.89
   4  -7  -6  184.21  108.54
  -4   7   6  117.50   71.86
   4  -7  -5  218.16   67.51
  -4   7   5   91.11  111.90
   4  -7  -4   48.20   54.16
  -4   7   4  114.32   59.73
   4  -7  -3  142.03   53.85
  -4   7   3   46.45   62.48
   4  -7  -2 1277.21  144.57
  -4   7   2  993.47  171.35
   4  -7  -1  130.66   93.11
  -4   7   1   85.90   68.83
   4  -7   0  580.82   90.01
  -4   7   0  495.64  202.02
   4  -7   1  -37.73   87.16
  -4   7  -1 -206.71  144.65
  -4   7  -2  130.33  121.09
  -4   7  -3    4.19  108.60
  -4   7  -4   35.39  210.43
   4  -7   5   59.98  178.20
  -4   7  -5  -88.46  130.66
   4  -7   6  389.20  208.71
   4  -7   6   80.40  115.04
  -4   7  -6  289.79  169.42
   4  -7   7   37.74  184.71
  -4   7  -7   61.02  117.30
   4  -6 -11  133.96  109.16
   4  -6 -10  317.00  121.18
   4  -6  -9  -24.69   75.46
  -4   6   9  132.02   64.78
   4  -6  -8   14.20   57.66
  -4   6   8    4.75   60.95
   4  -6  -7   33.94   53.59
  -4   6   7   63.78  103.37
   4  -6  -6   40.40   49.06
  -4   6   6   19.52   60.26
   4  -6  -5   64.69   61.19
  -4   6   5  241.01   61.10
   4  -6  -4   -9.03   42.60
  -4   6   4   65.47   46.04
   4  -6  -3   47.54   41.95
  -4   6   3   -6.82   70.28
   4  -6  -2  791.12   88.87
  -4   6   2  520.01  149.97
   4  -6  -1 1186.85  175.35
  -4   6   1 1139.81  148.10
   4  -6   0   73.71   46.89
  -4   6   0  146.34   59.07
   4  -6   1  516.02   75.50
  -4   6  -1  617.27  117.31
  -4   6  -2  416.91  121.72
  -4   6  -3   39.15   86.26
  -4   6  -4   68.93  108.26
   4  -6   5  355.87  185.13
   4  -6   5  252.02  125.54
  -4   6  -5  392.40  275.88
   4  -6   6  197.67  243.57
   4  -6   6   31.96  162.76
  -4   6  -6  144.70  131.14
   4  -6   7  252.17  186.25
  -4   6  -7  151.03  121.36
   4  -6   8  167.76  159.92
   4  -5 -11   50.10   99.07
   4  -5 -10   32.33   84.51
   4  -5  -9   54.39   78.42
   4  -5  -8   11.98   61.41
  -4   5   8  -11.36   48.32
   4  -5  -7  -75.92   89.44
  -4   5   7   81.48   57.87
   4  -5  -6   41.84   47.76
  -4   5   6    3.65   86.74
   4  -5  -5  -53.08   60.56
  -4   5   5   37.38   48.82
   4  -5  -4    1.45   35.83
  -4   5   4   31.55   39.97
   4  -5  -3   60.31   64.20
  -4   5   3   49.96   40.96
   4  -5  -2  298.76   51.24
  -4   5   2  243.62   56.09
   4  -5  -1 1610.78  123.42
  -4   5   1 1471.34  205.01
   4  -5   0  520.26   64.73
  -4   5   0  380.06   65.37
   4  -5   1  337.23   52.38
  -4   5  -1  318.03  103.75
   4  -5   2  -17.19   32.69
  -4   5  -2   13.06   50.44
  -4   5  -3  336.40   96.31
  -4   5  -4  260.04  102.63
   4  -5   5  244.16  137.43
   4  -5   5  173.08   80.87
  -4   5  -5  167.41  119.85
   4  -5   6  684.40  172.18
   4  -5   6  185.86   97.84
  -4   5  -6  356.28  207.79
   4  -5   7  167.08  118.47
  -4   5  -7    6.57  148.66
   4  -5   8 1394.13  334.27
  -4   5  -8  225.85  120.36
   4  -5   9  205.58  279.06
   4  -4 -12  460.39  162.10
   4  -4 -11  -25.34   91.28
   4  -4 -10  217.44  109.43
   4  -4  -9   15.05   70.09
   4  -4  -8    2.07   60.48
   4  -4  -7  275.62   73.51
  -4   4   7  116.95   56.40
   4  -4  -6  380.97  116.73
  -4   4   6  339.64   76.89
   4  -4  -5   46.58   45.14
  -4   4   5  100.73   49.46
   4  -4  -4   96.49   36.07
  -4   4   4  -53.13   44.69
   4  -4  -3 1603.49  117.11
  -4   4   3 1529.20  133.63
   4  -4  -2 2144.95  144.49
  -4   4   2 1647.53  140.76
   4  -4  -1  576.39   57.11
  -4   4   1  554.28   95.76
   4  -4   0    7.83   26.92
  -4   4   0   31.50   50.45
   4  -4   1 1222.98   85.38
  -4   4  -1 1022.87   93.47
   4  -4   2   71.12   29.96
  -4   4  -2   57.55   37.67
  -4   4  -3  480.29   79.63
   4  -4   4  433.29  139.32
   4  -4   4  568.23  117.04
  -4   4  -4  465.49  138.74
   4  -4   5  577.70  203.27
   4  -4   5  323.76   52.01
  -4   4  -5  360.24  100.77
   4  -4   6  223.51  106.37
  -4   4  -6   72.55   81.13
   4  -4   7 1478.35  212.81
  -4   4  -7 1058.94  215.27
   4  -4   8  -20.77  103.91
  -4   4  -8  -36.60   97.24
   4  -4   9  215.16  122.84
   4  -4  10  -35.81   93.16
   4  -3 -12   -1.68   81.13
   4  -3 -11  131.69   98.06
   4  -3 -10  -23.72   75.84
   4  -3  -9  215.88  146.12
   4  -3  -8  160.34   78.39
   4  -3  -7  338.21   84.37
   4  -3  -6   62.25   51.55
   4  -3  -5  216.16   71.75
  -4   3   5   43.18   37.44
   4  -3  -4  776.88   81.22
  -4   3   4  841.96   89.57
   4  -3  -3 1538.42  110.18
  -4   3   3 1443.75  129.65
   4  -3  -2   31.75   25.33
  -4   3   2  -31.34   53.01
   4  -3  -1  -34.64   25.61
  -4   3   1   -2.03   28.61
   4  -3   0  175.55   29.20
  -4   3   0  141.52   34.13
   4  -3   1   13.11   21.68
  -4   3  -1   11.62   24.55
   4  -3   2   21.81   28.65
  -4   3  -2   -0.72   36.95
   4  -3   3  -21.09   57.82
  -4   3  -3   -0.57   24.57
   4  -3   4  536.14  107.88
   4  -3   4  441.20   45.13
  -4   3  -4  463.75   57.61
   4  -3   5  127.73   65.60
   4  -3   5   24.90   24.75
  -4   3  -5  -28.33   57.55
   4  -3   6   46.84   57.06
  -4   3  -6   13.85   47.65
   4  -3   7   13.16   77.20
  -4   3  -7   37.58   88.57
   4  -3   8  207.31   88.19
  -4   3  -8   82.75  104.48
  -4   3  -8  146.76   63.98
   4  -3   9   91.04  125.38
   4  -3  10  181.59   99.56
   4  -2 -12  347.66  105.91
   4  -2 -12  402.83  138.04
   4  -2 -11   95.73  100.28
   4  -2 -10   83.48  132.30
   4  -2  -9  -90.77   78.35
   4  -2  -8   17.62   62.04
   4  -2  -7  209.07   77.45
   4  -2  -6  448.10  143.52
   4  -2  -5   18.88   45.05
   4  -2  -4  301.65   59.18
   4  -2  -3  169.14   32.06
  -4   2   3   42.78   29.36
   4  -2  -2  275.77   35.21
  -4   2   2  230.28   39.84
   4  -2  -1   81.52   23.32
  -4   2   1   82.67   43.20
   4  -2   0   46.28   20.72
  -4   2   0   88.78   25.83
   4  -2   1  124.70   27.83
  -4   2  -1  106.30   23.27
   4  -2   2  418.30   61.60
  -4   2  -2  193.05   24.85
   4  -2   3   42.51   70.59
  -4   2  -3    2.25   24.53
   4  -2   4  330.82   75.07
  -4   2  -4  278.98   40.99
   4  -2   5   89.48   47.88
  -4   2  -5   88.72   33.25
   4  -2   6    5.93   54.78
  -4   2  -6   49.00   24.21
  -4   2  -6   -5.58   10.87
   4  -2   7   35.14   86.87
  -4   2  -7   80.00   39.97
  -4   2  -7   32.05   32.36
   4  -2   8   24.79   51.95
  -4   2  -8    7.14   66.16
  -4   2  -8    1.74   20.56
   4  -2   9   91.03   57.20
  -4   2  -9   63.68   74.12
  -4   2  -9   57.45   27.01
   4  -2  10  136.36   92.67
   4  -2  11   64.26   81.89
   4  -1 -12  105.45   74.75
   4  -1 -12   60.92  108.93
   4  -1 -11   55.85   60.18
   4  -1 -11   72.99   93.76
   4  -1 -10   73.98   54.33
   4  -1 -10  -70.72  123.74
   4  -1  -9    8.03    7.00
   4  -1  -9   86.89   62.69
   4  -1  -8  442.59   96.78
   4  -1  -7  322.46   76.43
   4  -1  -6  498.33   92.25
   4  -1  -5  902.20  109.66
   4  -1  -4  346.39   62.01
   4  -1  -3 1180.63   94.51
   4  -1  -2  253.38   38.39
   4  -1  -1  277.35   28.46
   4  -1   0  838.26   67.25
   4  -1   0  637.06   37.36
   4  -1   1  123.72   40.99
   4  -1   1  139.42   14.77
   4  -1   2 1477.22  100.27
   4  -1   2  917.39   35.36
   4  -1   3   20.98   31.29
   4  -1   4   42.35   34.73
   4  -1   5  337.01   70.76
   4  -1   6 1210.28  120.78
   4  -1   7  337.19  107.72
  -4   1  -7  403.03   64.03
   4  -1   8   86.88   44.27
  -4   1  -8   80.70   33.27
  -4   1  -8   41.69   24.20
   4  -1   9   80.34   67.21
  -4   1  -9   81.54   30.48
  -4   1  -9   12.15   29.15
   4  -1  10    5.39   62.73
   4  -1  11  155.19  148.72
   4   0 -12  114.64   96.46
   4   0 -12  197.07  120.91
   4   0 -11   33.61   62.07
   4   0 -11  139.38   93.61
   4   0 -10  191.73   67.30
   4   0 -10  457.57  172.47
   4   0  -9  133.19   54.80
   4   0  -9  115.95   82.54
   4   0  -8   97.00   45.98
   4   0  -8  132.27   70.09
   4   0  -7    6.94    9.49
   4   0  -7  -47.08   34.09
   4   0  -7  101.35   51.45
   4   0  -6  286.09   17.67
   4   0  -6  625.23  107.19
   4   0  -5  393.85   36.17
   4   0  -5  794.12  115.46
   4   0  -4  166.59   20.71
   4   0  -4  171.96   74.30
   4   0  -3  334.36   46.57
   4   0  -3  498.38   49.69
   4   0  -2   67.81   30.59
   4   0  -2   15.50   30.78
   4   0  -1   54.03   23.19
   4   0  -1   14.58   21.30
   4   0   0   23.57   23.89
   4   0   0  -26.40   22.05
   4   0   1 3486.19  195.77
   4   0   1 4248.63  164.85
   4   0   1 4240.92  168.70
   4   0   2 2835.84  151.47
   4   0   3  382.37   56.95
   4   0   4  264.35   75.18
   4   0   5 3047.15  206.94
   4   0   6 1696.09  129.02
   4   0   7  218.68   73.83
   4   0   8  -50.01   52.50
  -4   0  -8   19.98   17.79
  -4   0  -8    0.85   32.52
   4   0   9  -65.72   54.92
  -4   0  -9    7.08   20.96
  -4   0  -9    3.95   58.48
   4   0  10  129.26   68.85
  -4   0 -10   25.83   23.71
  -4   0 -10   38.44   65.93
   4   0  11   87.56   79.87
   4   0  12  124.83   81.50
   4   1 -12  -90.82   99.10
   4   1 -12   40.74  101.22
   4   1 -11  154.56   59.77
   4   1 -11  348.16  120.53
   4   1 -10 -120.02   46.08
   4   1 -10  388.88  159.91
   4   1  -9  134.20   87.18
   4   1  -9   95.42   96.50
   4   1  -8   72.50   48.76
   4   1  -8  186.62   84.35
   4   1  -7  -43.71   38.87
   4   1  -7   -1.19   58.30
   4   1  -6   87.63   40.24
   4   1  -6  149.67   58.93
   4   1  -5  122.43   56.87
   4   1  -5   80.49   49.91
   4   1  -4  223.14   58.76
   4   1  -4  191.01   48.14
   4   1  -3  163.99   28.17
   4   1  -3   87.06   29.84
   4   1  -2  153.40   21.97
   4   1  -2  134.35   26.74
   4   1  -2  130.27   41.40
   4   1  -1  452.13   34.94
   4   1  -1  385.57   46.05
   4   1  -1  414.54   34.15
   4   1   0  594.43   72.51
   4   1   0  593.08   41.30
   4   1   1  317.68   42.76
   4   1   1  553.28   39.48
   4   1   2  240.57   32.21
   4   1   2  133.36    7.96
   4   1   3  563.23   86.96
   4   1   4  473.59   51.33
   4   1   5  314.80   73.42
   4   1   6   78.99   37.20
  -4  -1  -7  319.63   22.33
  -4  -1  -7  716.00   36.73
   4   1   8  -45.48   48.69
  -4  -1  -8   19.08   20.02
  -4  -1  -8  -10.06   32.20
   4   1   9   72.83   55.98
  -4  -1  -9   -4.74   16.62
  -4  -1  -9    1.07   71.76
   4   1  10  -86.09   88.70
  -4  -1 -10   -0.78   31.58
  -4  -1 -10  -29.49   53.87
   4   1  11  126.96   74.62
   4   1  12   83.20   76.52
   4   2 -12  203.59  132.08
   4   2 -12  123.78  215.67
   4   2 -11  126.42   72.23
   4   2 -11  210.84  130.59
   4   2 -10  257.43   79.72
   4   2 -10  680.42  221.61
   4   2  -9   36.48   60.54
   4   2  -9  510.15  101.81
   4   2  -8  357.21   60.49
   4   2  -8  564.16  112.94
   4   2  -7  181.49   46.58
   4   2  -7  399.50   70.33
   4   2  -6   52.24   31.71
   4   2  -6   47.44   46.08
   4   2  -5  391.82   44.89
   4   2  -4  443.26   42.85
   4   2  -3  342.37   63.39
   4   2  -2   -5.26   21.04
   4   2  -1  230.02   25.62
   4   2  -1  170.35   22.29
   4   2   0  150.82   28.80
  -4  -2   0  209.84   31.07
   4   2   1  514.29   48.24
  -4  -2  -1  541.47   51.35
   4   2   2  305.43   39.71
   4   2   2  234.51   14.07
  -4  -2  -2  219.36   40.67
   4   2   3  227.00   41.35
  -4  -2  -3  176.67   42.98
   4   2   4   10.56   28.79
  -4  -2  -4  -41.44   32.85
   4   2   5  803.28   71.80
  -4  -2  -5  643.51   82.74
   4   2   6  452.47   70.30
  -4  -2  -6  436.97   73.29
   4   2   7 1930.48  166.47
  -4  -2  -7 1757.16  243.31
  -4  -2  -7 1464.50   93.57
   4   2   8 1770.45  172.95
  -4  -2  -8 1395.08  172.63
  -4  -2  -8 1377.45  164.97
   4   2   9  -14.67   48.13
  -4  -2  -9   21.47   56.50
  -4  -2  -9   -6.93   16.51
  -4  -2  -9  148.91   82.16
   4   2  10 -162.56   79.57
  -4  -2 -10    9.36   20.12
  -4  -2 -10   41.97   65.94
   4   2  11  246.39   82.57
  -4  -2 -11   48.30  132.55
   4   2  12   56.05   71.44
   4   3 -11  181.47   84.61
   4   3 -11  395.05  141.35
   4   3 -10  149.85   79.60
   4   3 -10  483.78  125.93
   4   3  -9  313.85   88.96
   4   3  -9  700.08  119.18
   4   3  -8   59.35   53.86
   4   3  -8  159.26   68.23
   4   3  -7  348.84  106.04
   4   3  -6  560.48  110.72
   4   3  -5  337.76   55.37
   4   3  -4  759.97   68.07
   4   3  -3  585.19   51.59
  -4  -3   2  355.78   46.01
  -4  -3   1   46.53   18.46
  -4  -3   1   55.34   26.41
  -4  -3   0  308.53   29.36
  -4  -3   0  375.93   50.68
   4   3   1 1578.72   95.69
   4   3   1 1596.81   72.60
  -4  -3  -1 1703.53  109.55
  -4  -3  -1 1780.44  106.84
   4   3   2  137.65   33.68
   4   3   2  115.20   17.82
  -4  -3  -2  138.19   38.05
  -4  -3  -2  158.29   27.49
   4   3   3 1328.23   96.05
   4   3   3 1173.94   47.26
  -4  -3  -3 1524.90  106.67
   4   3   4  347.47   51.80
  -4  -3  -4  332.13   57.36
  -4  -3  -4  280.53   28.55
   4   3   5   82.16   61.67
   4   3   5   38.70   22.90
  -4  -3  -5   34.26   69.87
  -4  -3  -5   57.22   22.61
   4   3   6  738.14   82.90
  -4  -3  -6  543.45   69.74
  -4  -3  -6  667.10   46.28
   4   3   7  773.20   90.69
  -4  -3  -7  494.65   84.23
  -4  -3  -7  965.65  107.47
   4   3   8  166.13   74.18
  -4  -3  -8    5.58   58.92
  -4  -3  -8  -22.67   33.48
   4   3   9  264.49   76.07
  -4  -3  -9  254.88   95.09
  -4  -3  -9  284.21   84.59
   4   3  10  268.34   98.02
  -4  -3 -10  102.74   81.55
  -4  -3 -10   22.18   51.64
  -4  -3 -10   32.85   80.77
   4   3  11  145.79   63.22
  -4  -3 -11   95.79   89.93
  -4  -3 -11   40.69   27.91
  -4  -3 -11   -8.44  133.05
   4   3  12    0.76   58.16
   4   4 -11  141.96   84.46
   4   4 -11  259.70  133.20
   4   4 -10   55.05   69.68
   4   4 -10  198.58   91.42
   4   4  -9  147.42   69.81
   4   4  -8  619.36  100.10
   4   4  -7  337.17   71.31
   4   4  -6 2053.91  176.93
   4   4  -5   53.20   39.00
   4   4  -4  175.39   42.15
   4   4  -3  -33.94   24.57
  -4  -4   3   26.02   12.73
  -4  -4   3   30.14   37.21
  -4  -4   2   31.05   20.37
  -4  -4   2  -50.60   31.79
  -4  -4   1  533.82   46.28
  -4  -4   1  878.33   64.39
  -4  -4   0  322.90   37.89
  -4  -4   0  275.48   32.30
   4   4   1  780.51   86.13
   4   4   1  748.72   48.91
  -4  -4  -1  656.33   83.22
  -4  -4  -1  840.57   76.95
   4   4   2   74.19   28.46
   4   4   2  107.54   35.11
  -4  -4  -2    8.36   44.13
  -4  -4  -2   40.91   21.21
   4   4   3 1003.33   78.69
   4   4   3  915.63   55.25
  -4  -4  -3  961.31   82.55
  -4  -4  -3 1107.51   81.39
   4   4   4   53.75   33.19
   4   4   4   18.98   27.57
  -4  -4  -4   73.75   35.73
  -4  -4  -4    7.89   31.48
   4   4   5  279.41   52.34
  -4  -4  -5  185.65   57.71
  -4  -4  -5  365.24   54.68
   4   4   6  543.81   73.89
  -4  -4  -6  597.80  121.47
  -4  -4  -6  440.04   50.12
   4   4   7  475.15  124.28
  -4  -4  -7  430.43   99.35
  -4  -4  -7  605.03   73.82
   4   4   8 1983.80  189.61
  -4  -4  -8 2354.37  250.58
  -4  -4  -8 1942.77  203.38
   4   4   9   10.79   53.24
  -4  -4  -9   89.02   56.73
  -4  -4  -9   66.18   60.94
   4   4  10  203.31   66.17
  -4  -4 -10   52.19   77.74
  -4  -4 -10   89.92   99.61
  -4  -4 -11  185.22   94.30
  -4  -4 -11   -6.09   47.94
  -4  -4 -11  157.23  147.46
  -4  -4 -12  458.04  158.02
  -4  -4 -12  144.69  225.46
   4   5 -10   43.67   69.56
   4   5  -9  145.09   75.58
   4   5  -8   44.24   58.95
   4   5  -7  337.37   81.17
   4   5  -6  -14.50   43.36
   4   5  -5   54.09   42.02
   4   5  -4  469.72   62.28
  -4  -5   4  556.26   36.44
   4   5  -3  836.82   64.29
  -4  -5   3  871.24   73.03
  -4  -5   3  729.73  101.27
   4   5  -2  227.53   45.48
  -4  -5   2  177.24   46.50
  -4  -5   2  206.02   64.70
  -4  -5   1    4.27   24.98
  -4  -5   1  -18.29   47.44
   4   5   0  310.69   42.62
  -4  -5   0  306.75   44.68
   4   5   1  198.36   31.09
  -4  -5  -1  130.27   40.27
  -4  -5  -1  177.02   33.89
   4   5   2  267.79   39.99
  -4  -5  -2  300.69   49.01
  -4  -5  -2  266.92   36.33
   4   5   3   77.40   48.64
  -4  -5  -3  181.75   45.84
  -4  -5  -3  207.21   48.94
   4   5   4  736.31   67.45
  -4  -5  -4  849.17  135.09
  -4  -5  -4  881.88   60.76
   4   5   5   14.09   35.59
   4   5   5   15.38   26.78
  -4  -5  -5   64.49   38.35
  -4  -5  -5  113.91   44.94
   4   5   6  165.72   51.43
   4   5   6  177.43   42.52
  -4  -5  -6  210.09   57.84
  -4  -5  -6  318.19   45.28
   4   5   7  131.68   40.22
  -4  -5  -7  131.08   65.21
  -4  -5  -7  313.91   80.63
   4   5   8  207.82   60.84
  -4  -5  -8  198.53   75.61
  -4  -5  -8  207.52  105.28
   4   5   9  396.74   93.13
  -4  -5  -9  719.33  133.47
  -4  -5  -9  608.37  185.93
  -4  -5 -10  214.26  116.36
  -4  -5 -10  257.97  125.29
  -4  -5 -11   58.04   80.45
  -4  -5 -11  126.71  167.69
  -4  -5 -12  336.31  134.86
  -4  -5 -12  235.12  155.91
   4   6 -10   83.02   84.99
   4   6  -9  114.58   82.67
   4   6  -8  255.43   91.90
   4   6  -7   80.43   64.41
   4   6  -6  377.26   81.75
   4   6  -5  -32.63   61.39
  -4  -6   5   -3.22   12.61
  -4  -6   5    6.51   54.33
   4   6  -4   28.78   31.80
  -4  -6   4 -174.41   76.06
   4   6  -3   10.79   70.85
  -4  -6   3 -183.02   79.62
   4   6  -2  259.17   50.15
  -4  -6   2  213.43   43.47
  -4  -6   2  226.77   46.63
   4   6  -1  949.33   94.96
  -4  -6   1  784.87  124.12
  -4  -6   1 1213.15   99.37
   4   6   0  816.06   77.23
  -4  -6   0  880.73  132.65
  -4  -6   0 1105.40  121.13
   4   6   1  471.75   59.55
  -4  -6  -1  563.80  100.13
  -4  -6  -1  652.07   85.79
   4   6   2   41.59   50.66
  -4  -6  -2   65.81   38.60
  -4  -6  -2   22.80   29.82
   4   6   3  144.07   62.70
  -4  -6  -3  262.40   53.90
  -4  -6  -3  244.84   39.98
   4   6   4  559.66   68.85
  -4  -6  -4  517.03   82.04
  -4  -6  -4  642.09   84.69
   4   6   5  243.93   48.19
  -4  -6  -5  323.09   68.70
  -4  -6  -5  288.50   48.56
   4   6   6   22.10   37.64
  -4  -6  -6  185.71   53.96
  -4  -6  -6   21.86   40.26
   4   6   7  174.91   90.33
  -4  -6  -7  289.17   74.51
  -4  -6  -7  334.35   70.00
   4   6   8  117.31   83.22
  -4  -6  -8   80.61   68.21
  -4  -6  -8  215.71   72.39
   4   6   9  167.85   83.04
  -4  -6  -9  329.38   94.21
  -4  -6  -9  364.00  159.26
   4   6  10  186.14   87.03
  -4  -6 -10  455.87  114.63
  -4  -6 -10  573.58  157.33
  -4  -6 -11  188.09  134.27
  -4  -6 -11  295.30  155.58
  -4  -6 -12   77.35  221.68
  -4  -6 -12  136.48  136.42
   4   7  -9   72.66   87.66
   4   7  -8   68.72   78.98
   4   7  -7  157.31   76.48
   4   7  -6   72.06   63.54
  -4  -7   6  176.01   67.99
   4   7  -5  160.74  100.46
  -4  -7   5   75.49   56.13
  -4  -7   5  284.90   75.11
   4   7  -4  336.10   70.97
  -4  -7   4  236.35   91.40
  -4  -7   4  239.88   80.89
   4   7  -3  753.06  160.85
  -4  -7   3  683.39   93.05
  -4  -7   3  752.91   85.49
   4   7  -2  210.94   66.02
  -4  -7   2  225.76   86.12
  -4  -7   2  372.57   64.92
   4   7  -1  193.36   51.83
  -4  -7   1  162.25   52.61
  -4  -7   1  304.92   52.90
   4   7   0  368.28   64.53
  -4  -7   0  498.90   70.26
  -4  -7   0  534.19   62.62
   4   7   1  105.16   74.32
  -4  -7  -1  193.80   89.19
  -4  -7  -1  239.31   45.50
   4   7   2  440.51   66.22
  -4  -7  -2  378.77   81.02
  -4  -7  -2  495.05   58.43
   4   7   3  643.15  124.61
  -4  -7  -3  712.13  106.46
  -4  -7  -3  835.23   75.33
   4   7   4 1187.40  169.06
  -4  -7  -4 1194.65  149.67
  -4  -7  -4 1333.82  150.07
   4   7   5   72.44   42.50
  -4  -7  -5   47.22   54.52
  -4  -7  -5   82.66   63.69
   4   7   6   95.12   59.02
  -4  -7  -6  308.43   71.62
  -4  -7  -6  283.99   88.12
   4   7   7  107.04   51.35
  -4  -7  -7   96.80   71.25
  -4  -7  -7  210.74   90.25
   4   7   8  144.61   69.05
  -4  -7  -8  276.50   89.51
  -4  -7  -8  269.55   79.42
   4   7   9   -8.17   63.47
  -4  -7  -9  182.07   68.15
  -4  -7  -9    3.11   86.70
   4   7  10  205.70   92.30
  -4  -7 -10   28.90   81.51
  -4  -7 -10  146.60  197.55
   4   7  11   64.66   68.46
  -4  -7 -11  -96.78   87.05
  -4  -7 -11  206.13  133.25
  -4  -7 -12  600.21  268.47
  -4  -7 -12  193.17  213.82
   4   8  -8  163.43   92.97
   4   8  -7   91.11   72.48
   4   8  -6  -59.78   58.94
  -4  -8   6   11.99   37.15
  -4  -8   6   12.67   68.39
   4   8  -5   30.20  106.05
  -4  -8   5   37.99   50.41
  -4  -8   5   85.97   71.85
   4   8  -4  166.40   74.95
  -4  -8   4  146.70   62.74
  -4  -8   4  160.96   59.75
   4   8  -3  123.24  107.16
  -4  -8   3  174.93   64.91
  -4  -8   3  208.66   87.23
   4   8  -2  579.60   91.75
  -4  -8   2  507.18  144.40
  -4  -8   2  576.70   91.37
   4   8  -1   30.83   43.52
  -4  -8   1  -63.18   75.77
  -4  -8   1   24.47   41.85
   4   8   0  135.69   49.34
  -4  -8   0   42.95   86.01
  -4  -8   0   43.87   43.06
   4   8   1   31.07   44.17
  -4  -8  -1  -29.73   48.48
  -4  -8  -1   22.53   35.65
   4   8   2  125.11   52.68
  -4  -8  -2  132.09   63.60
  -4  -8  -2  163.63   45.95
   4   8   3   74.41   42.32
  -4  -8  -3  -63.66   49.80
  -4  -8  -3   12.50   37.50
   4   8   4    7.32   45.46
  -4  -8  -4   45.30   61.28
  -4  -8  -4   59.70   37.97
   4   8   5  162.23   71.25
  -4  -8  -5  414.84   93.28
  -4  -8  -5  423.50   69.96
   4   8   6   20.67   62.05
  -4  -8  -6   98.48  119.98
  -4  -8  -6  238.26   56.91
   4   8   7  199.04   72.37
  -4  -8  -7  142.56   83.64
  -4  -8  -7  264.28   70.46
   4   8   8   58.14   70.50
  -4  -8  -8  117.70  116.10
  -4  -8  -8  105.94   70.77
   4   8   9    6.16   96.73
  -4  -8  -9   39.65   70.84
  -4  -8  -9  -82.03   75.69
   4   8  10  192.12   86.22
  -4  -8 -10  -43.23   85.00
  -4  -8 -10  164.99  132.05
   4   8  11   -1.89  177.53
  -4  -8 -11  147.02   95.34
  -4  -8 -11  121.67  167.49
   4   8  12  -13.58   95.51
  -4  -8 -12  240.19  116.86
  -4  -8 -12  213.40  266.45
   4   9  -7    2.98   74.97
  -4  -9   7    7.19   72.19
   4   9  -6  100.10   88.40
  -4  -9   6  120.83   91.21
   4   9  -5   52.93  101.42
  -4  -9   5   20.82   57.95
  -4  -9   5  -30.07   69.58
   4   9  -4   87.32   81.80
  -4  -9   4  116.44  131.34
  -4  -9   4  260.50   66.29
   4   9  -3 -213.37   83.18
  -4  -9   3   56.13   66.02
  -4  -9   3   54.28   55.22
   4   9  -2  713.39  117.93
  -4  -9   2  688.32  148.17
  -4  -9   2  635.24  106.05
   4   9  -1  352.31   92.11
  -4  -9   1  459.10  124.75
  -4  -9   1  569.56  123.13
   4   9   0  133.82   64.55
  -4  -9   0   24.91   80.51
  -4  -9   0  138.54   79.49
   4   9   1   32.15   52.93
  -4  -9  -1   64.80   72.28
  -4  -9  -1   50.98   44.11
   4   9   2    0.09   44.12
  -4  -9  -2   35.18   65.65
  -4  -9  -2  -14.76   40.06
   4   9   3  218.13   55.18
  -4  -9  -3   45.99   72.58
  -4  -9  -3   -2.91   49.18
   4   9   4  409.08   87.63
  -4  -9  -4  490.88  108.21
  -4  -9  -4  415.40   73.31
   4   9   5  142.86   55.17
  -4  -9  -5  -42.84  106.07
  -4  -9  -5  -16.00   52.40
   4   9   6  -25.74   64.84
  -4  -9  -6  179.73   82.10
  -4  -9  -6  108.06   57.14
   4   9   7   12.99   66.02
  -4  -9  -7  135.86   77.75
  -4  -9  -7  -71.71   89.44
   4   9   8  108.67   79.44
  -4  -9  -8   77.81   92.72
  -4  -9  -8  235.27   80.83
   4   9   9  -63.42   72.73
  -4  -9  -9   -1.07   77.51
  -4  -9  -9   15.41   83.39
   4   9  10   86.90   87.65
  -4  -9 -10   46.35   94.89
  -4  -9 -10   66.92  122.24
   4   9  11  163.02  164.00
  -4  -9 -11  -93.47  133.73
  -4  -9 -11   20.16  148.00
   4  10  -6  100.57  107.56
  -4 -10   6  492.67  187.17
   4  10  -5   11.11  113.93
  -4 -10   5  -17.04  118.75
  -4 -10   5  -29.18   78.18
   4  10  -4  -38.37   70.98
  -4 -10   4   -2.76   90.07
  -4 -10   4   77.97   57.71
   4  10  -3  427.90  109.48
  -4 -10   3  412.13  160.25
  -4 -10   3  412.35  108.88
   4  10  -2 1041.83  175.38
  -4 -10   2  822.12  372.32
  -4 -10   2 1216.32  153.95
   4  10  -1  -63.49  106.44
  -4 -10   1  219.09  146.75
  -4 -10   1   28.15   51.87
   4  10   0  265.09   93.08
  -4 -10   0  202.27  130.81
  -4 -10   0  359.89  111.79
   4  10   1   34.70   65.92
  -4 -10  -1  -74.03   97.47
  -4 -10  -1  159.15   54.17
   4  10   2  -38.42   55.03
  -4 -10  -2  252.51   90.00
  -4 -10  -2   39.53   49.69
   4  10   3   87.96   65.20
  -4 -10  -3  341.61   99.04
  -4 -10  -3   19.14   57.29
   4  10   4   38.96   95.63
  -4 -10  -4   77.28   76.06
  -4 -10  -4  -15.74   45.67
   4  10   5    1.27   66.32
  -4 -10  -5  102.02   88.08
  -4 -10  -5  107.89   59.82
   4  10   6   70.57   65.90
  -4 -10  -6 -130.89   79.30
  -4 -10  -6  -18.43   88.12
   4  10   7  378.46  178.47
  -4 -10  -7  465.15  136.58
  -4 -10  -7  236.08   92.37
   4  10   8   65.02   71.00
  -4 -10  -8   73.19   88.71
  -4 -10  -8  -85.84   66.15
   4  10   9   26.97   84.19
  -4 -10  -9   19.96   86.89
  -4 -10  -9  -29.02   79.03
   4  10  10   72.25  146.51
  -4 -10 -10 -144.63  149.70
  -4 -10 -10  115.44  118.68
   4  11  -5   95.10   96.55
   4  11  -4   23.54   81.28
  -4 -11   4  100.40  107.14
  -4 -11   4  -87.26   63.69
   4  11  -3   65.92   86.72
  -4 -11   3   57.59  202.68
  -4 -11   3   81.67   81.99
   4  11  -2  432.60  122.46
  -4 -11   2  328.27  267.08
  -4 -11   2  222.03   98.34
   4  11  -1  171.83  106.42
  -4 -11   1  301.67  157.16
  -4 -11   1  307.90   85.29
   4  11   0  803.00  165.57
  -4 -11   0 1232.58  394.75
  -4 -11   0 1048.41  211.52
   4  11   1  116.29   70.08
  -4 -11  -1   43.30  182.93
  -4 -11  -1   38.68   59.84
   4  11   2   24.79   73.38
  -4 -11  -2  -30.81  119.35
  -4 -11  -2  154.10   60.02
   4  11   3  -41.84   64.90
  -4 -11  -3   35.01  107.55
  -4 -11  -3   76.71   55.38
   4  11   4   98.53   78.59
  -4 -11  -4  230.34  118.76
  -4 -11  -4   41.90   58.42
   4  11   5  113.80   76.99
  -4 -11  -5   25.70  114.91
  -4 -11  -5  104.19   60.18
   4  11   6   80.87   96.22
  -4 -11  -6  131.00  124.63
  -4 -11  -6  225.57   79.60
   4  11   7   62.92   98.79
  -4 -11  -7   64.48  182.05
  -4 -11  -7  134.13   75.46
   4  11   8   13.95  142.87
  -4 -11  -8  -67.95  120.85
  -4 -11  -8  111.34   79.03
   4  11   9   18.44  101.98
  -4 -11  -9  -36.28  186.23
  -4 -11  -9   64.33   92.38
   4  12  -3  -48.79  100.75
  -4 -12   3   22.96  215.02
  -4 -12   3  134.81   88.64
   4  12  -2   95.01  127.45
  -4 -12   2  330.33  181.10
  -4 -12   2  304.87  100.44
   4  12  -1    5.37   81.90
  -4 -12   1  -12.20  125.33
  -4 -12   1  -72.28  103.03
   4  12   0  175.93   93.63
  -4 -12   0   59.86  151.07
  -4 -12   0  173.90   76.10
   4  12   1  106.95   75.69
  -4 -12  -1  384.22  199.47
  -4 -12  -1  -25.59   64.39
   4  12   2   46.33   73.82
  -4 -12  -2 -189.13  189.42
  -4 -12  -2   28.73   59.83
   4  12   3  -73.86   72.04
  -4 -12  -3   28.12  122.63
  -4 -12  -3   30.54   93.18
   4  12   4   38.17   78.20
  -4 -12  -4 -115.93  121.07
  -4 -12  -4   -0.23   55.74
   4  12   5   98.91   82.64
  -4 -12  -5  173.12  218.77
  -4 -12  -5   32.95   63.53
   4  12   6  174.38  113.79
  -4 -12  -6  290.01  167.09
  -4 -12  -6  218.79  146.62
   4  12   7  127.52  108.46
  -4 -12  -7  111.03  142.62
  -4 -12  -7   50.86   82.59
   4  12   8  -83.27  112.81
  -4 -12  -8 -112.50  157.68
   4  13   0  398.77  140.11
  -4 -13   0  122.29  211.43
  -4 -13   0  474.38  113.19
   4  13   1  -44.93   95.54
  -4 -13  -1  151.25  148.76
  -4 -13  -1  160.33   76.03
   4  13   2   66.63   87.04
  -4 -13  -2   29.80  226.99
  -4 -13  -2   46.62   70.13
   4  13   3  -92.72  142.82
  -4 -13  -3  404.03  157.90
  -4 -13  -3   50.13   70.99
   4  13   4  168.63  134.43
  -4 -13  -4  400.30  208.68
  -4 -13  -4  285.44   97.23
   4  13   5  -19.03   94.27
  -4 -13  -5  -34.20  161.19
  -4 -13  -5  192.02  110.91
   4  13   6   29.70  100.77
  -4 -13  -6   92.63  157.55
  -4 -13  -6   64.13   72.45
   5  -9  -5  357.32  177.98
  -5   9   5  194.88  142.51
   5  -9  -4  438.14  121.51
  -5   9   4  113.93  156.23
   5  -9  -3   19.94   80.82
  -5   9   3    9.95  107.94
   5  -9  -2  185.40  110.34
  -5   9   2  349.41  171.49
   5  -9  -1   22.96  128.97
  -5   9   1  219.12  241.49
   5  -9   0   42.23   87.05
  -5   9   0  138.28  188.93
  -5   9  -1  354.41  486.07
   5  -8  -7  104.62   88.01
  -5   8   7   21.49  164.79
   5  -8  -6  144.30   98.60
  -5   8   6  216.45  121.13
   5  -8  -5  266.76  150.46
  -5   8   5  236.94  119.61
   5  -8  -4   53.41   74.82
  -5   8   4  227.26  151.75
   5  -8  -3  557.95  121.43
  -5   8   3  226.10  153.99
   5  -8  -2  216.46   99.98
  -5   8   2  213.76  207.32
   5  -8  -1  496.79  191.86
  -5   8   1  651.51  208.86
   5  -8   0  180.45   86.15
  -5   8   0  128.19  169.79
   5  -8   1  127.06  145.51
  -5   8  -1  255.93  193.18
  -5   8  -2   67.64  173.49
  -5   8  -3   56.32  305.48
   5  -7  -9  140.86   94.27
  -5   7   9   21.66   77.03
   5  -7  -8  115.06  112.38
  -5   7   8  272.43  155.77
   5  -7  -7  117.69   77.41
  -5   7   7  -78.17   76.62
   5  -7  -6  155.39   84.36
  -5   7   6  124.86   98.55
   5  -7  -5  100.80   74.72
  -5   7   5  147.73   95.62
   5  -7  -4   59.72   69.93
  -5   7   4  110.92   81.33
   5  -7  -3  325.27   86.15
  -5   7   3   80.80  164.45
   5  -7  -2  489.97  107.27
  -5   7   2  365.20  135.04
   5  -7  -1   58.28   97.51
  -5   7   1   51.44   89.33
   5  -7   0   14.35   57.93
  -5   7   0  190.04  153.26
   5  -7   1  -12.30   61.25
  -5   7  -1  -34.77  113.65
  -5   7  -2  158.06  149.34
  -5   7  -3  161.97  267.51
  -5   7  -4   23.54  164.21
   5  -7   5  -82.18  196.45
   5  -6  -9  -46.29   94.30
   5  -6  -8    8.19  131.29
  -5   6   8   74.82   66.92
   5  -6  -7   39.61   72.52
  -5   6   7   68.16  116.03
   5  -6  -6  247.47  116.69
  -5   6   6   83.82   85.33
   5  -6  -5   15.30   61.71
  -5   6   5   30.25   70.87
   5  -6  -4   15.32   55.78
  -5   6   4  157.78  114.46
   5  -6  -3  314.32   79.71
  -5   6   3  303.33   98.64
   5  -6  -2   49.45   49.55
  -5   6   2   10.02   65.58
   5  -6  -1 1115.86  206.08
  -5   6   1  823.62  170.24
   5  -6   0   35.07   52.16
  -5   6   0   71.27   78.51
   5  -6   1   63.54   53.66
  -5   6  -1  142.33   98.65
  -5   6  -2   70.22  112.36
  -5   6  -3  439.28  175.92
   5  -6   4  226.57  169.39
  -5   6  -4  -92.16  215.37
   5  -6   5  454.32  215.35
  -5   6  -5  130.88  191.67
   5  -6   6  251.40  228.35
   5  -5 -10   73.30  111.39
   5  -5  -9  187.91  121.28
   5  -5  -8  252.32  183.50
   5  -5  -7  134.65   85.32
  -5   5   7  113.69   67.68
   5  -5  -6  116.82   67.61
  -5   5   6   -6.64   94.05
   5  -5  -5  370.49   84.29
  -5   5   5  298.81   98.31
   5  -5  -4  273.72   77.50
  -5   5   4  218.00   95.05
   5  -5  -3  136.06   57.69
  -5   5   3  197.28   81.54
   5  -5  -2  246.98   59.38
  -5   5   2   58.10   76.92
   5  -5  -1  311.05   67.95
  -5   5   1  481.11  146.44
   5  -5   0  114.76   52.81
  -5   5   0   73.70   73.80
   5  -5   1   -4.97   36.36
  -5   5  -1   15.71   62.90
  -5   5  -2  160.97  158.78
  -5   5  -3  -30.90  148.09
   5  -5   4  119.82  135.45
   5  -5   4  145.34   97.06
  -5   5  -4    0.59  104.58
   5  -5   5  271.05  155.39
  -5   5  -5   28.16  121.34
   5  -5   6  115.67  251.31
   5  -5   7  965.02  283.62
   5  -4 -11   38.24  109.16
   5  -4 -10  188.35  127.73
   5  -4  -9   20.39   90.39
   5  -4  -8  -64.49   89.02
   5  -4  -7  184.76  150.61
   5  -4  -6   27.30   64.70
  -5   4   6   32.19   50.91
   5  -4  -5  128.73  109.70
  -5   4   5  149.57   60.83
   5  -4  -4  145.35   59.37
  -5   4   4  162.55   71.66
   5  -4  -3  -19.85   38.43
  -5   4   3   40.87   52.00
   5  -4  -2 1793.26  224.94
  -5   4   2 1626.78  216.11
   5  -4  -1   40.51   36.78
  -5   4   1   18.54   86.58
   5  -4   0  457.04   65.08
  -5   4   0  475.20   98.57
   5  -4   1  -21.74   33.53
  -5   4  -1  -32.81   55.31
   5  -4   2   57.74   36.26
  -5   4  -2  220.12   99.60
   5  -4   3  289.37  118.09
  -5   4  -3  133.15   74.58
   5  -4   4   19.84  143.31
   5  -4   4    7.37   51.09
  -5   4  -4  -27.05   63.07
   5  -4   5  -62.63  105.54
   5  -4   5  -56.34   49.37
  -5   4  -5    2.68   59.72
   5  -4   6  509.30  141.87
  -5   4  -6  126.50  140.74
   5  -4   7  152.94  158.88
   5  -4   8  103.17  138.70
   5  -3 -11  248.53  121.88
   5  -3 -10  160.71   98.15
   5  -3  -9   81.20   74.87
   5  -3  -8  -69.80   83.30
   5  -3  -7  166.81   90.07
   5  -3  -6    4.76   93.93
   5  -3  -5  144.34   66.57
   5  -3  -4  -22.88   75.97
  -5   3   4   48.39   41.01
   5  -3  -3  358.79  106.09
  -5   3   3  397.59   66.22
   5  -3  -2 2111.20  225.82
  -5   3   2 2226.77  210.18
   5  -3  -1 2395.29  181.67
  -5   3   1 2643.92  234.09
   5  -3   0  -17.59   27.28
  -5   3   0   72.26   43.92
   5  -3   1 1097.52   89.86
  -5   3  -1 1187.65  128.90
   5  -3   2 1031.66  137.62
   5  -3   2  477.52   75.38
  -5   3  -2  527.72   73.22
   5  -3   3  415.76  152.45
  -5   3  -3  171.56   68.05
   5  -3   4  260.41   96.56
  -5   3  -4  106.96   46.50
   5  -3   5   94.42   67.30
  -5   3  -5   -1.43   14.31
   5  -3   6  315.33  157.84
   5  -3   7  399.29  154.99
   5  -3   8  314.25  135.67
   5  -3   9  282.66  122.30
   5  -2 -11   48.03   65.89
   5  -2 -11  -72.07   95.59
   5  -2 -10  106.57  101.24
   5  -2  -9  109.90   87.32
   5  -2  -8   32.47   68.84
   5  -2  -7  164.78   77.74
   5  -2  -6  142.68   82.94
   5  -2  -5  -32.80   96.59
   5  -2  -4  228.25   64.03
   5  -2  -3 2416.60  195.05
   5  -2  -2   13.40   33.73
   5  -2  -1  216.91   39.28
   5  -2   0  895.95   86.45
  -5   2   0  560.51   51.06
   5  -2   1 1067.76  129.46
   5  -2   1  911.46   82.44
   5  -2   2  -35.74   51.37
   5  -2   2  -18.90   14.56
  -5   2  -2    8.28   13.42
   5  -2   3   86.26   57.00
   5  -2   3    6.33   12.89
   5  -2   4  385.78   85.78
   5  -2   5  139.97   96.91
   5  -2   6   -5.10   71.00
   5  -2   7   37.83   70.84
   5  -2   8   39.46  115.52
   5  -2   9   25.88   71.56
   5  -2  10  227.64  115.60
   5  -1 -11  195.26  123.39
   5  -1 -11  114.39  113.66
   5  -1 -10  448.19  105.94
   5  -1 -10  647.65  149.27
   5  -1  -9   69.00   63.98
   5  -1  -9  219.09   84.30
   5  -1  -8   13.24   16.26
   5  -1  -8   16.38   62.67
   5  -1  -7   40.57   23.22
   5  -1  -7   23.53   57.87
   5  -1  -6  178.93   34.70
   5  -1  -6  206.43   64.33
   5  -1  -5  184.84   57.80
   5  -1  -4 1569.03  141.82
   5  -1  -3  136.13   38.00
   5  -1  -3  149.56   54.94
   5  -1  -2  100.08   36.55
   5  -1  -2   51.30   55.87
   5  -1  -1  791.69   83.27
   5  -1  -1  760.78   64.27
   5  -1   0 1307.64  118.86
   5  -1   0 1164.01   69.90
   5  -1   1 2157.25  160.51
   5  -1   1 1525.81   75.02
   5  -1   2 1461.58  107.13
   5  -1   2 1002.02   47.76
   5  -1   3   -5.94   38.14
   5  -1   4  329.56   86.59
   5  -1   5  517.04  106.11
   5  -1   6   39.90   56.66
   5  -1   7  284.54  119.09
   5  -1   8   18.17   55.29
   5  -1   9   32.54   66.57
   5  -1  10   77.14   72.12
   5   0 -11  -62.24   66.85
   5   0 -11  -99.92  102.04
   5   0 -10   54.07   62.77
   5   0 -10   99.11   90.52
   5   0  -9    5.67   54.50
   5   0  -9  131.63   76.89
   5   0  -8  -17.51   44.92
   5   0  -8  194.97   99.48
   5   0  -7  141.37   53.66
   5   0  -7  167.78   73.14
   5   0  -6  -21.87   17.91
   5   0  -6  -49.53   38.51
   5   0  -6    1.28   49.90
   5   0  -5   61.08   16.00
   5   0  -5  -15.39   38.09
   5   0  -5  128.49   48.41
   5   0  -4   73.21   29.70
   5   0  -4   23.88   31.40
   5   0  -4  135.16   41.55
   5   0  -3  355.60   64.32
   5   0  -3  518.58   58.84
   5   0  -2   89.28   34.57
   5   0  -2   19.65   24.38
   5   0  -1   56.84   27.54
   5   0  -1  148.81   25.03
   5   0   0  184.98   34.04
   5   0   0  169.69   35.74
   5   0   0  176.47   40.65
   5   0   1  741.47   65.98
   5   0   1  913.58   57.85
   5   0   2   95.06   43.18
   5   0   2   33.38    7.08
   5   0   3  285.54   64.84
   5   0   4  505.74   78.28
   5   0   5   61.99   50.02
   5   0   6  236.62   61.00
   5   0   7  205.66   99.11
   5   0   8   12.23   51.77
   5   0   9  134.79   64.68
   5   0  10  -30.23   78.27
   5   0  11   64.31   94.68
   5   1 -11    0.76   46.01
   5   1 -11  -29.83   92.98
   5   1 -10   34.35   46.22
   5   1 -10   98.74   90.63
   5   1  -9   12.34   40.82
   5   1  -9   78.66   77.74
   5   1  -8   59.78   73.10
   5   1  -8  -24.12   73.23
   5   1  -7   18.16   40.14
   5   1  -7  -51.23   63.59
   5   1  -6   56.96   40.53
   5   1  -6   13.98   60.27
   5   1  -5   -4.66   10.97
   5   1  -5   28.15   33.59
   5   1  -5   39.97   46.10
   5   1  -4  441.93   56.88
   5   1  -4  459.40   76.30
   5   1  -3   36.74   19.03
   5   1  -3   76.18   31.20
   5   1  -3   94.52   38.95
   5   1  -2  386.27   56.74
   5   1  -2  467.85   69.49
   5   1  -2  663.29   61.91
   5   1  -1   81.03   37.65
   5   1  -1   38.21   17.25
   5   1  -1   51.85   29.05
   5   1   0  113.34   30.65
   5   1   0   95.70   19.45
   5   1   0   89.25   25.46
   5   1   1  819.58   73.63
   5   1   1 1006.38   50.60
   5   1   2  563.69   61.64
   5   1   2  488.81   20.87
   5   1   2  509.08   15.77
   5   1   3  277.50   74.12
   5   1   4  382.03   61.24
   5   1   5 1256.31  118.63
   5   1   6  529.83   84.66
   5   1   7   80.44   53.28
   5   1   8   89.75   52.81
   5   1   9  110.13   93.98
   5   1  10  160.07   99.25
   5   1  11  129.29   90.10
   5   2 -11   66.91   66.72
   5   2 -11   50.97  175.14
   5   2 -10    2.10   53.58
   5   2 -10   33.34   95.36
   5   2  -9   29.01   54.83
   5   2  -9  149.12   96.54
   5   2  -8  111.21   87.40
   5   2  -8  115.71   89.23
   5   2  -7  129.84   64.10
   5   2  -7   70.06   76.84
   5   2  -6   19.58   31.51
   5   2  -6   14.33   55.18
   5   2  -5  117.94   34.17
   5   2  -5   80.42   48.72
   5   2  -4   76.67   39.38
   5   2  -4  -66.77   33.43
   5   2  -3  140.24   34.07
   5   2  -3   61.37   34.80
   5   2  -2  145.88   25.51
   5   2  -2  164.56   32.31
   5   2  -2  196.06   33.11
   5   2  -1 1935.01  110.67
   5   2  -1 2135.60  106.03
   5   2  -1 2193.27  110.78
   5   2   0  -17.12   42.28
   5   2   0   61.85   18.85
   5   2   1   94.86   34.11
   5   2   1  115.91   31.93
   5   2   2   80.73   36.03
   5   2   2   55.14   15.18
   5   2   3   85.96   39.48
  -5  -2  -3   19.72   40.60
   5   2   4  481.46   72.90
  -5  -2  -4  464.92   73.59
   5   2   5 1255.25  122.32
  -5  -2  -5 1308.47  137.38
   5   2   6  234.46   55.91
  -5  -2  -6  141.45   64.30
   5   2   7   48.67   70.92
   5   2   8  -32.35   47.57
   5   2   9  388.19  174.55
   5   2  10  111.58   78.03
   5   2  11 -114.84  137.96
   5   3 -11   34.23  117.08
   5   3 -10   25.91   56.88
   5   3 -10   50.02  100.38
   5   3  -9   45.30   52.13
   5   3  -9  -11.61   91.12
   5   3  -8   29.13   49.81
   5   3  -8   72.58   68.75
   5   3  -7   70.48   48.21
   5   3  -7  102.27   65.75
   5   3  -6  114.98   47.58
   5   3  -5  107.58   43.09
   5   3  -4  298.06   50.83
   5   3  -3  100.96   34.13
  -5  -3   0  192.70   41.26
   5   3   1  383.02   80.07
  -5  -3  -1  413.69   56.85
   5   3   2 1811.97  201.41
   5   3   2 2060.65  121.41
  -5  -3  -2 1909.63  150.38
   5   3   3  157.29   79.59
   5   3   3  161.18   25.39
  -5  -3  -3  188.44   50.88
   5   3   4 1892.06  160.78
  -5  -3  -4 1685.80  159.82
   5   3   5   81.90   49.19
  -5  -3  -5   80.11   52.49
   5   3   6  590.18   90.29
  -5  -3  -6  625.90  102.35
   5   3   7   76.32   51.89
  -5  -3  -7  -70.00   55.80
   5   3   8  145.23   74.20
  -5  -3  -8  179.82   81.87
   5   3   9  294.85  158.31
  -5  -3  -9  493.37  118.45
   5   3  10  -42.32   64.45
  -5  -3 -10   54.03   77.29
   5   3  11  145.84  142.35
   5   3  12  206.83   99.86
   5   4 -10   29.29   61.56
   5   4 -10  121.03  106.77
   5   4  -9   22.79   55.63
   5   4  -9   44.82   73.79
   5   4  -8   -0.80   48.18
   5   4  -7   36.38   48.21
   5   4  -6   64.06   47.76
   5   4  -5  714.87   84.44
   5   4  -4   87.03   40.37
   5   4  -3  241.75   43.22
  -5  -4   2  -23.25   40.93
  -5  -4   1  172.60   61.74
  -5  -4   0  233.66   41.11
  -5  -4   0  387.41   46.23
   5   4   1 1115.71  133.86
   5   4   1 1133.87  103.07
  -5  -4  -1  851.68   76.11
  -5  -4  -1 1211.93  111.71
   5   4   2  168.85   48.17
   5   4   2  198.04   31.85
  -5  -4  -2  155.06   60.36
  -5  -4  -2  231.79   48.07
   5   4   3   99.19   37.87
  -5  -4  -3   65.28   83.89
  -5  -4  -3  123.05   18.65
   5   4   4  182.59   48.09
   5   4   4   86.88   32.83
  -5  -4  -4  183.48   63.09
  -5  -4  -4   87.68   20.46
   5   4   5  260.90   53.57
  -5  -4  -5  135.29   50.19
  -5  -4  -5  145.81   30.01
  -5  -4  -6  308.78   58.09
  -5  -4  -6  174.51   21.30
   5   4   7  588.08  109.18
  -5  -4  -7  663.54  101.60
   5   4   8  213.72   68.90
  -5  -4  -8  171.33   87.31
  -5  -4  -8   18.49   52.18
   5   4   9    6.78   94.23
  -5  -4  -9    6.57   72.70
  -5  -4  -9    7.15   16.18
  -5  -4  -9   40.77   35.18
   5   4  10  119.44   81.95
  -5  -4 -10  222.85  109.22
   5   4  11  453.56  108.07
  -5  -4 -11  141.57  147.57
  -5  -4 -12   84.93  123.28
   5   5 -10  113.17   78.44
   5   5 -10  160.05  103.04
   5   5  -9  -45.38   62.93
   5   5  -8  779.47  125.49
   5   5  -7    1.86   46.86
   5   5  -6   96.08   54.66
   5   5  -5   76.50   46.54
   5   5  -4  367.61   93.15
   5   5  -3  111.26   40.28
  -5  -5   3  148.13   31.13
   5   5  -2   27.34   28.46
  -5  -5   2    1.66   36.08
  -5  -5   2   25.64   44.79
  -5  -5   1  -19.48   35.10
  -5  -5   1  -20.42   42.29
   5   5   0 1271.03  107.23
  -5  -5   0 1381.95  165.85
  -5  -5   0 1878.18  188.41
   5   5   1   62.21   31.43
   5   5   1   53.11   45.64
  -5  -5  -1   20.63   37.01
  -5  -5  -1   25.04   28.30
   5   5   2  887.53   81.66
   5   5   2  839.28  122.46
  -5  -5  -2  862.05   98.27
  -5  -5  -2 1066.32   84.35
   5   5   3  113.22   40.94
  -5  -5  -3  155.69   48.68
  -5  -5  -3   85.37   33.47
   5   5   4  379.50   64.66
   5   5   4  323.94   50.69
  -5  -5  -4  409.13   75.58
  -5  -5  -4  541.95   73.80
   5   5   5   92.24   44.24
   5   5   5    8.47   45.01
  -5  -5  -5   10.95   86.73
  -5  -5  -5   32.82   49.20
   5   5   6  196.89   62.00
   5   5   6  152.35   57.88
  -5  -5  -6  258.72   82.85
  -5  -5  -6  263.60   51.30
   5   5   7  -36.21   49.10
   5   5   7   17.03   69.67
  -5  -5  -7   70.52   68.20
  -5  -5  -7   83.43   63.22
   5   5   8  857.74  125.36
  -5  -5  -8 1057.82  264.50
  -5  -5  -8  693.99  193.05
   5   5   9  223.04   70.37
  -5  -5  -9   80.16   78.74
  -5  -5  -9  106.99  122.67
  -5  -5 -10  -58.43   80.88
  -5  -5 -10  -97.09  117.59
  -5  -5 -11  -33.58  100.49
  -5  -5 -12   -0.00  106.24
   5   6  -9  151.41   84.95
   5   6  -8   -1.14   59.70
   5   6  -7  122.56   69.27
   5   6  -6   16.69   51.15
   5   6  -5   -9.77   44.82
   5   6  -4  -13.00   38.37
  -5  -6   4  -10.65   27.36
  -5  -6   4   50.52   49.09
   5   6  -3  -15.14   32.52
  -5  -6   3  -11.09   31.51
  -5  -6   3   79.60   52.49
   5   6  -2   86.53   33.44
  -5  -6   2   75.86   40.41
  -5  -6   2  215.80   61.36
   5   6  -1  266.75   64.63
  -5  -6   1  324.51   84.34
  -5  -6   1  445.00   61.18
   5   6   0  179.74   44.91
  -5  -6   0  135.38   44.16
  -5  -6   0   24.76   85.66
   5   6   1   78.55   39.10
  -5  -6  -1  145.45   43.95
  -5  -6  -1   37.37   74.56
   5   6   2  281.69   56.28
  -5  -6  -2  220.65   57.85
  -5  -6  -2  379.71   87.53
   5   6   3  141.68   43.71
  -5  -6  -3  144.13   52.36
  -5  -6  -3  231.98   73.22
   5   6   4   63.72   52.48
  -5  -6  -4   23.86   42.92
  -5  -6  -4  -71.68   57.62
   5   6   5   81.14   41.13
  -5  -6  -5  142.06   84.74
  -5  -6  -5  124.49   77.93
   5   6   6   17.13   56.81
  -5  -6  -6  107.53   55.95
  -5  -6  -6  -13.41   48.17
  -5  -6  -7  573.68  127.39
  -5  -6  -7  836.75  133.60
   5   6   8  -43.55   75.47
  -5  -6  -8  -41.23  124.88
   5   6   9   40.24  116.16
  -5  -6  -9  181.75  102.77
  -5  -6  -9  254.80  151.94
  -5  -6 -10  135.44  113.09
  -5  -6 -10   83.38   98.63
  -5  -6 -11   54.10   85.68
   5   7  -8  334.85  114.26
   5   7  -7  100.07   76.41
   5   7  -6  412.14   93.61
   5   7  -5   20.09   48.24
  -5  -7   5    3.17   25.78
   5   7  -4  228.97   52.49
  -5  -7   4  105.74   59.56
  -5  -7   4  133.85   83.45
   5   7  -3   46.04   38.02
  -5  -7   3   46.79   38.31
  -5  -7   3  103.19   66.76
   5   7  -2   57.50   54.20
  -5  -7   2   73.85   67.92
  -5  -7   2   81.51   49.79
   5   7  -1  -39.16   42.84
  -5  -7   1   60.99   43.39
  -5  -7   1  -14.93   61.81
   5   7   0  355.83   71.01
  -5  -7   0  320.78   80.21
  -5  -7   0  637.17   84.70
   5   7   1  -35.42   42.57
  -5  -7  -1  -33.37   46.33
  -5  -7  -1  -24.35   45.12
   5   7   2   -1.79   71.69
  -5  -7  -2   60.08   52.24
  -5  -7  -2   83.27   44.97
   5   7   3  668.48   88.53
  -5  -7  -3  630.72  107.62
  -5  -7  -3  729.44   93.68
   5   7   4  141.64   56.96
  -5  -7  -4  234.60   72.60
  -5  -7  -4  275.06   63.01
   5   7   5    8.73   44.80
  -5  -7  -5   35.54   80.69
  -5  -7  -5   57.75   52.43
   5   7   6  126.97   69.81
  -5  -7  -6  351.19   78.67
  -5  -7  -6  371.79   84.65
   5   7   7   52.15   76.74
  -5  -7  -7   57.30   63.56
  -5  -7  -7   76.74   76.94
   5   7   8  496.19  189.02
  -5  -7  -8  920.36  159.88
  -5  -7  -8 1233.07  199.21
   5   7   9  -76.71  115.52
  -5  -7  -9  225.61   91.72
  -5  -7  -9  227.29  167.39
   5   7  10  103.16   93.66
  -5  -7 -10  456.46  166.28
  -5  -7 -10 -108.20  108.22
  -5  -7 -11  233.05  143.47
  -5  -7 -11  123.00  251.93
   5   8  -7  186.06   90.00
   5   8  -6  -46.03   60.78
   5   8  -5  -75.87   50.48
  -5  -8   5   -7.16   36.30
  -5  -8   5   98.89   72.16
   5   8  -4   55.94   51.93
  -5  -8   4   36.77   40.24
  -5  -8   4  305.99  121.29
   5   8  -3   36.42   57.72
  -5  -8   3  -22.82   51.21
  -5  -8   3   48.88   63.29
   5   8  -2  184.75   64.44
  -5  -8   2  181.09  105.98
  -5  -8   2   56.61   56.91
   5   8  -1  280.42   73.92
  -5  -8   1  172.44   76.87
  -5  -8   1  340.23   80.91
   5   8   0   63.84   97.26
  -5  -8   0   96.26   64.78
  -5  -8   0  208.61   60.61
   5   8   1  190.54   67.33
  -5  -8  -1  131.14   66.83
  -5  -8  -1  146.32   58.96
   5   8   2   51.70   50.31
  -5  -8  -2  -18.41   56.23
  -5  -8  -2  124.06   75.10
   5   8   3  207.95  106.23
  -5  -8  -3  270.00   83.41
  -5  -8  -3  344.90  106.46
   5   8   4  131.06   57.96
  -5  -8  -4  151.11  105.63
  -5  -8  -4    6.18  107.08
  -5  -8  -4   68.44   60.01
   5   8   5  -42.88   49.69
  -5  -8  -5   76.99   61.42
  -5  -8  -5  -54.76   56.12
   5   8   6  142.70  116.34
  -5  -8  -6  230.75   85.72
  -5  -8  -6  115.74   79.62
   5   8   7   52.43  105.96
  -5  -8  -7  102.55  114.94
  -5  -8  -7  116.53   87.65
   5   8   8   -1.07   62.97
  -5  -8  -8   36.76   65.41
  -5  -8  -8  -72.49  126.30
   5   8   9  254.38  110.50
  -5  -8  -9  384.87  118.67
  -5  -8  -9  603.31  162.35
   5   8  10   51.65   84.60
  -5  -8 -10  -27.03   85.96
  -5  -8 -10   73.85  109.13
  -5  -8 -11  -28.05   99.84
  -5  -8 -11  181.76  134.30
   5   9  -6   75.75   76.38
  -5  -9   6   19.39   80.88
   5   9  -5  193.10   75.56
  -5  -9   5  113.12  100.06
   5   9  -4  245.37   71.06
  -5  -9   4   94.79   90.02
  -5  -9   4  563.82  109.34
   5   9  -3   -2.88   68.31
  -5  -9   3   73.84   76.21
  -5  -9   3  119.44   58.33
   5   9  -2  385.35   87.31
  -5  -9   2   49.49   97.96
  -5  -9   2  354.37  138.94
   5   9  -1   10.08   91.78
  -5  -9   1  118.73  119.75
  -5  -9   1   25.28   62.04
   5   9   0   55.56   55.81
  -5  -9   0   72.88   71.84
  -5  -9   0  -42.01   52.21
   5   9   1  117.80   72.07
  -5  -9  -1  117.44   85.92
  -5  -9  -1  142.56   60.72
   5   9   2  155.75  106.01
  -5  -9  -2   13.79  136.02
  -5  -9  -2  121.64   58.86
   5   9   3   41.37   63.97
  -5  -9  -3  128.32   75.95
  -5  -9  -3   68.37   92.89
   5   9   4   76.98   55.52
  -5  -9  -4  -11.93   67.16
  -5  -9  -4 -114.55   84.37
   5   9   5   48.31   61.46
  -5  -9  -5   78.14   75.26
  -5  -9  -5   21.13   64.59
   5   9   6  112.41   75.72
  -5  -9  -6  -30.28  132.34
  -5  -9  -6  118.76   79.20
   5   9   7  216.84  118.05
  -5  -9  -7  183.80  122.24
  -5  -9  -7  764.25  136.95
   5   9   8   83.73  124.18
  -5  -9  -8  117.84   88.45
  -5  -9  -8    6.19  105.10
   5   9   9    9.66   84.01
  -5  -9  -9   32.44   84.71
  -5  -9  -9  194.28  111.46
   5   9  10  188.28  132.45
  -5  -9 -10  -59.84   80.05
  -5  -9 -10    7.82  188.84
   5  10  -5  228.84   89.04
  -5 -10   5  409.69  186.78
   5  10  -4   80.87  141.77
  -5 -10   4   95.83   95.57
  -5 -10   4  185.29   98.65
   5  10  -3  135.59   89.76
  -5 -10   3   82.95  194.20
  -5 -10   3  182.96   73.62
   5  10  -2  136.61  149.48
  -5 -10   2  152.42  129.68
  -5 -10   2  238.46   90.40
   5  10  -1   64.63   77.60
  -5 -10   1  -22.39  110.95
  -5 -10   1  274.82  109.13
   5  10   0  121.38   81.90
  -5 -10   0    1.82  108.66
  -5 -10   0  111.20   66.49
   5  10   1  103.58   76.89
  -5 -10  -1  114.00  113.50
  -5 -10  -1  131.81   65.92
   5  10   2   54.81   65.25
  -5 -10  -2   86.13  100.10
  -5 -10  -2   43.66   59.94
   5  10   3  233.91   73.64
  -5 -10  -3  -15.33  105.32
  -5 -10  -3   24.74   66.20
   5  10   4   24.47   68.29
  -5 -10  -4  -47.69   93.40
  -5 -10  -4   73.83   63.60
   5  10   5  278.05  131.04
  -5 -10  -5  123.55  103.12
  -5 -10  -5   97.51   84.23
   5  10   6  161.65   95.16
  -5 -10  -6  212.33  104.18
  -5 -10  -6  109.68   90.66
   5  10   7  300.96  202.16
  -5 -10  -7  186.30  127.67
  -5 -10  -7  590.53  194.39
   5  10   8   66.82   90.29
  -5 -10  -8   48.43  103.42
  -5 -10  -8  115.58  110.97
   5  10   9   33.06  117.41
  -5 -10  -9  155.86  116.70
  -5 -10  -9  350.52  207.18
   5  11  -4  -20.26   88.67
  -5 -11   4  109.29   89.94
   5  11  -3    8.59  101.78
  -5 -11   3   73.76  149.08
  -5 -11   3  195.61   76.96
   5  11  -2 1068.57  220.00
  -5 -11   2  853.58  341.08
  -5 -11   2 1391.28  204.48
   5  11  -1  -18.59   89.84
  -5 -11   1  108.73  219.92
  -5 -11   1  110.17   73.27
   5  11   0  309.39  134.37
  -5 -11   0  366.09  327.43
  -5 -11   0  636.89  113.74
   5  11   1   73.02  118.97
  -5 -11  -1   57.78  191.47
  -5 -11  -1   36.54   64.59
   5  11   2   21.73   71.65
  -5 -11  -2  108.28  199.19
  -5 -11  -2   56.00   64.12
   5  11   3   60.88   81.27
  -5 -11  -3  185.93  130.58
  -5 -11  -3   59.02  113.14
   5  11   4 -132.97  120.01
  -5 -11  -4   53.76  114.27
  -5 -11  -4   83.31   68.34
   5  11   5  193.83   81.68
  -5 -11  -5  116.04  117.16
  -5 -11  -5 -103.96   77.04
   5  11   6  302.34  142.45
  -5 -11  -6  552.82  261.84
  -5 -11  -6  592.30  199.48
   5  11   7  463.39  182.03
  -5 -11  -7  600.83  188.65
  -5 -11  -7  591.55  160.09
   5  11   8  209.25  230.78
  -5 -11  -8  246.43  157.84
  -5 -11  -8  396.84  158.07
   5  12  -2   -0.42  109.30
  -5 -12   2  166.79  255.84
  -5 -12   2  113.75   89.41
   5  12  -1  -93.46   87.84
  -5 -12   1  -18.89  146.00
  -5 -12   1   29.56   72.54
   5  12   0   35.26   89.80
  -5 -12   0  -84.03  156.61
  -5 -12   0   86.33   73.18
   5  12   1   95.69   96.38
  -5 -12  -1  193.74  176.68
  -5 -12  -1  191.98   86.62
   5  12   2  117.66   86.04
  -5 -12  -2  100.72  149.16
  -5 -12  -2    8.85   71.24
   5  12   3   55.86   76.71
  -5 -12  -3   15.59  193.46
  -5 -12  -3  -97.49   98.08
   5  12   4   33.00   92.01
  -5 -12  -4   54.07  142.56
  -5 -12  -4   20.88   72.78
   5  12   5   34.16   90.70
  -5 -12  -5   40.52  145.04
  -5 -12  -5   54.99   82.15
   5  12   6  116.24  121.02
  -5 -12  -6  339.15  173.43
  -5 -12  -6  121.79  109.42
   5  12   7   54.48  157.02
  -5 -12  -7  541.27  282.90
  -5 -12  -7  376.49  130.47
   6  -8  -3   68.43  107.60
  -6   8   3  373.55  284.45
   6  -8  -2   83.42   96.81
  -6   8   2  180.98  182.29
   6  -8  -1  -10.10   72.03
  -6   8   1  158.78  247.22
   6  -7  -6  308.66  129.19
  -6   7   6  192.61  229.82
   6  -7  -5   92.42   98.86
  -6   7   5  201.94  130.10
   6  -7  -4   40.84  139.06
  -6   7   4  315.86  225.00
   6  -7  -3  190.80  174.08
  -6   7   3  361.21  197.62
   6  -7  -2  -53.75   85.67
  -6   7   2  -86.33  227.57
   6  -7  -1  503.48  135.05
  -6   7   1  574.50  282.16
   6  -7   0  169.90  139.98
  -6   7   0  421.07  341.21
   6  -7   1   61.10   77.88
  -6   7  -1  184.47  176.25
  -6   7  -2   83.77  163.39
   6  -6  -8  185.02  129.66
   6  -6  -7  117.09  107.00
   6  -6  -6   84.07   87.35
  -6   6   6  -44.37   76.23
   6  -6  -5  -29.97  127.01
  -6   6   5  161.50  135.22
   6  -6  -4  216.04  153.03
  -6   6   4  291.49  147.89
   6  -6  -3 -122.09  115.96
  -6   6   3   65.27  195.22
   6  -6  -2  158.66  126.99
  -6   6   2  105.49  163.98
   6  -6  -1   -5.27   64.14
  -6   6   1  100.04  219.92
   6  -6   0   64.54  110.53
  -6   6   0  244.14  166.06
   6  -6   1   -3.99   85.95
  -6   6  -1   19.93  126.75
  -6   6  -2  194.17  252.39
   6  -6   3  362.11  257.59
   6  -6   4  734.19  557.23
   6  -5  -8   25.14  100.68
   6  -5  -7  194.69  122.99
   6  -5  -6  -48.17   85.08
   6  -5  -5   87.13   86.95
  -6   5   5  176.10   91.05
   6  -5  -4   69.42   74.19
  -6   5   4   18.39   81.04
   6  -5  -3  -11.77   57.75
  -6   5   3   72.77   97.28
   6  -5  -2    5.56   60.14
  -6   5   2  171.64  110.52
   6  -5  -1   58.53   60.24
  -6   5   1  152.59  205.43
   6  -5   0  154.48   91.40
  -6   5   0  -58.59  137.54
   6  -5   1  -19.96   49.07
  -6   5  -1  -52.36  116.95
   6  -5   2 -327.35  141.37
  -6   5  -2  223.88  159.22
   6  -5   3  482.50  157.18
  -6   5  -3   10.02   78.33
   6  -5   4  154.06  186.21
   6  -5   5   86.55  267.38
   6  -5   6 -114.59  159.38
   6  -4  -9  -16.17  131.43
   6  -4  -8  237.02  112.10
   6  -4  -7  109.32   89.49
   6  -4  -6  -14.77  130.59
   6  -4  -5  132.49   86.43
   6  -4  -4  186.85   81.72
   6  -4  -3   42.04   64.66
  -6   4   3   58.98   70.87
   6  -4  -2   58.62   49.23
  -6   4   2  -70.59   66.91
   6  -4  -1  -13.29   72.03
  -6   4   1   91.87  123.49
   6  -4   0   92.84   92.69
  -6   4   0  238.91   96.77
   6  -4   1  214.34   95.34
   6  -4   1   29.06   40.94
  -6   4  -1  -22.36   67.87
   6  -4   2   -7.71   97.28
  -6   4  -2   -7.65   50.18
   6  -4   3   96.29  107.07
  -6   4  -3  -25.40   32.13
   6  -4   4 -159.60  150.83
   6  -4   5  106.62  124.86
   6  -4   6  -13.64  160.92
   6  -4   7  322.85  219.06
   6  -3 -10  -55.45  141.09
   6  -3  -9   41.51  128.04
   6  -3  -8  144.82  139.01
   6  -3  -7  313.75  103.33
   6  -3  -6  597.08  124.98
   6  -3  -5  109.64  137.11
   6  -3  -4  214.05   87.43
   6  -3  -3  143.94   67.05
   6  -3  -2  216.06   62.08
   6  -3  -1  103.96   47.05
   6  -3   0  114.83   74.88
   6  -3   0   47.91   39.46
   6  -3   1   25.90   76.86
   6  -3   1   78.99   54.92
   6  -3   2  -27.19   83.50
   6  -3   2   50.10   41.78
   6  -3   3   71.43   92.25
   6  -3   3   34.66   22.13
   6  -3   4  172.77  102.04
   6  -3   5  247.59  112.77
   6  -3   6  195.89  149.59
   6  -3   7   -7.78  161.98
   6  -3   8   39.94  112.94
   6  -2 -10  139.39   89.21
   6  -2 -10   28.17  176.71
   6  -2  -9   69.33   91.43
   6  -2  -8   36.21   55.45
   6  -2  -8   -6.11  120.60
   6  -2  -7   -6.02   46.86
   6  -2  -7  -97.22   94.29
   6  -2  -6  206.45   77.51
   6  -2  -6  374.26   85.24
   6  -2  -5   65.13   59.90
   6  -2  -4  456.62   99.32
   6  -2  -4  734.45  108.43
   6  -2  -3  412.15   88.16
   6  -2  -3  527.72  145.78
   6  -2  -2  111.66   55.10
   6  -2  -2  -63.74   79.10
   6  -2  -1  533.10  104.36
   6  -2  -1  542.39   71.83
   6  -2   0  418.19   94.60
   6  -2   0  374.98   53.68
   6  -2   1   18.31   58.39
   6  -2   1   -3.43   25.46
   6  -2   2  598.13  135.54
   6  -2   2  149.70   24.27
   6  -2   3   58.56   62.87
   6  -2   4   36.02   95.93
   6  -2   5  -92.81  102.25
   6  -2   6  305.69  191.14
   6  -2   7   57.14   94.52
   6  -2   8  159.20  108.93
   6  -1 -10  104.56  148.99
   6  -1 -10  317.87  178.78
   6  -1  -9  328.97  111.34
   6  -1  -9  602.33  131.17
   6  -1  -8  -33.38   60.74
   6  -1  -8   90.21   67.54
   6  -1  -7   47.11   23.17
   6  -1  -7   21.16   64.17
   6  -1  -7  163.55   67.04
   6  -1  -6  176.97   46.08
   6  -1  -6  247.88  116.75
   6  -1  -5  320.03   65.17
   6  -1  -5  544.85   92.15
   6  -1  -4  468.74   76.89
   6  -1  -4  786.12  105.61
   6  -1  -3  676.57   89.60
   6  -1  -3  717.15   92.89
   6  -1  -2 1793.89  172.96
   6  -1  -2 2020.79  263.80
   6  -1  -1    4.58   47.10
   6  -1  -1   49.95   39.76
   6  -1   0  811.06  144.26
   6  -1   0  902.80   75.37
   6  -1   1  976.69   99.64
   6  -1   1  780.09   59.57
   6  -1   2  255.20   48.23
   6  -1   2   37.65   13.11
   6  -1   3  181.18   83.43
   6  -1   4   61.40   72.76
   6  -1   5   26.07   64.60
   6  -1   6  130.86   82.34
   6  -1   7  222.38   92.98
   6  -1   8   46.39   76.16
   6  -1   9  175.05  111.31
   6   0 -10  123.94  120.92
   6   0 -10   36.97  156.64
   6   0  -9  162.21   81.16
   6   0  -9  194.94   99.10
   6   0  -8   89.24   67.59
   6   0  -8  142.11   81.10
   6   0  -7   28.42   22.44
   6   0  -7   82.10   55.49
   6   0  -7   15.82   63.15
   6   0  -6  588.64  150.01
   6   0  -6  710.57  114.18
   6   0  -5   -0.41   26.00
   6   0  -5   31.17   43.78
   6   0  -5   86.10   48.73
   6   0  -4   74.91   45.59
   6   0  -4  -38.47   36.80
   6   0  -4   14.31   67.40
   6   0  -3  176.24   47.18
   6   0  -3  180.04   45.05
   6   0  -3  223.17   54.92
   6   0  -2   66.77   45.32
   6   0  -2   67.98   53.93
   6   0  -2  114.94   66.59
   6   0  -1 1939.22  245.70
   6   0  -1 2217.79  253.04
   6   0   0  582.66   84.42
   6   0   0  536.01   59.77
   6   0   1 1046.85  115.70
   6   0   1  884.38   54.99
   6   0   2  270.85   71.84
   6   0   3  163.95   62.17
   6   0   4  101.35   59.40
   6   0   5   70.49   87.55
   6   0   6   -9.55   53.35
   6   0   7   46.77  109.72
   6   0   8  584.20  135.64
   6   0   9  138.63   87.74
   6   0  10  778.88  169.52
   6   1 -10   71.64   56.65
   6   1 -10  104.33  100.38
   6   1  -9   77.81   53.77
   6   1  -9  164.40   94.02
   6   1  -8   25.91   41.97
   6   1  -8  -40.29   68.67
   6   1  -7   27.89   38.57
   6   1  -7  -32.76   61.24
   6   1  -6  120.54   73.71
   6   1  -6  233.71   72.86
   6   1  -5   43.78   28.99
   6   1  -5   85.64   56.68
   6   1  -5  156.58   55.77
   6   1  -4  153.90   64.98
   6   1  -4  298.87   61.28
   6   1  -3   11.16   21.61
   6   1  -3   -6.59   25.26
   6   1  -3   10.52   36.85
   6   1  -2  185.05   33.17
   6   1  -2  155.21   30.36
   6   1  -2  117.24   44.25
   6   1  -1   -6.97   27.56
   6   1  -1   21.84   24.55
   6   1  -1   15.93   30.25
   6   1   0 1031.31   96.65
   6   1   0 1337.59   95.09
   6   1   1  900.03   92.13
   6   1   1  978.50   63.49
   6   1   2   24.75   60.39
   6   1   2    5.20    6.78
   6   1   2   14.95    9.56
   6   1   3  681.52   87.49
   6   1   4  350.69   70.67
   6   1   5  186.81   98.31
   6   1   6  245.63   78.56
   6   1   7  -12.51   58.08
   6   1   8   41.21   64.88
   6   1   9    4.69   96.02
   6   1  10  -71.18   77.95
   6   2 -10   56.71   63.65
   6   2 -10  -29.63   99.96
   6   2  -9   94.18   63.17
   6   2  -9 -102.97  168.46
   6   2  -8  -38.93   54.08
   6   2  -8  212.91   87.87
   6   2  -7  -41.06   47.89
   6   2  -7  117.46   70.92
   6   2  -6  157.76   58.33
   6   2  -6  167.70   84.88
   6   2  -5    2.54   41.64
   6   2  -5   65.72   83.38
   6   2  -4   46.47   43.10
   6   2  -4  152.89   54.65
   6   2  -3    1.19   32.56
   6   2  -3   29.35   32.73
   6   2  -3  -11.93   39.73
   6   2  -2  976.15   68.82
   6   2  -2  944.83   79.01
   6   2  -2 1321.39  102.41
   6   2  -1  207.49   40.26
   6   2  -1  443.09   75.98
   6   2   0  714.95   67.88
   6   2   0  670.79   67.38
   6   2   1  557.09   66.05
   6   2   1  507.50   46.57
   6   2   2  -50.90   36.35
   6   2   2   -6.73   21.05
   6   2   2   27.16   18.31
   6   2   3   71.53   48.38
   6   2   4  133.59   57.47
   6   2   5  -61.40   54.30
   6   2   6   30.08   54.07
   6   2   7  162.01   71.98
   6   2   8  101.61   72.82
   6   2   9  107.86   77.28
   6   2  10   14.45   58.72
   6   3  -9   98.62   64.94
   6   3  -9  152.65  187.84
   6   3  -8   54.66   59.66
   6   3  -8  233.72  100.22
   6   3  -7   13.45   46.03
   6   3  -7  -56.19   72.77
   6   3  -6   71.73   47.79
   6   3  -6   -4.42  116.74
   6   3  -5   51.22   41.65
   6   3  -5    4.04   50.46
   6   3  -4   31.74   38.02
   6   3  -4   27.62   44.63
   6   3  -3   46.67   39.43
   6   3   0  584.34   62.62
   6   3   1  131.62   42.11
   6   3   1  161.02   57.09
   6   3   2  263.77   51.47
   6   3   2  175.64   45.70
   6   3   2  180.52   26.44
   6   3   3   83.90   44.11
   6   3   3   41.81   12.84
  -6  -3  -3   54.33   50.33
   6   3   4  837.39  159.51
  -6  -3  -4  808.97  116.77
   6   3   5  419.92   88.13
  -6  -3  -5  332.13   86.74
   6   3   6   -9.12   56.46
  -6  -3  -6  -11.85   59.32
   6   3   7  559.73  110.95
   6   3   8  194.88   74.15
   6   3   9 1078.14  149.53
   6   3  10  -64.66  141.93
   6   4  -9   27.75   54.07
   6   4  -9 -128.20   99.09
   6   4  -8  210.06   72.11
   6   4  -8  202.54  102.59
   6   4  -7   81.79   54.60
   6   4  -7   41.76   75.64
   6   4  -6   67.68   50.88
   6   4  -5   62.25   47.01
   6   4  -4  146.36   48.72
   6   4  -3   23.82   35.46
  -6  -4   0  319.34   64.40
   6   4   1  157.33   45.02
   6   4   1  121.20   69.88
  -6  -4  -1  141.67   85.49
   6   4   2  475.60   64.65
   6   4   2  326.73   47.93
  -6  -4  -2  299.11   76.65
   6   4   3   14.68   45.41
   6   4   3   41.21   39.03
  -6  -4  -3   57.84   53.08
   6   4   4 1177.36  138.13
  -6  -4  -4 1523.69  165.05
   6   4   5  858.35  116.58
  -6  -4  -5  856.11  136.23
   6   4   6  686.84  102.19
  -6  -4  -6  485.47  123.01
   6   4   7  -36.96   50.28
  -6  -4  -7  120.19  102.87
   6   4   8 1261.98  176.70
  -6  -4  -8 1413.50  224.80
   6   4   9   47.05   78.80
  -6  -4  -9   55.28   87.16
   6   4  10  342.12  176.18
  -6  -4 -10  187.91  128.07
   6   4  11   92.18   94.80
   6   5  -9  112.02   67.54
   6   5  -9   -4.42   99.37
   6   5  -8   79.30   72.65
   6   5  -8  303.08  100.96
   6   5  -7  220.79   75.56
   6   5  -6   29.41   50.39
   6   5  -5  -45.06   50.05
   6   5  -4  -82.11   74.06
   6   5  -3   16.29   37.63
   6   5  -2   86.31   36.45
  -6  -5   2   16.24   36.88
  -6  -5   1  152.10   53.42
   6   5   0   74.61   40.54
  -6  -5   0  172.19   82.10
   6   5   1   -3.70   60.78
   6   5   1  -10.87   53.99
  -6  -5  -1  -26.55   39.45
  -6  -5  -1   -7.20   36.58
   6   5   2  132.00   50.39
   6   5   2   64.19   68.23
  -6  -5  -2   66.70   46.51
  -6  -5  -2   78.08   37.96
   6   5   3  594.48   88.40
   6   5   3  494.90   60.62
  -6  -5  -3  445.69   77.73
  -6  -5  -3  338.50   82.96
   6   5   4  147.87   62.78
   6   5   4   96.52   59.98
  -6  -5  -4  145.26   54.57
   6   5   5  148.04   58.66
   6   5   5   21.22   40.13
  -6  -5  -5   92.13   51.43
  -6  -5  -5    4.06   24.55
   6   5   6  104.12   25.55
  -6  -5  -6  305.04   67.28
   6   5   7  214.78  109.47
  -6  -5  -7   37.91   92.52
   6   5   8   42.15   73.11
  -6  -5  -8  141.74   88.70
   6   5   9  422.63  110.06
  -6  -5  -9  179.15  134.84
   6   5  10  235.27   97.07
  -6  -5 -10   80.91  126.06
   6   6  -8  248.56   92.00
   6   6  -7  386.48   99.79
   6   6  -6  277.39   80.50
   6   6  -5  -13.69   49.63
   6   6  -4   62.16   50.67
   6   6  -3  -26.25   38.78
  -6  -6   3   38.29   50.11
   6   6  -2   30.03   36.75
  -6  -6   2   66.11   70.67
   6   6  -1  -35.23   37.45
  -6  -6   1   46.46   37.31
  -6  -6   1   72.74   57.98
   6   6   0  128.98   46.79
  -6  -6   0   57.15  107.04
  -6  -6   0  202.87  103.26
   6   6   1  -20.96   39.70
  -6  -6  -1   22.76   54.63
  -6  -6  -1   40.87   49.03
   6   6   2   91.13   48.72
  -6  -6  -2  121.46   61.36
  -6  -6  -2  -10.99   37.93
   6   6   3   78.64   49.87
   6   6   3  -43.72   38.56
  -6  -6  -3  -64.78   61.25
  -6  -6  -3  -37.24   52.97
   6   6   4   69.99   54.80
   6   6   4   10.79   69.23
  -6  -6  -4   37.70   66.10
  -6  -6  -4   32.96   41.00
   6   6   5  318.28   69.08
   6   6   5   35.72   73.78
  -6  -6  -5  126.57   82.83
  -6  -6  -5   92.78   42.51
   6   6   6  181.99   67.70
   6   6   6  129.71   68.68
  -6  -6  -6  286.83   96.18
  -6  -6  -6  137.30   66.69
   6   6   7   69.44   61.70
   6   6   7   58.85   70.55
  -6  -6  -7   55.63   98.04
  -6  -6  -7   40.12   50.61
  -6  -6  -8  146.54   68.45
  -6  -6  -8   20.88   28.68
  -6  -6  -9  -71.82   81.43
  -6  -6 -10  293.65  226.39
   6   7  -7  126.15   81.44
   6   7  -6  -10.87   60.42
   6   7  -5   97.57   65.77
   6   7  -4  -27.01   47.62
  -6  -7   4   46.09   42.59
   6   7  -3   65.30   43.36
  -6  -7   3   -7.90   34.77
  -6  -7   3   81.70   76.84
   6   7  -2   58.40   44.54
  -6  -7   2   50.39   57.49
  -6  -7   2   -2.98   74.12
   6   7  -1   61.20   44.67
  -6  -7   1   45.30   65.47
  -6  -7   1  206.48   76.60
   6   7   0   47.73   48.38
  -6  -7   0  -27.04   53.27
  -6  -7   0  110.03  100.95
   6   7   1  116.87   51.78
  -6  -7  -1  -10.33   56.04
  -6  -7  -1    8.71   49.59
   6   7   2   81.94   89.04
  -6  -7  -2   35.40   60.24
  -6  -7  -2   83.44   62.52
   6   7   3   57.70   47.39
  -6  -7  -3 -138.68   56.94
  -6  -7  -3  -13.39   84.52
   6   7   4    7.43   51.28
  -6  -7  -4   83.95   62.11
  -6  -7  -4   40.08   87.29
   6   7   5   82.80   77.95
  -6  -7  -5   12.48   65.76
  -6  -7  -5   23.98   54.21
   6   7   6   -0.43   50.55
  -6  -7  -6  -92.82  103.87
  -6  -7  -6   77.45   55.08
   6   7   7   82.22  107.08
  -6  -7  -7  276.46  112.44
  -6  -7  -7  329.74  126.56
  -6  -7  -8  -28.54   88.67
  -6  -7  -8   56.30   88.37
  -6  -7  -9   34.21  103.25
  -6  -7 -10   -8.73   76.30
   6   8  -6  -29.89   65.41
   6   8  -5  106.31   67.61
   6   8  -4   31.48   93.10
  -6  -8   4   36.31   28.86
  -6  -8   4   33.65   74.97
   6   8  -3   -6.32   53.32
  -6  -8   3  115.93   58.63
  -6  -8   3   56.64   85.42
   6   8  -2   45.31   44.62
  -6  -8   2   27.92   57.53
  -6  -8   2  -59.27   79.62
   6   8  -1  -23.82   69.15
  -6  -8   1   68.93   63.20
  -6  -8   1   39.82  118.56
   6   8   0  -14.18   92.04
  -6  -8   0  115.63   61.23
  -6  -8   0   22.63   59.74
   6   8   1   -7.63  105.12
  -6  -8  -1  119.37   62.79
  -6  -8  -1   55.11   78.40
   6   8   2   30.97   55.45
  -6  -8  -2  -31.94   55.07
  -6  -8  -2   64.73   98.56
   6   8   3   46.23   65.73
  -6  -8  -3   85.63   65.17
  -6  -8  -3  181.85   77.36
   6   8   4  120.21   66.09
  -6  -8  -4   48.49   68.51
  -6  -8  -4   78.75   77.31
   6   8   5   47.16   64.97
  -6  -8  -5  153.77  107.83
  -6  -8  -5   67.46   79.07
   6   8   6  168.89   96.59
  -6  -8  -6  355.27  102.79
  -6  -8  -6  309.01  177.90
   6   8   7   43.07   65.65
  -6  -8  -7   58.87   81.36
  -6  -8  -7   72.57   92.62
   6   8   8  -39.98   60.52
  -6  -8  -8  232.08   83.67
  -6  -8  -8  -50.28   90.87
  -6  -8  -9  111.13  113.82
  -6  -8  -9   50.05  157.91
  -6  -8 -10  -62.03  117.79
   6   9  -5   31.86   71.45
   6   9  -4   47.06  121.42
  -6  -9   4  293.92  116.61
   6   9  -3   44.82   55.34
  -6  -9   3   26.54   63.99
  -6  -9   3  226.67  145.31
   6   9  -2   37.67   72.23
  -6  -9   2  -16.76   62.34
  -6  -9   2  -26.48   77.12
   6   9  -1   40.70   54.22
  -6  -9   1   63.72   78.29
  -6  -9   1  134.23   68.76
   6   9   0  108.41   75.47
  -6  -9   0  192.99  124.34
  -6  -9   0   64.50   86.38
   6   9   1  176.48   95.35
  -6  -9  -1  145.87  154.10
  -6  -9  -1  296.18  103.04
   6   9   2  162.28   80.51
  -6  -9  -2  -33.75  137.70
  -6  -9  -2  143.16   88.85
   6   9   3  120.80  118.33
  -6  -9  -3  -31.81  129.36
  -6  -9  -3  120.60   83.30
   6   9   4    6.69   72.47
  -6  -9  -4   70.53   71.02
  -6  -9  -4  116.01  130.94
   6   9   5  146.07   78.26
  -6  -9  -5  122.84   79.60
  -6  -9  -5  -97.60   99.59
   6   9   6  -16.56   84.59
  -6  -9  -6  193.08   80.78
  -6  -9  -6   11.92  112.01
   6   9   7   27.44   82.38
  -6  -9  -7   63.17   79.83
  -6  -9  -7   -2.83  178.08
   6   9   8  108.31  109.23
  -6  -9  -8  305.96  117.22
  -6  -9  -8  249.19  160.35
  -6  -9  -9  -26.57   92.93
  -6  -9  -9   -3.62  174.91
   6  10  -4   69.32   67.64
  -6 -10   4   13.09   94.37
   6  10  -3   25.55   63.13
  -6 -10   3   54.05   77.11
  -6 -10   3  246.16   99.99
   6  10  -2   74.44   58.34
  -6 -10   2  -18.17  149.19
  -6 -10   2   90.88  117.38
   6  10  -1   32.87   73.36
  -6 -10   1   52.30   96.66
  -6 -10   1    0.65   65.42
   6  10   0  211.14  109.96
  -6 -10   0  111.08  131.82
  -6 -10   0  386.15  112.35
   6  10   1  142.98   79.62
  -6 -10  -1   42.94   95.06
  -6 -10  -1  -43.83   78.46
   6  10   2  -68.20   70.62
  -6 -10  -2   16.74   88.61
  -6 -10  -2  127.25   76.67
   6  10   3  229.52  105.42
  -6 -10  -3  221.39  125.29
  -6 -10  -3  257.81  111.90
   6  10   4  -24.03   76.89
  -6 -10  -4    5.05   89.11
  -6 -10  -4   81.86   84.24
   6  10   5   88.90  130.37
  -6 -10  -5  -85.13   98.08
  -6 -10  -5  206.88  103.85
   6  10   6  309.28  166.40
  -6 -10  -6  843.07  263.29
  -6 -10  -6  739.56  212.60
   6  10   7  176.61  151.92
  -6 -10  -7   -8.78   87.65
  -6 -10  -7    6.11  205.70
   6  10   8  460.36  202.89
  -6 -10  -8 1071.59  201.52
  -6 -10  -8 1280.12  322.24
   6  11  -2   12.86   58.30
  -6 -11   2   25.12  113.29
  -6 -11   2   -5.88   67.00
   6  11  -1  -36.20  101.60
  -6 -11   1  197.44  135.69
  -6 -11   1  159.37  119.33
   6  11   0  169.38  161.94
  -6 -11   0  253.09  210.67
  -6 -11   0   62.91   99.28
   6  11   1   63.64   90.54
  -6 -11  -1  -35.93  127.11
  -6 -11  -1  132.40   85.41
   6  11   2   49.66   86.09
  -6 -11  -2  212.57  123.61
  -6 -11  -2  -68.65  140.65
   6  11   3 -106.64   91.56
  -6 -11  -3  -26.73  193.95
  -6 -11  -3  -60.74   91.55
   6  11   4   19.82  102.15
  -6 -11  -4  157.06  132.40
  -6 -11  -4  157.02  104.46
   6  11   5  202.11  116.34
  -6 -11  -5   83.64  146.03
  -6 -11  -5  220.76  130.32
   6  11   6   39.04  112.28
  -6 -11  -6   99.36  124.60
  -6 -11  -6  152.70  133.32
   6  11   7  222.26  163.17
  -6 -11  -7  244.03  162.85
  -6 -11  -7  655.80  295.90
   6  12   1   21.13   94.80
  -6 -12  -1 -164.57  165.59
  -6 -12  -1  163.63   90.70
   6  12   2   27.75   97.87
  -6 -12  -2 -259.51  159.59
   6  12   3   63.23  150.90
  -6 -12  -3   77.95  151.12
  -6 -12  -3   23.81   92.52
   6  12   4   19.91  171.45
  -6 -12  -4 -181.53  148.87
  -6 -12  -4  181.09  101.89
  -6 -12  -5  127.82  211.73
  -6 -12  -5    7.18  107.71
   7  -6  -4  120.79  108.71
   7  -6  -3  174.50  107.79
  -7   6   3  204.17  196.97
   7  -6  -2   19.74   82.01
  -7   6   2   75.98  155.49
   7  -6  -1  117.60  136.73
  -7   6   1  162.53  168.34
  -7   6   0  211.49  286.35
   7  -5  -6   83.19  100.91
   7  -5  -5  397.84  173.49
   7  -5  -4   20.49   95.63
   7  -5  -3  219.20  105.70
   7  -5  -2   96.08   76.78
   7  -5   0  -15.74  120.49
   7  -5   1  152.57  164.74
   7  -5   2  155.08  183.71
   7  -5   3  337.12  245.73
   7  -4  -7  362.32  134.65
   7  -4  -6   85.46   95.63
   7  -4  -5  283.96  123.51
   7  -4  -4  237.77  181.52
   7  -4  -3  318.52  187.21
   7  -4  -2  -44.39   95.46
   7  -4  -2  -65.67  109.54
   7  -4  -1   18.27   96.59
   7  -4  -1  -62.30   59.18
   7  -4   0   90.39  107.14
   7  -4   0   47.45   59.34
   7  -4   1  238.87  151.19
   7  -4   2   -6.95  115.21
   7  -4   3  283.25  263.34
   7  -4   4   53.51  123.35
   7  -4   5  232.26  348.54
   7  -3  -8   24.35   81.96
   7  -3  -7    7.84   89.81
   7  -3  -7  202.32  137.13
   7  -3  -6   21.02   96.33
   7  -3  -6   94.01   84.31
   7  -3  -5   15.74   95.84
   7  -3  -5  120.77   87.33
   7  -3  -4  161.39   96.13
   7  -3  -4  101.48   92.22
   7  -3  -3  -32.74   73.36
   7  -3  -3   24.11   73.61
   7  -3  -2   -8.85   84.87
   7  -3  -2  138.69   71.83
   7  -3  -1  261.34  131.01
   7  -3  -1    7.30   55.01
   7  -3   0  125.22   84.81
   7  -3   0    0.09   45.64
   7  -3   1   62.08   97.09
   7  -3   2  171.45  102.72
   7  -3   3  239.62  120.17
   7  -3   4  193.60  260.12
   7  -3   5   80.45  143.65
   7  -3   6  301.56  282.05
   7  -2  -8  296.58  127.68
   7  -2  -8  173.66  104.07
   7  -2  -7   26.50   70.58
   7  -2  -7   21.69   79.13
   7  -2  -7  100.05   74.64
   7  -2  -6  384.73  107.04
   7  -2  -6  500.57  181.93
   7  -2  -5   78.30   69.71
   7  -2  -5   22.67   73.44
   7  -2  -4  190.61   91.56
   7  -2  -4  296.17  149.12
   7  -2  -3  -11.25   67.34
   7  -2  -3  -38.93   69.78
   7  -2  -2 -120.86   78.49
   7  -2  -2  -30.37  121.63
   7  -2  -1  135.30   71.85
   7  -2  -1  -14.50   54.96
   7  -2   0  120.46   85.69
   7  -2   0   -3.60   30.76
   7  -2   0  -12.17   38.18
   7  -2   1   57.15   58.88
   7  -2   1   -0.05   23.34
   7  -2   1   16.14   46.83
   7  -2   2  -75.62   69.18
   7  -2   3  169.90  119.08
   7  -2   4  318.72  149.90
   7  -2   5   11.33  140.76
   7  -2   6   63.81  109.29
   7  -2   7   58.81  168.72
   7  -1  -8  248.71  147.74
   7  -1  -8   31.51   92.53
   7  -1  -7  511.81  136.70
   7  -1  -7  516.81  134.86
   7  -1  -6  100.15   77.58
   7  -1  -6   31.75   78.88
   7  -1  -6  136.30   79.70
   7  -1  -5  660.76  134.12
   7  -1  -5  953.61  195.46
   7  -1  -4  321.17   62.72
   7  -1  -4  345.59   86.72
   7  -1  -4  268.23   85.78
   7  -1  -3  198.94   52.21
   7  -1  -3   32.12   57.66
   7  -1  -3  185.70   71.98
   7  -1  -2   28.41   44.33
   7  -1  -2   58.12   42.31
   7  -1  -2   47.05  101.78
   7  -1  -1   28.90   41.92
   7  -1  -1   19.10   34.14
   7  -1  -1  -76.94   57.08
   7  -1   0  266.96   97.11
   7  -1   0  198.65   54.30
   7  -1   1  202.00   72.12
   7  -1   1   33.32   34.19
   7  -1   1   28.40   40.06
   7  -1   2  239.58   97.58
   7  -1   3  173.72   95.36
   7  -1   4  -94.58   85.37
   7  -1   5   85.44   91.95
   7  -1   6  166.38  100.90
   7  -1   7   19.58   82.64
   7   0  -8  203.86  120.31
   7   0  -8  -16.61   80.86
   7   0  -7   -4.92   68.07
   7   0  -7  -35.76   67.60
   7   0  -6   30.45   45.64
   7   0  -6  104.51   73.84
   7   0  -6  246.92   70.98
   7   0  -5  716.25  121.99
   7   0  -5  772.15  126.44
   7   0  -4  368.31   93.16
   7   0  -4  470.43   87.29
   7   0  -4  684.69  148.36
   7   0  -3   13.39   40.90
   7   0  -3  -42.73   43.19
   7   0  -3  -58.43   54.28
   7   0  -2  148.35   53.53
   7   0  -2   48.01   33.88
   7   0  -2  155.96   54.44
   7   0  -1  111.82   54.37
   7   0  -1   46.34   44.45
   7   0  -1   61.43   55.55
   7   0   0  208.70   90.68
   7   0   0   34.58   45.52
   7   0   0   69.82   85.66
   7   0   1  342.63   68.21
   7   0   1  123.20   49.73
   7   0   2   99.00   61.69
   7   0   3  193.04   76.92
   7   0   4   60.24   97.46
   7   0   5  125.20   76.70
   7   0   6    6.31   67.07
   7   0   7  330.68  125.75
   7   0   8  367.73  143.55
   7   1  -8   70.33   55.66
   7   1  -8   -7.63   80.14
   7   1  -7  193.01   68.15
   7   1  -7  330.79   98.07
   7   1  -6   90.68   50.40
   7   1  -6   67.64   69.65
   7   1  -5  340.22   45.11
   7   1  -5  731.05   75.73
   7   1  -4  186.89   33.22
   7   1  -4  167.86   73.63
   7   1  -4  241.10   67.57
   7   1  -3  282.37   42.45
   7   1  -3  203.80   58.66
   7   1  -3  481.89   71.44
   7   1  -2   -1.46   29.54
   7   1  -2   12.36   34.92
   7   1  -2   41.36   41.10
   7   1  -1  409.27   92.09
   7   1  -1  434.71   55.72
   7   1  -1  477.04  118.89
   7   1   0  149.19   77.09
   7   1   0  185.94   50.40
   7   1   1   42.93   44.08
   7   1   1  104.17   68.17
   7   1   2   87.07   51.31
   7   1   3  -12.78   48.00
   7   1   4  180.75  109.46
   7   1   5   28.49   65.24
   7   1   6   80.82   77.51
   7   1   7   29.96   75.66
   7   1   8   62.48   83.10
   7   2  -8    3.25   59.52
   7   2  -8  -26.20   80.58
   7   2  -7   81.07   62.47
   7   2  -7   34.22   80.73
   7   2  -6  -26.48   52.62
   7   2  -6   -5.83   65.52
   7   2  -5   43.09   49.50
   7   2  -5  -52.05   92.73
   7   2  -4  275.75  102.28
   7   2  -4  463.92  128.05
   7   2  -3  180.42   48.03
   7   2  -3  132.63   58.35
   7   2  -2  247.47   45.98
   7   2  -2  376.05   61.51
   7   2  -1   93.06   37.21
   7   2  -1   37.74   65.42
   7   2   0  848.39   98.63
   7   2   0 1209.30   96.21
   7   2   1  -12.73   45.23
   7   2   1   97.14   36.25
   7   2   2   -5.05   44.67
   7   2   2   24.55   23.39
   7   2   2    8.71   21.36
   7   2   3  148.09   65.06
   7   2   4   65.53   61.03
   7   2   5   37.53   61.06
   7   2   6  151.03   79.87
   7   2   7  286.85  157.67
   7   2   8  -59.61   86.76
   7   2   9  255.14  117.03
   7   3  -8   41.93   66.46
   7   3  -8  172.64  113.59
   7   3  -7  -32.15   58.14
   7   3  -7  -72.14   96.34
   7   3  -6   81.18   57.26
   7   3  -6  131.00  144.52
   7   3  -5  131.29   93.12
   7   3  -5  164.80   83.29
   7   3  -4   64.31   45.69
   7   3  -4   86.00   64.27
   7   3  -3   35.70   53.08
   7   3  -2   33.76   45.84
   7   3  -1 1084.67  164.62
   7   3   0  211.14   46.52
   7   3   0  190.53   51.14
   7   3   1  123.43   50.37
   7   3   1  155.84   49.94
   7   3   1  206.64   59.73
   7   3   2  172.64   53.49
   7   3   2  157.51   49.08
   7   3   2  105.37   45.78
   7   3   3   73.27   54.42
   7   3   4  -74.71   92.08
   7   3   5  335.38   96.25
   7   3   6   63.87   72.10
   7   3   7   68.34   78.74
   7   3   8  600.81  135.38
   7   3   9   24.89   72.37
   7   4  -8   28.99   66.09
   7   4  -8  211.18  114.37
   7   4  -7  -15.05   52.74
   7   4  -7   16.13   88.28
   7   4  -6   67.66   59.81
   7   4  -6  267.30  147.77
   7   4  -5  127.63   97.53
   7   4  -5  223.44   81.34
   7   4  -4   23.04   43.87
   7   4  -4    7.18   53.22
   7   4  -3    7.24   37.61
   7   4  -3  -10.86   44.53
   7   4  -2  149.94   51.04
   7   4  -1  129.48   44.10
   7   4   0  756.63   79.89
   7   4   0  760.13   75.46
   7   4   1  103.03   40.13
   7   4   1  110.07   47.19
   7   4   1    6.29   29.60
   7   4   2   19.80   68.53
   7   4   2   31.95   90.90
   7   4   2   32.20   43.62
   7   4   3   21.49   72.87
   7   4   3  -15.35   34.12
   7   4   3   14.12   20.12
   7   4   4  138.77   63.99
   7   4   5  197.29   72.86
  -7  -4  -5   76.88   85.49
   7   4   6  125.63   73.76
   7   4   7  153.27   82.47
   7   4   8  -75.80  114.40
   7   4   9  150.00   92.23
   7   5  -7  251.02   90.57
   7   5  -7  486.73  131.10
   7   5  -6   87.20   69.61
   7   5  -6  279.52   97.82
   7   5  -5   80.70   89.62
   7   5  -4   74.22   53.64
   7   5  -3   88.85   49.90
   7   5   0 1259.26  147.79
  -7  -5   0 1470.55  170.17
   7   5   1  101.96   44.12
   7   5   1  -57.26   53.93
  -7  -5  -1   44.67   61.71
   7   5   2  809.19  110.96
   7   5   2 1064.67  175.39
  -7  -5  -2  854.94  147.75
   7   5   3  427.24   78.93
   7   5   3  255.66   60.59
  -7  -5  -3  343.83  156.54
   7   5   4  556.31   92.32
   7   5   4  224.16   65.48
  -7  -5  -4  456.45  170.55
   7   5   5  -18.01   58.04
  -7  -5  -5   46.72  109.20
   7   5   6  107.45   79.75
  -7  -5  -6  168.10  140.75
   7   5   7  142.42   84.19
  -7  -5  -7  144.31  101.70
   7   5   8  721.38  141.45
  -7  -5  -8  495.22  178.35
   7   5   9  173.47   95.58
  -7  -5  -9  316.22  133.65
   7   6  -7   -1.57   59.61
   7   6  -6  120.06   72.38
   7   6  -5   12.63   83.93
   7   6  -4   14.15   52.05
   7   6  -3  -13.42   47.10
   7   6  -2   96.33   50.95
   7   6  -1   52.11   45.73
  -7  -6   1  -56.12   52.29
   7   6   0  811.38  121.41
  -7  -6   0  994.07  151.38
   7   6   1  105.99   98.48
  -7  -6  -1   10.78   68.54
   7   6   2  548.48   92.90
   7   6   2  534.90  110.26
  -7  -6  -2  689.64  131.43
   7   6   3   81.96   62.37
   7   6   3  133.17   88.05
  -7  -6  -3  188.87  129.67
   7   6   4  823.23  113.85
   7   6   4  428.42   96.86
  -7  -6  -4  842.52  223.87
   7   6   5   98.69   71.87
   7   6   5   76.98  105.56
  -7  -6  -5  236.41  144.16
   7   6   6   75.09   73.28
  -7  -6  -6  121.04   93.36
   7   6   7   89.13   77.83
  -7  -6  -7   75.43   98.05
   7   6   8  -87.34   68.46
  -7  -6  -8  130.19   89.78
   7   6   9   70.19   85.77
  -7  -6  -9  196.05  120.38
   7   7  -6  -87.05   74.27
   7   7  -5   63.87   67.56
   7   7  -4   40.17   56.57
   7   7  -3   -1.68   47.31
   7   7  -2  150.34   62.48
  -7  -7   2  -10.67  100.90
   7   7  -1  240.01   73.51
  -7  -7   1  267.98   93.31
   7   7   0  273.84   85.79
  -7  -7   0  461.32   93.80
  -7  -7   0  162.34  117.84
   7   7   1  195.82   96.77
  -7  -7  -1  201.23   80.96
  -7  -7  -1  218.38   92.30
   7   7   2  302.10  151.38
  -7  -7  -2  381.06   95.09
  -7  -7  -2  338.02  150.07
   7   7   3    3.01   85.47
  -7  -7  -3   -2.93   56.45
  -7  -7  -3  -14.32   53.82
   7   7   4  112.73  108.36
  -7  -7  -4  138.75   71.03
  -7  -7  -4   58.45   55.55
   7   7   5  149.62   67.40
  -7  -7  -5  399.86   84.09
  -7  -7  -5   69.03   66.30
  -7  -7  -6  283.41   76.11
  -7  -7  -6   38.17   28.02
  -7  -7  -7   24.53   74.49
  -7  -7  -8   27.59   80.00
  -7  -7  -9  -62.00  174.77
   7   8  -5   -7.53   61.10
   7   8  -4   -2.69   60.72
   7   8  -3   59.55   65.64
  -7  -8   3   59.01   79.77
   7   8  -2    3.06   52.78
  -7  -8   2   33.11   99.19
   7   8  -1  161.25  112.20
  -7  -8   1  120.30   80.44
  -7  -8   1  319.85  125.01
   7   8   0  111.10  125.23
  -7  -8   0  282.14  187.83
  -7  -8   0  266.03  184.57
   7   8   1   68.26  136.40
  -7  -8  -1   17.29   93.05
  -7  -8  -1   47.93   92.56
   7   8   2   63.97   76.41
  -7  -8  -2   78.71   93.51
  -7  -8  -2   74.73  146.40
   7   8   3  177.53  130.17
  -7  -8  -3  216.87  104.73
  -7  -8  -3  100.93   77.39
   7   8   4  133.46   79.85
  -7  -8  -4  127.83  103.20
  -7  -8  -4   83.02  106.90
   7   8   5  -19.92  107.66
  -7  -8  -5  104.64   97.27
  -7  -8  -5   55.63   67.64
  -7  -8  -6  145.24  119.73
  -7  -8  -6  138.78  107.72
  -7  -8  -7   94.98  119.08
  -7  -8  -8  105.72  144.16
   7   9  -4  124.63  131.87
   7   9  -3   83.55   70.41
  -7  -9   3   80.34  100.84
   7   9  -2   20.29  112.29
  -7  -9   2  123.75   74.60
  -7  -9   2  231.72  130.73
   7   9  -1   43.44   67.63
  -7  -9   1   36.02  109.88
  -7  -9   1  307.35  181.51
   7   9   0   40.67   74.88
  -7  -9   0  142.42  106.09
  -7  -9   0  -13.98  112.98
   7   9   1  -75.03   90.53
  -7  -9  -1  166.88  129.83
  -7  -9  -1  -73.54  126.42
   7   9   2  -56.30   79.38
  -7  -9  -2    6.85   84.15
  -7  -9  -2  -20.50   82.41
   7   9   3   54.56   78.67
  -7  -9  -3  -25.41   81.37
  -7  -9  -3   21.74   98.96
   7   9   4   63.08   77.89
  -7  -9  -4  -97.02   83.77
  -7  -9  -4  -39.14   95.74
   7   9   5   88.73   85.66
  -7  -9  -5  138.33   91.33
  -7  -9  -5  -56.43   98.86
   7   9   6  -48.69   85.04
  -7  -9  -6  -42.69  158.46
  -7  -9  -6   -8.07   82.82
  -7  -9  -7  155.55  112.07
  -7  -9  -7   -6.21   76.30
   7  10  -2  130.29   81.55
  -7 -10   2  134.61  122.35
  -7 -10   2  285.80  141.63
   7  10  -1   90.33   84.87
  -7 -10   1  102.76  194.66
  -7 -10   1  271.98  144.19
   7  10   0  363.59  126.47
  -7 -10   0  260.29  158.14
  -7 -10   0  354.03  281.27
   7  10   1  125.55  112.43
  -7 -10  -1  106.79  116.32
  -7 -10  -1  127.75  112.97
   7  10   2  -25.86  101.71
  -7 -10  -2   62.08   89.29
  -7 -10  -2 -125.87  174.65
   7  10   3   54.66   83.94
  -7 -10  -3  -15.93   90.08
  -7 -10  -3  -54.04  116.64
   7  10   4   93.09  108.41
  -7 -10  -4  129.85  112.13
  -7 -10  -4  152.33  142.82
   7  10   5  151.11  110.80
  -7 -10  -5   81.31  116.77
  -7 -10  -5  209.15  145.75
   7  10   6   46.03  167.01
  -7 -10  -6   25.14  107.33
  -7 -10  -6  151.10  126.54
   7  11   1  444.72  160.74
  -7 -11  -1  317.34  179.12
  -7 -11  -1  453.44  165.00
   7  11   2  100.03  123.29
  -7 -11  -2   67.45  116.90
  -7 -11  -2   87.21  146.83
   7  11   3  198.98  118.99
  -7 -11  -3   83.97  129.78
  -7 -11  -3  165.11  265.17
   7  11   4  178.39  181.04
  -7 -11  -4  145.13  119.95
  -7 -11  -4  -93.10  158.67
   8  -4  -2  179.22  144.33
   8  -4  -1  270.95  165.07
   8  -3  -4  -82.78  114.17
   8  -3  -4  129.86   90.80
   8  -3  -3  273.39  139.79
   8  -3  -3  162.80  126.85
   8  -3  -2  -90.42  158.75
   8  -3  -2  -33.25   59.30
   8  -3  -2    0.29   80.82
   8  -3  -1   47.39   85.42
   8  -3   0  304.81  121.21
   8  -3   1  -18.06   81.90
   8  -3   2  460.49  234.31
   8  -2  -5  112.43   75.60
   8  -2  -5  106.37  106.01
   8  -2  -5   84.75   98.64
   8  -2  -4  109.61   81.71
   8  -2  -4   49.91   93.63
   8  -2  -4  390.81  150.71
   8  -2  -3   88.47   69.80
   8  -2  -3    8.27   65.84
   8  -2  -3   63.74  129.57
   8  -2  -2   94.84   73.41
   8  -2  -2   29.98   89.78
   8  -2  -2   48.68  140.75
   8  -2  -1   74.20   71.30
   8  -2   0  100.03  167.70
   8  -2   1  172.13  121.10
   8  -2   2  199.72  132.30
   8  -2   3  -60.49  114.33
   8  -2   4  132.55  124.31
   8  -1  -6   90.92   47.89
   8  -1  -6   91.15  100.01
   8  -1  -6   76.98   82.32
   8  -1  -5   73.04   99.37
   8  -1  -5   29.36   84.49
   8  -1  -5  139.67  122.27
   8  -1  -4  101.91   87.91
   8  -1  -4  143.75   86.92
   8  -1  -4  361.53   96.49
   8  -1  -3   61.18   86.40
   8  -1  -3  164.13  105.84
   8  -1  -3  183.52   90.26
   8  -1  -2   29.70   71.75
   8  -1  -2    4.12   36.66
   8  -1  -2   44.31   68.13
   8  -1  -1  109.10   78.47
   8  -1  -1   25.63   65.94
   8  -1  -1   46.97  105.22
   8  -1   0  349.76  120.13
   8  -1   1  -85.88  139.76
   8  -1   2 1510.07  242.02
   8  -1   3    2.75   75.52
   8  -1   4  128.60  106.36
   8  -1   5 -131.66  103.52
   8   0  -6   39.73   66.27
   8   0  -6  149.83   85.78
   8   0  -5  185.64   73.53
   8   0  -5  348.03  103.32
   8   0  -4  163.40   85.40
   8   0  -4  134.06   57.73
   8   0  -4  166.25   76.35
   8   0  -3   19.71   46.95
   8   0  -3   73.87   77.50
   8   0  -3    1.42   60.11
   8   0  -2   62.92   54.83
   8   0  -2   63.44   48.38
   8   0  -2   -4.05   66.19
   8   0  -1  118.76   54.34
   8   0  -1  -28.32   36.88
   8   0  -1  -17.34   95.20
   8   0   0   19.34   58.43
   8   0   1  250.59   90.28
   8   0   2   62.64  113.67
   8   0   3  277.19   95.63
   8   0   4  251.66   98.74
   8   0   5  105.72   91.51
   8   0   6  239.91  127.96
   8   1  -6   37.81   74.13
   8   1  -6   97.26   74.80
   8   1  -5    2.75   49.27
   8   1  -5   61.50   62.48
   8   1  -5  108.21   68.00
   8   1  -4   12.31   35.18
   8   1  -4   10.43   53.47
   8   1  -4   70.92   58.92
   8   1  -3  -18.40   57.55
   8   1  -3   15.72   44.18
   8   1  -3   31.20   58.23
   8   1  -2   56.66   40.39
   8   1  -2   40.20   42.68
   8   1  -2  -27.32   59.30
   8   1  -1   -2.06   43.10
   8   1  -1   55.04   50.88
   8   1   0  -30.96   46.63
   8   1   0   -8.14   49.25
   8   1   1   35.11   52.71
   8   1   2  227.51   75.89
   8   1   3   43.27  109.89
   8   1   4  269.07  104.42
   8   1   5  131.60   94.13
   8   1   6  189.43  176.65
   8   2  -6  150.52   69.93
   8   2  -6   24.71   82.18
   8   2  -5  -12.64   58.86
   8   2  -5  143.86   69.83
   8   2  -4  155.58   60.03
   8   2  -4   71.66   70.21
   8   2  -3  312.51   82.94
   8   2  -2   50.20   80.22
   8   2  -1   76.64   73.26
   8   2  -1   69.39   51.46
   8   2   0   84.92   52.68
   8   2   0   99.06   83.34
   8   2   1   22.83   51.30
   8   2   2  -39.45   57.11
   8   2   3   73.11  103.04
   8   2   4   49.23   66.51
   8   2   5  -51.21   75.42
   8   2   6   26.16   78.39
   8   2   7   60.85  149.86
   8   3  -6  147.51   75.01
   8   3  -6  218.35  103.44
   8   3  -5  121.42   68.39
   8   3  -5  309.87  141.91
   8   3  -4  404.78   86.15
   8   3  -4  707.84  173.49
   8   3  -3  135.73   68.79
   8   3  -2  282.21   74.64
   8   3  -1    6.70   43.95
   8   3   0   88.04   78.65
   8   3   0   73.00   45.07
   8   3   1  169.78   81.78
   8   3   1   95.45   49.76
   8   3   1   31.38   59.91
   8   3   2   14.70   79.24
   8   3   3  -82.13  106.02
   8   3   4  -43.28   68.20
   8   3   5  -91.81   81.91
   8   3   6  123.56   94.31
   8   3   7  104.59   98.37
   8   4  -6   24.92   54.48
   8   4  -6  -70.94   95.29
   8   4  -5  266.25   79.78
   8   4  -5  493.80  207.43
   8   4  -4  179.15   69.01
   8   4  -4  258.47  152.87
   8   4  -3   19.22   64.44
   8   4  -2   13.37   87.42
   8   4  -1  263.87  123.17
   8   4   0  -20.67   38.65
   8   4   0   43.30   50.72
   8   4   0   48.55   46.61
   8   4   1  183.17   58.10
   8   4   1  162.98   68.60
   8   4   1  196.70   74.34
   8   4   2   99.91   55.62
   8   4   3   -0.70   49.83
   8   4   4   66.56   65.31
   8   4   5  -45.45   67.54
   8   4   6   81.11   80.73
   8   4   7   14.52   72.12
   8   5  -5   60.02   64.83
   8   5  -5  121.40  160.80
   8   5  -4  -87.86   56.34
   8   5  -4   86.43   70.09
   8   5  -3    2.55   53.00
   8   5  -3   44.77   61.32
   8   5  -2   58.89   57.29
   8   5  -1  144.40   59.77
   8   5   0   15.23   40.32
   8   5   0  -16.32   84.87
   8   5   0  -31.78   41.00
   8   5   1   63.19   54.07
   8   5   1  200.27   72.88
   8   5   1  108.59   63.80
   8   5   2  319.11   68.62
   8   5   2  225.33  139.77
   8   5   2  141.17   46.39
   8   5   3   40.56   59.20
   8   5   4   41.36   63.72
   8   5   5   64.01   73.97
   8   5   6  325.56  113.79
   8   5   7  -11.03   76.83
   8   6  -5   98.03   71.04
   8   6  -5   25.45  100.54
   8   6  -4  -50.93   63.54
   8   6  -3   47.98   58.45
   8   6  -1 1064.90  161.78
   8   6   0  239.89  135.06
   8   6   1  797.88  110.57
   8   6   1 1105.68  185.33
   8   6   2   46.89   50.50
   8   6   2  -51.64   83.43
  -8  -6  -2   20.95   81.71
   8   6   3  -53.59   55.16
  -8  -6  -3   41.74   84.00
   8   6   4   88.75   71.63
  -8  -6  -4  132.83  101.29
   8   6   5  963.12  167.73
  -8  -6  -5 1212.12  230.36
   8   6   6  127.35   91.64
  -8  -6  -6  223.73  118.03
   8   6   7  493.73  124.52
  -8  -6  -7  263.25  162.10
   8   7  -4   -9.81   61.47
   8   7  -3   28.00  102.72
   8   7  -2   -6.01   61.90
   8   7  -1  208.39   86.27
   8   7   0  135.41   86.26
  -8  -7   0  150.76  102.54
   8   7   1  443.88  259.18
  -8  -7  -1  704.80  172.98
   8   7   2  563.00  191.14
  -8  -7  -2  652.19  278.12
  -8  -7  -3   84.43  104.71
  -8  -7  -4   55.79  101.65
  -8  -7  -5  -71.59  106.91
  -8  -7  -6  130.84  122.24
   8   8  -3   -3.82   67.40
   8   8  -2   -6.72   64.66
   8   8  -1   88.06   82.85
  -8  -8   1  153.02   95.15
   8   8   0  332.60  122.54
  -8  -8   0  317.05  147.09
   8   8   1  403.31  167.00
  -8  -8  -1  362.46  162.22
   8   8   2  302.79  151.14
  -8  -8  -2  193.11  145.19
   8   8   3   57.85  108.02
  -8  -8  -3  -14.44  115.80
  -8  -8  -3   49.06   66.96
  -8  -8  -4  159.74  167.48
  -8  -8  -5  -54.07  121.97
  -8  -8  -6  299.96  239.81
   8   9  -1  165.04  141.69
  -8  -9   1   81.98  111.60
   8   9   0   91.42  103.69
  -8  -9   0  214.74  204.35
   8   9   1  226.94  229.41
  -8  -9  -1  228.32  134.60
  -8  -9  -1  198.61  165.84
   8   9   2    7.61  113.49
  -8  -9  -2   -6.62   96.12
  -8  -9  -2  107.18  106.40
   8   9   3  377.63  167.78
  -8  -9  -3  232.93  123.33
  -8  -9  -3   93.40  195.85
  -8  -9  -4  415.53  125.17
  -8  -9  -4  140.05  115.03
   9   0  -2  -55.02   65.36
   9   0  -1  -65.24   71.18
   9   0   0  103.64   80.53
   9   0   1   96.05   82.25
   9   1  -3  -17.02   49.89
   9   1  -3  -22.37   61.58
   9   1  -2    7.51   52.90
   9   1  -1   11.77   59.29
   9   1   0   85.28   75.45
   9   1   1  203.09   94.00
   9   1   2    0.55   69.95
   9   2  -3  -49.48   69.26
   9   2  -2  131.08   73.68
   9   2  -1   40.55   53.14
   9   2   0  137.61   67.17
   9   2   1   64.45   68.54
   9   2   2   55.27   70.21
   9   2   3  118.18   86.39
   9   3  -3   56.73   66.11
   9   3  -2   63.13   59.08
   9   3  -1    9.10   46.05
   9   3   0   20.49   53.27
   9   3   1   76.17   65.80
   9   3   2  -92.95   73.28
   9   3   3   54.52   75.83
   9   4  -2  259.56   87.57
   9   4  -1  120.00   96.17
   9   4   0   45.30   48.53
   9   4   1   88.98   56.20
   9   4   2   47.65   58.91
   9   4   3   93.26   70.08
   9   4   4  110.23   79.18
   9   5  -2  104.24   87.00
   9   5  -1   31.89   68.33
   9   5  -1   40.76   67.21
   9   5   0   82.63   53.15
   9   5   1  107.34   59.80
   9   5   2   45.18   59.26
   9   5   3   -1.09   58.36
   9   6  -1   28.05   69.90
   9   6   0    4.94   68.38
   9   6   1  141.98   59.69
   9   6   2   25.34   54.37
   9   6   3  102.39   68.48
   0   0   0    0.00    0.00
;
_shelx_hkl_checksum              49906
loop_
_space_group_symop_operation_xyz
'x, y, z'
'-x, -y, -z'
loop_
_atom_site_label
_atom_site_type_symbol
_atom_site_fract_x
_atom_site_fract_y
_atom_site_fract_z
_atom_site_U_iso_or_equiv
_atom_site_adp_type
_atom_site_occupancy
_atom_site_site_symmetry_order
_atom_site_calc_flag
_atom_site_refinement_flags_posn
_atom_site_refinement_flags_adp
C001 C 0.1105(5) 0.4205(4) 0.4228(4) 0.0219(9) Uani 1 1 d . .
C002 C 0.1832(5) 0.4234(4) 0.5406(4) 0.0202(9) Uani 1 1 d . .
C003 C 0.7020(5) 0.2427(4) 0.7142(4) 0.0220(9) Uani 1 1 d . .
C004 C 0.3686(6) 0.3523(4) 0.5943(4) 0.0248(10) Uani 1 1 d . .
C005 C 0.5186(6) 0.3013(4) 0.6486(4) 0.0234(10) Uani 1 1 d . .
C006 C -0.0700(5) 0.4982(4) 0.3853(4) 0.0248(10) Uani 1 1 d . .
H1 H -0.1182 0.4981 0.3066 0.030 Uiso 1 1 calc R U
C007 C 0.7140(6) 0.2305(4) 0.8433(4) 0.0271(10) Uani 1 1 d . .
H2 H 0.6043 0.2574 0.8876 0.033 Uiso 1 1 calc R U
C008 C 0.8664(6) 0.2004(4) 0.6479(4) 0.0268(10) Uani 1 1 d . .
H3 H 0.8592 0.2077 0.5610 0.032 Uiso 1 1 calc R U
C009 C 1.0386(6) 0.1478(4) 0.7128(4) 0.0317(11) Uani 1 1 d . .
H4 H 1.1487 0.1194 0.6696 0.038 Uiso 1 1 calc R U
C00A C 0.8900(6) 0.1778(4) 0.9073(4) 0.0310(11) Uani 1 1 d . .
H5 H 0.8982 0.1707 0.9941 0.037 Uiso 1 1 calc R U
C00B C 0.2197(5) 0.3409(4) 0.3311(4) 0.0231(10) Uani 1 1 d . .
C10 C 0.4004(6) 0.2136(4) 0.3823(4) 0.0271(10) Uani 1 1 d . .
H11 H 0.420(6) 0.186(4) 0.481(4) 0.041(13) Uiso 1 1 d . .
C00D C 1.0494(6) 0.1370(4) 0.8431(4) 0.0324(11) Uani 1 1 d . .
H6 H 1.1667 0.1015 0.8861 0.039 Uiso 1 1 calc R U
B00E B 0.4184(7) 0.0876(5) 0.3042(5) 0.0276(12) Uani 1 1 d . .
H0 H 0.458(5) -0.017(4) 0.362(3) 0.010(9) Uiso 1 1 d . .
B00F B 0.2583(7) 0.4168(5) 0.1801(4) 0.0245(11) Uani 1 1 d . .
H7 H 0.198(6) 0.531(5) 0.153(4) 0.042(13) Uiso 1 1 d . .
B00G B 0.4673(7) 0.1577(5) 0.1487(5) 0.0262(11) Uani 1 1 d . .
H8 H 0.556(6) 0.098(5) 0.092(4) 0.047(13) Uiso 1 1 d . .
B00H B 0.1910(7) 0.1780(5) 0.3439(5) 0.0260(11) Uani 1 1 d . .
H14 H 0.110(5) 0.147(4) 0.412(4) 0.036(12) Uiso 1 1 d . .
B00I B 0.4469(7) 0.3575(5) 0.2938(5) 0.0250(11) Uani 1 1 d . .
H12 H 0.500(6) 0.406(5) 0.353(4) 0.050(14) Uiso 1 1 d . .
B00J B 0.4861(7) 0.3247(6) 0.1414(5) 0.0297(12) Uani 1 1 d . .
H16 H 0.572(6) 0.369(4) 0.086(4) 0.033(12) Uiso 1 1 d . .
B00K B 0.5750(7) 0.1962(5) 0.2767(5) 0.0270(12) Uani 1 1 d . .
H15 H 0.711(6) 0.148(4) 0.325(4) 0.031(11) Uiso 1 1 d . .
B00L B 0.1022(7) 0.3060(5) 0.2093(5) 0.0274(12) Uani 1 1 d . .
H10 H -0.055(7) 0.346(5) 0.198(5) 0.067(16) Uiso 1 1 d . .
B00M B 0.2689(7) 0.2952(5) 0.0886(5) 0.0286(12) Uani 1 1 d . .
H13 H 0.226(6) 0.343(5) -0.029(4) 0.047(13) Uiso 1 1 d . .
B00N B 0.2302(7) 0.1474(5) 0.1900(4) 0.0267(12) Uani 1 1 d . .
H9 H 0.162(5) 0.078(4) 0.159(4) 0.028(11) Uiso 1 1 d . .
loop_
_atom_site_aniso_label
_atom_site_aniso_U_11
_atom_site_aniso_U_22
_atom_site_aniso_U_33
_atom_site_aniso_U_23
_atom_site_aniso_U_13
_atom_site_aniso_U_12
C001 0.022(2) 0.020(2) 0.025(2) -0.0078(18) -0.0019(19) -0.0059(18)
C002 0.015(2) 0.021(2) 0.025(2) -0.0056(18) 0.0045(18) -0.0042(17)
C003 0.017(2) 0.026(2) 0.024(2) -0.0041(18) -0.0035(18) -0.0072(18)
C004 0.023(2) 0.025(2) 0.024(2) -0.0064(18) -0.0018(19) -0.0008(19)
C005 0.023(2) 0.021(2) 0.026(2) -0.0068(18) 0.0017(19) -0.0036(19)
C006 0.023(2) 0.028(3) 0.023(2) -0.0053(19) -0.0045(19) -0.0055(19)
C007 0.022(2) 0.033(3) 0.028(2) -0.008(2) -0.0017(19) -0.008(2)
C008 0.026(2) 0.029(3) 0.023(2) -0.0012(19) 0.0009(19) -0.007(2)
C009 0.017(2) 0.034(3) 0.042(3) -0.010(2) 0.002(2) -0.002(2)
C00A 0.034(3) 0.030(3) 0.027(2) -0.006(2) -0.007(2) -0.006(2)
C00B 0.022(2) 0.022(2) 0.024(2) -0.0032(18) -0.0070(18) -0.0023(18)
C10 0.023(2) 0.023(2) 0.034(3) -0.008(2) -0.006(2) 0.0018(18)
C00D 0.026(2) 0.029(3) 0.040(3) -0.005(2) -0.010(2) -0.003(2)
B00E 0.027(3) 0.023(3) 0.031(3) -0.010(2) -0.011(2) 0.003(2)
B00F 0.030(3) 0.023(3) 0.021(3) -0.004(2) -0.004(2) -0.010(2)
B00G 0.025(3) 0.023(3) 0.028(3) -0.008(2) 0.002(2) 0.000(2)
B00H 0.024(3) 0.025(3) 0.030(3) -0.008(2) -0.001(2) -0.005(2)
B00I 0.021(3) 0.030(3) 0.027(3) -0.010(2) 0.000(2) -0.007(2)
B00J 0.026(3) 0.035(3) 0.029(3) -0.011(2) 0.004(2) -0.007(2)
B00K 0.024(3) 0.027(3) 0.029(3) -0.008(2) -0.005(2) -0.002(2)
B00L 0.031(3) 0.023(3) 0.028(3) -0.007(2) -0.005(2) -0.006(2)
B00M 0.025(3) 0.026(3) 0.033(3) -0.008(2) -0.006(2) 0.000(2)
B00N 0.028(3) 0.031(3) 0.022(3) -0.009(2) 0.004(2) -0.004(2)
loop_
_atom_type_symbol
_atom_type_description
_atom_type_scat_dispersion_real
_atom_type_scat_dispersion_imag
_atom_type_scat_source
C C 0.0033 0.0016 'International Tables Vol C Tables 4.2.6.8 and 6.1.1.4'
H H 0.0000 0.0000 'International Tables Vol C Tables 4.2.6.8 and 6.1.1.4'
B B 0.0013 0.0007 'International Tables Vol C Tables 4.2.6.8 and 6.1.1.4'
loop_
_geom_angle_atom_site_label_1
_geom_angle_atom_site_label_2
_geom_angle_atom_site_label_3
_geom_angle
_geom_angle_site_symmetry_1
_geom_angle_site_symmetry_3
C006 C001 C002 117.9(4) . .
C006 C001 C00B 117.5(3) . .
C002 C001 C00B 124.5(4) . .
C006 C002 C001 118.9(4) 2_566 .
C006 C002 C004 115.1(3) 2_566 .
C001 C002 C004 126.0(4) . .
C007 C003 C008 120.0(4) . .
C007 C003 C005 119.3(4) . .
C008 C003 C005 120.7(4) . .
C005 C004 C002 172.9(4) . .
C004 C005 C003 178.5(4) . .
C001 C006 C002 123.2(3) . 2_566
C001 C006 H1 118.4 . .
C002 C006 H1 118.4 2_566 .
C003 C007 C00A 120.0(4) . .
C003 C007 H2 120.0 . .
C00A C007 H2 120.0 . .
C009 C008 C003 119.1(4) . .
C009 C008 H3 120.4 . .
C003 C008 H3 120.4 . .
C008 C009 C00D 120.4(4) . .
C008 C009 H4 119.8 . .
C00D C009 H4 119.8 . .
C00D C00A C007 120.0(4) . .
C00D C00A H5 120.0 . .
C007 C00A H5 120.0 . .
C001 C00B C10 120.2(3) . .
C001 C00B B00F 121.3(3) . .
C10 C00B B00F 109.7(3) . .
C001 C00B B00I 118.1(3) . .
C10 C00B B00I 61.4(3) . .
B00F C00B B00I 62.1(3) . .
C001 C00B B00L 121.4(3) . .
C10 C00B B00L 108.3(3) . .
B00F C00B B00L 62.3(3) . .
B00I C00B B00L 112.9(3) . .
C001 C00B B00H 117.2(3) . .
C10 C00B B00H 60.7(3) . .
B00F C00B B00H 113.0(3) . .
B00I C00B B00H 113.6(3) . .
B00L C00B B00H 61.1(3) . .
C00B C10 B00K 113.0(4) . .
C00B C10 B00E 113.1(3) . .
B00K C10 B00E 62.8(3) . .
C00B C10 B00I 61.4(3) . .
B00K C10 B00I 63.3(3) . .
B00E C10 B00I 115.1(4) . .
C00B C10 B00H 63.0(3) . .
B00K C10 B00H 115.6(3) . .
B00E C10 B00H 62.7(3) . .
B00I C10 B00H 115.6(3) . .
C00B C10 H11 115(2) . .
B00K C10 H11 126(2) . .
B00E C10 H11 117(2) . .
B00I C10 H11 123(2) . .
B00H C10 H11 108(2) . .
C00A C00D C009 120.4(4) . .
C00A C00D H6 119.8 . .
C009 C00D H6 119.8 . .
C10 B00E B00G 104.3(4) . .
C10 B00E B00N 104.4(3) . .
B00G B00E B00N 60.6(3) . .
C10 B00E B00K 57.9(3) . .
B00G B00E B00K 60.6(3) . .
B00N B00E B00K 108.9(4) . .
C10 B00E B00H 59.0(3) . .
B00G B00E B00H 108.8(4) . .
B00N B00E B00H 59.9(3) . .
B00K B00E B00H 108.4(4) . .
C10 B00E H0 117.4(17) . .
B00G B00E H0 132.1(18) . .
B00N B00E H0 124.0(16) . .
B00K B00E H0 124.2(16) . .
B00H B00E H0 112.3(18) . .
C00B B00F B00I 59.1(3) . .
C00B B00F B00M 105.7(3) . .
B00I B00F B00M 108.3(4) . .
C00B B00F B00L 59.6(3) . .
B00I B00F B00L 108.4(4) . .
B00M B00F B00L 59.2(3) . .
C00B B00F B00J 105.4(3) . .
B00I B00F B00J 59.6(3) . .
B00M B00F B00J 60.5(3) . .
B00L B00F B00J 107.6(4) . .
C00B B00F H7 116(2) . .
B00I B00F H7 116.8(19) . .
B00M B00F H7 130(2) . .
B00L B00F H7 121(2) . .
B00J B00F H7 127(2) . .
B00E B00G B00N 60.0(3) . .
B00E B00G B00K 60.1(3) . .
B00N B00G B00K 108.0(4) . .
B00E B00G B00J 108.5(4) . .
B00N B00G B00J 108.3(4) . .
B00K B00G B00J 60.1(3) . .
B00E B00G B00M 107.8(4) . .
B00N B00G B00M 59.8(3) . .
B00K B00G B00M 107.8(4) . .
B00J B00G B00M 60.1(3) . .
B00E B00G H8 120(3) . .
B00N B00G H8 124(2) . .
B00K B00G H8 119(2) . .
B00J B00G H8 121(3) . .
B00M B00G H8 125(2) . .
C10 B00H C00B 56.3(2) . .
C10 B00H B00N 103.6(4) . .
C00B B00H B00N 104.8(4) . .
C10 B00H B00L 103.3(4) . .
C00B B00H B00L 58.9(3) . .
B00N B00H B00L 59.7(3) . .
C10 B00H B00E 58.3(3) . .
C00B B00H B00E 104.2(3) . .
B00N B00H B00E 59.5(3) . .
B00L B00H B00E 106.9(4) . .
C10 B00H H14 119(2) . .
C00B B00H H14 116(3) . .
B00N B00H H14 132(2) . .
B00L B00H H14 123(2) . .
B00E B00H H14 127(2) . .
C10 B00I C00B 57.2(2) . .
C10 B00I B00F 104.0(3) . .
C00B B00I B00F 58.8(2) . .
C10 B00I B00J 104.0(3) . .
C00B B00I B00J 106.1(3) . .
B00F B00I B00J 60.9(3) . .
C10 B00I B00K 57.5(3) . .
C00B B00I B00K 104.9(3) . .
B00F B00I B00K 108.5(3) . .
B00J B00I B00K 60.4(3) . .
C10 B00I H12 109(3) . .
C00B B00I H12 112(3) . .
B00F B00I H12 130(3) . .
B00J B00I H12 139(3) . .
B00K B00I H12 120(2) . .
B00I B00J B00K 60.3(3) . .
B00I B00J B00G 107.9(4) . .
B00K B00J B00G 59.6(3) . .
B00I B00J B00F 59.5(3) . .
B00K B00J B00F 107.3(4) . .
B00G B00J B00F 107.5(4) . .
B00I B00J B00M 107.3(4) . .
B00K B00J B00M 107.5(4) . .
B00G B00J B00M 60.2(3) . .
B00F B00J B00M 59.4(3) . .
B00I B00J H16 118(2) . .
B00K B00J H16 121(2) . .
B00G B00J H16 125(3) . .
B00F B00J H16 121(3) . .
B00M B00J H16 124(2) . .
C10 B00K B00E 59.3(3) . .
C10 B00K B00G 104.4(3) . .
B00E B00K B00G 59.3(3) . .
C10 B00K B00I 59.2(3) . .
B00E B00K B00I 108.8(4) . .
B00G B00K B00I 107.7(3) . .
C10 B00K B00J 104.5(3) . .
B00E B00K B00J 107.9(3) . .
B00G B00K B00J 60.3(3) . .
B00I B00K B00J 59.3(3) . .
C10 B00K H15 110(2) . .
B00E B00K H15 110(2) . .
B00G B00K H15 129(2) . .
B00I B00K H15 122(2) . .
B00J B00K H15 138(2) . .
C00B B00L B00M 105.3(3) . .
C00B B00L B00N 106.0(3) . .
B00M B00L B00N 60.8(3) . .
C00B B00L B00H 60.0(3) . .
B00M B00L B00H 109.1(4) . .
B00N B00L B00H 60.1(3) . .
C00B B00L B00F 58.0(2) . .
B00M B00L B00F 60.2(3) . .
B00N B00L B00F 108.7(4) . .
B00H B00L B00F 108.6(3) . .
C00B B00L H10 118(3) . .
B00M B00L H10 127(3) . .
B00N B00L H10 126(3) . .
B00H B00L H10 118(3) . .
B00F B00L H10 120(3) . .
B00L B00M B00F 60.6(3) . .
B00L B00M B00N 59.9(3) . .
B00F B00M B00N 108.3(4) . .
B00L B00M B00J 108.4(3) . .
B00F B00M B00J 60.1(3) . .
B00N B00M B00J 107.7(4) . .
B00L B00M B00G 107.4(4) . .
B00F B00M B00G 107.6(3) . .
B00N B00M B00G 59.5(3) . .
B00J B00M B00G 59.7(3) . .
B00L B00M H13 123.7(19) . .
B00F B00M H13 114(2) . .
B00N B00M H13 130(2) . .
B00J B00M H13 115.0(19) . .
B00G B00M H13 125(2) . .
B00L B00N B00E 108.2(3) . .
B00L B00N B00H 60.3(3) . .
B00E B00N B00H 60.5(3) . .
B00L B00N B00G 108.0(4) . .
B00E B00N B00G 59.3(3) . .
B00H B00N B00G 108.2(3) . .
B00L B00N B00M 59.4(3) . .
B00E B00N B00M 108.0(3) . .
B00H B00N B00M 108.1(4) . .
B00G B00N B00M 60.7(3) . .
B00L B00N H9 123(2) . .
B00E B00N H9 120(2) . .
B00H B00N H9 120(2) . .
B00G B00N H9 122(2) . .
B00M B00N H9 124(2) . .
loop_
_geom_bond_atom_site_label_1
_geom_bond_atom_site_label_2
_geom_bond_distance
_geom_bond_site_symmetry_2
C001 C006 1.378(5) .
C001 C002 1.403(5) .
C001 C00B 1.523(6) .
C002 C006 1.389(5) 2_566
C002 C004 1.434(5) .
C003 C007 1.381(5) .
C003 C008 1.399(5) .
C003 C005 1.448(5) .
C004 C005 1.192(5) .
C006 C002 1.389(5) 2_566
C006 H1 0.9300 .
C007 C00A 1.392(5) .
C007 H2 0.9300 .
C008 C009 1.374(5) .
C008 H3 0.9300 .
C009 C00D 1.394(6) .
C009 H4 0.9300 .
C00A C00D 1.356(6) .
C00A H5 0.9300 .
C00B C10 1.640(6) .
C00B B00F 1.706(6) .
C00B B00I 1.712(6) .
C00B B00L 1.735(6) .
C00B B00H 1.755(6) .
C10 B00K 1.681(7) .
C10 B00E 1.705(6) .
C10 B00I 1.711(7) .
C10 B00H 1.717(6) .
C10 H11 1.05(4) .
C00D H6 0.9300 .
B00E B00G 1.750(7) .
B00E B00N 1.762(7) .
B00E B00K 1.765(7) .
B00E B00H 1.781(7) .
B00E H0 1.12(3) .
B00F B00I 1.762(7) .
B00F B00M 1.773(7) .
B00F B00L 1.780(7) .
B00F B00J 1.786(7) .
B00F H7 1.15(4) .
B00G B00N 1.773(7) .
B00G B00K 1.773(7) .
B00G B00J 1.785(7) .
B00G B00M 1.795(7) .
B00G H8 1.06(5) .
B00H B00N 1.770(7) .
B00H B00L 1.773(7) .
B00H H14 0.97(4) .
B00I B00J 1.763(7) .
B00I B00K 1.781(7) .
B00I H12 1.03(4) .
B00J B00K 1.782(7) .
B00J B00M 1.794(7) .
B00J H16 0.98(4) .
B00K H15 1.07(4) .
B00L B00M 1.754(8) .
B00L B00N 1.762(7) .
B00L H10 1.11(5) .
B00M B00N 1.779(7) .
B00M H13 1.28(4) .
B00N H9 1.09(4) .
loop_
_geom_torsion_atom_site_label_1
_geom_torsion_atom_site_label_2
_geom_torsion_atom_site_label_3
_geom_torsion_atom_site_label_4
_geom_torsion
_geom_torsion_site_symmetry_4
C006 C001 C002 C006 1.1(6) 2_566
C00B C001 C002 C006 179.0(4) 2_566
C006 C001 C002 C004 -178.4(4) .
C00B C001 C002 C004 -0.5(6) .
C002 C001 C006 C002 -1.2(7) 2_566
C00B C001 C006 C002 -179.2(4) 2_566
C008 C003 C007 C00A 0.9(6) .
C005 C003 C007 C00A -178.2(4) .
C007 C003 C008 C009 -0.5(6) .
C005 C003 C008 C009 178.6(4) .
C003 C008 C009 C00D 0.0(6) .
C003 C007 C00A C00D -0.8(6) .
C006 C001 C00B C10 -161.0(4) .
C002 C001 C00B C10 21.1(6) .
C006 C001 C00B B00F 54.9(5) .
C002 C001 C00B B00F -123.0(4) .
C006 C001 C00B B00I 127.6(4) .
C002 C001 C00B B00I -50.4(5) .
C006 C001 C00B B00L -19.7(6) .
C002 C001 C00B B00L 162.4(4) .
C006 C001 C00B B00H -90.8(4) .
C002 C001 C00B B00H 91.3(5) .
C001 C00B C10 B00K -145.7(4) .
B00F C00B C10 B00K 2.2(4) .
B00I C00B C10 B00K -38.1(3) .
B00L C00B C10 B00K 68.5(4) .
B00H C00B C10 B00K 108.1(4) .
C001 C00B C10 B00E 145.3(4) .
B00F C00B C10 B00E -66.8(4) .
B00I C00B C10 B00E -107.1(4) .
B00L C00B C10 B00E -0.5(5) .
B00H C00B C10 B00E 39.1(4) .
C001 C00B C10 B00I -107.6(4) .
B00F C00B C10 B00I 40.2(3) .
B00L C00B C10 B00I 106.6(4) .
B00H C00B C10 B00I 146.1(4) .
C001 C00B C10 B00H 106.3(4) .
B00F C00B C10 B00H -105.9(3) .
B00I C00B C10 B00H -146.1(4) .
B00L C00B C10 B00H -39.5(3) .
C007 C00A C00D C009 0.3(7) .
C008 C009 C00D C00A 0.1(7) .
C00B C10 B00E B00G 64.4(4) .
B00K C10 B00E B00G -40.7(3) .
B00I C10 B00E B00G -3.6(4) .
B00H C10 B00E B00G 103.5(4) .
C00B C10 B00E B00N 1.6(5) .
B00K C10 B00E B00N -103.5(4) .
B00I C10 B00E B00N -66.4(4) .
B00H C10 B00E B00N 40.7(3) .
C00B C10 B00E B00K 105.0(4) .
B00I C10 B00E B00K 37.1(3) .
B00H C10 B00E B00K 144.2(4) .
C00B C10 B00E B00H -39.2(4) .
B00K C10 B00E B00H -144.2(4) .
B00I C10 B00E B00H -107.2(4) .
C001 C00B B00F B00I 107.5(4) .
C10 C00B B00F B00I -39.9(3) .
B00L C00B B00F B00I -140.8(4) .
B00H C00B B00F B00I -105.5(3) .
C001 C00B B00F B00M -150.2(3) .
C10 C00B B00F B00M 62.3(4) .
B00I C00B B00F B00M 102.2(4) .
B00L C00B B00F B00M -38.6(3) .
B00H C00B B00F B00M -3.3(4) .
C001 C00B B00F B00L -111.7(4) .
C10 C00B B00F B00L 100.9(4) .
B00I C00B B00F B00L 140.8(4) .
B00H C00B B00F B00L 35.3(3) .
C001 C00B B00F B00J 146.7(3) .
C10 C00B B00F B00J -0.8(4) .
B00I C00B B00F B00J 39.2(3) .
B00L C00B B00F B00J -101.7(4) .
B00H C00B B00F B00J -66.3(4) .
C10 B00E B00G B00N -98.7(3) .
B00K B00E B00G B00N -138.0(4) .
B00H B00E B00G B00N -37.0(3) .
C10 B00E B00G B00K 39.4(3) .
B00N B00E B00G B00K 138.0(4) .
B00H B00E B00G B00K 101.0(4) .
C10 B00E B00G B00J 2.3(4) .
B00N B00E B00G B00J 100.9(4) .
B00K B00E B00G B00J -37.1(3) .
B00H B00E B00G B00J 63.9(4) .
C10 B00E B00G B00M -61.4(4) .
B00N B00E B00G B00M 37.3(3) .
B00K B00E B00G B00M -100.7(4) .
B00H B00E B00G B00M 0.3(4) .
B00K C10 B00H C00B -104.1(4) .
B00E C10 B00H C00B -139.3(4) .
B00I C10 B00H C00B -32.9(3) .
C00B C10 B00H B00N 98.9(4) .
B00K C10 B00H B00N -5.1(5) .
B00E C10 B00H B00N -40.4(3) .
B00I C10 B00H B00N 66.1(4) .
C00B C10 B00H B00L 37.4(3) .
B00K C10 B00H B00L -66.7(4) .
B00E C10 B00H B00L -101.9(4) .
B00I C10 B00H B00L 4.5(5) .
C00B C10 B00H B00E 139.3(4) .
B00K C10 B00H B00E 35.2(4) .
B00I C10 B00H B00E 106.4(4) .
C001 C00B B00H C10 -111.1(4) .
B00F C00B B00H C10 100.5(4) .
B00I C00B B00H C10 32.3(3) .
B00L C00B B00H C10 136.3(4) .
C001 C00B B00H B00N 152.3(3) .
C10 C00B B00H B00N -96.6(4) .
B00F C00B B00H B00N 3.9(4) .
B00I C00B B00H B00N -64.4(4) .
B00L C00B B00H B00N 39.7(3) .
C001 C00B B00H B00L 112.6(4) .
C10 C00B B00H B00L -136.3(4) .
B00F C00B B00H B00L -35.8(3) .
B00I C00B B00H B00L -104.1(4) .
C001 C00B B00H B00E -146.0(3) .
C10 C00B B00H B00E -34.9(3) .
B00F C00B B00H B00E 65.6(4) .
B00I C00B B00H B00E -2.7(4) .
B00L C00B B00H B00E 101.4(4) .
B00G B00E B00H C10 -95.8(4) .
B00N B00E B00H C10 -133.1(4) .
B00K B00E B00H C10 -31.5(3) .
C10 B00E B00H C00B 34.1(3) .
B00G B00E B00H C00B -61.7(4) .
B00N B00E B00H C00B -99.0(4) .
B00K B00E B00H C00B 2.6(4) .
C10 B00E B00H B00N 133.1(4) .
B00G B00E B00H B00N 37.3(3) .
B00K B00E B00H B00N 101.6(4) .
C10 B00E B00H B00L 95.4(4) .
B00G B00E B00H B00L -0.4(4) .
B00N B00E B00H B00L -37.7(3) .
B00K B00E B00H B00L 63.9(4) .
B00K C10 B00I C00B 140.6(3) .
B00E C10 B00I C00B 103.7(3) .
B00H C10 B00I C00B 33.4(3) .
C00B C10 B00I B00F -37.4(3) .
B00K C10 B00I B00F 103.2(4) .
B00E C10 B00I B00F 66.4(4) .
B00H C10 B00I B00F -3.9(5) .
C00B C10 B00I B00J -100.3(3) .
B00K C10 B00I B00J 40.3(3) .
B00E C10 B00I B00J 3.4(4) .
B00H C10 B00I B00J -66.9(4) .
C00B C10 B00I B00K -140.6(3) .
B00E C10 B00I B00K -36.9(3) .
B00H C10 B00I B00K -107.2(4) .
C001 C00B B00I C10 111.0(4) .
B00F C00B B00I C10 -136.5(3) .
B00L C00B B00I C10 -99.1(4) .
B00H C00B B00I C10 -32.0(3) .
C001 C00B B00I B00F -112.5(4) .
C10 C00B B00I B00F 136.5(3) .
B00L C00B B00I B00F 37.4(3) .
B00H C00B B00I B00F 104.5(4) .
C001 C00B B00I B00J -152.5(4) .
C10 C00B B00I B00J 96.6(4) .
B00F C00B B00I B00J -39.9(3) .
B00L C00B B00I B00J -2.6(5) .
B00H C00B B00I B00J 64.5(4) .
C001 C00B B00I B00K 144.6(3) .
C10 C00B B00I B00K 33.6(3) .
B00F C00B B00I B00K -102.9(4) .
B00L C00B B00I B00K -65.5(4) .
B00H C00B B00I B00K 1.6(4) .
C00B B00F B00I C10 36.6(3) .
B00M B00F B00I C10 -61.1(4) .
B00L B00F B00I C10 1.6(5) .
B00J B00F B00I C10 -98.5(4) .
B00M B00F B00I C00B -97.7(4) .
B00L B00F B00I C00B -35.0(3) .
B00J B00F B00I C00B -135.1(4) .
C00B B00F B00I B00J 135.1(4) .
B00M B00F B00I B00J 37.4(4) .
B00L B00F B00I B00J 100.0(4) .
C00B B00F B00I B00K 96.6(4) .
B00M B00F B00I B00K -1.1(5) .
B00L B00F B00I B00K 61.5(4) .
B00J B00F B00I B00K -38.5(3) .
C10 B00I B00J B00K -38.8(3) .
C00B B00I B00J B00K -98.3(4) .
B00F B00I B00J B00K -137.2(4) .
C10 B00I B00J B00G -1.7(4) .
C00B B00I B00J B00G -61.2(4) .
B00F B00I B00J B00G -100.1(4) .
B00K B00I B00J B00G 37.1(3) .
C10 B00I B00J B00F 98.4(3) .
C00B B00I B00J B00F 39.0(3) .
B00K B00I B00J B00F 137.2(4) .
C10 B00I B00J B00M 61.8(4) .
C00B B00I B00J B00M 2.3(5) .
B00F B00I B00J B00M -36.6(3) .
B00K B00I B00J B00M 100.6(4) .
B00E B00G B00J B00I -0.3(4) .
B00N B00G B00J B00I 63.3(4) .
B00K B00G B00J B00I -37.4(3) .
B00M B00G B00J B00I 100.1(4) .
B00E B00G B00J B00K 37.1(3) .
B00N B00G B00J B00K 100.7(4) .
B00M B00G B00J B00K 137.5(4) .
B00E B00G B00J B00F -63.1(4) .
B00N B00G B00J B00F 0.5(4) .
B00K B00G B00J B00F -100.2(4) .
B00M B00G B00J B00F 37.3(3) .
B00E B00G B00J B00M -100.4(4) .
B00N B00G B00J B00M -36.8(3) .
B00K B00G B00J B00M -137.5(4) .
C00B B00F B00J B00I -39.0(3) .
B00M B00F B00J B00I -138.6(4) .
B00L B00F B00J B00I -101.4(4) .
C00B B00F B00J B00K -0.8(4) .
B00I B00F B00J B00K 38.2(3) .
B00M B00F B00J B00K -100.4(4) .
B00L B00F B00J B00K -63.2(4) .
C00B B00F B00J B00G 62.0(4) .
B00I B00F B00J B00G 100.9(4) .
B00M B00F B00J B00G -37.7(3) .
B00L B00F B00J B00G -0.5(4) .
C00B B00F B00J B00M 99.6(4) .
B00I B00F B00J B00M 138.6(4) .
B00L B00F B00J B00M 37.2(3) .
C00B C10 B00K B00E -105.1(3) .
B00I C10 B00K B00E -142.4(3) .
B00H C10 B00K B00E -35.2(4) .
C00B C10 B00K B00G -65.0(4) .
B00E C10 B00K B00G 40.1(3) .
B00I C10 B00K B00G -102.3(4) .
B00H C10 B00K B00G 4.9(5) .
C00B C10 B00K B00I 37.3(3) .
B00E C10 B00K B00I 142.4(3) .
B00H C10 B00K B00I 107.2(4) .
C00B C10 B00K B00J -2.6(4) .
B00E C10 B00K B00J 102.5(3) .
B00I C10 B00K B00J -39.9(3) .
B00H C10 B00K B00J 67.3(4) .
B00G B00E B00K C10 133.5(4) .
B00N B00E B00K C10 95.5(4) .
B00H B00E B00K C10 31.9(3) .
C10 B00E B00K B00G -133.5(4) .
B00N B00E B00K B00G -38.0(3) .
B00H B00E B00K B00G -101.6(4) .
C10 B00E B00K B00I -33.6(3) .
B00G B00E B00K B00I 99.9(4) .
B00N B00E B00K B00I 61.9(4) .
B00H B00E B00K B00I -1.7(5) .
C10 B00E B00K B00J -96.5(4) .
B00G B00E B00K B00J 37.0(3) .
B00N B00E B00K B00J -1.0(5) .
B00H B00E B00K B00J -64.6(4) .
B00E B00G B00K C10 -40.0(3) .
B00N B00G B00K C10 -2.5(5) .
B00J B00G B00K C10 98.7(4) .
B00M B00G B00K C10 60.7(4) .
B00N B00G B00K B00E 37.6(3) .
B00J B00G B00K B00E 138.7(4) .
B00M B00G B00K B00E 100.7(4) .
B00E B00G B00K B00I -101.8(4) .
B00N B00G B00K B00I -64.2(4) .
B00J B00G B00K B00I 37.0(3) .
B00M B00G B00K B00I -1.0(5) .
B00E B00G B00K B00J -138.7(4) .
B00N B00G B00K B00J -101.2(4) .
B00M B00G B00K B00J -38.0(3) .
C00B B00I B00K C10 -33.5(3) .
B00F B00I B00K C10 -95.1(3) .
B00J B00I B00K C10 -133.8(3) .
C10 B00I B00K B00E 33.7(3) .
C00B B00I B00K B00E 0.1(4) .
B00F B00I B00K B00E -61.4(4) .
B00J B00I B00K B00E -100.2(4) .
C10 B00I B00K B00G 96.4(4) .
C00B B00I B00K B00G 62.9(4) .
B00F B00I B00K B00G 1.3(5) .
B00J B00I B00K B00G -37.4(3) .
C10 B00I B00K B00J 133.8(3) .
C00B B00I B00K B00J 100.3(3) .
B00F B00I B00K B00J 38.7(3) .
B00I B00J B00K C10 39.8(3) .
B00G B00J B00K C10 -98.5(4) .
B00F B00J B00K C10 2.0(4) .
B00M B00J B00K C10 -60.5(4) .
B00I B00J B00K B00E 101.7(4) .
B00G B00J B00K B00E -36.6(3) .
B00F B00J B00K B00E 63.9(4) .
B00M B00J B00K B00E 1.3(5) .
B00I B00J B00K B00G 138.3(4) .
B00F B00J B00K B00G 100.5(4) .
B00M B00J B00K B00G 37.9(3) .
B00G B00J B00K B00I -138.3(4) .
B00F B00J B00K B00I -37.8(3) .
B00M B00J B00K B00I -100.3(4) .
C001 C00B B00L B00M 150.5(4) .
C10 C00B B00L B00M -64.2(4) .
B00F C00B B00L B00M 39.0(3) .
B00I C00B B00L B00M 1.7(5) .
B00H C00B B00L B00M -103.5(4) .
C001 C00B B00L B00N -146.2(4) .
C10 C00B B00L B00N -0.8(4) .
B00F C00B B00L B00N 102.3(4) .
B00I C00B B00L B00N 65.1(4) .
B00H C00B B00L B00N -40.2(3) .
C001 C00B B00L B00H -106.0(4) .
C10 C00B B00L B00H 39.3(3) .
B00F C00B B00L B00H 142.5(4) .
B00I C00B B00L B00H 105.3(4) .
C001 C00B B00L B00F 111.5(4) .
C10 C00B B00L B00F -103.2(4) .
B00I C00B B00L B00F -37.3(4) .
B00H C00B B00L B00F -142.5(4) .
C10 B00H B00L C00B -36.2(3) .
B00N B00H B00L C00B -134.3(4) .
B00E B00H B00L C00B -96.7(3) .
C10 B00H B00L B00M 60.8(4) .
C00B B00H B00L B00M 97.0(4) .
B00N B00H B00L B00M -37.3(3) .
B00E B00H B00L B00M 0.3(4) .
C10 B00H B00L B00N 98.1(4) .
C00B B00H B00L B00N 134.3(4) .
B00E B00H B00L B00N 37.6(3) .
C10 B00H B00L B00F -3.2(5) .
C00B B00H B00L B00F 33.0(3) .
B00N B00H B00L B00F -101.3(4) .
B00E B00H B00L B00F -63.7(4) .
B00I B00F B00L C00B 34.8(3) .
B00M B00F B00L C00B 135.6(3) .
B00J B00F B00L C00B 97.8(3) .
C00B B00F B00L B00M -135.6(4) .
B00I B00F B00L B00M -100.8(4) .
B00J B00F B00L B00M -37.8(3) .
C00B B00F B00L B00N -97.6(4) .
B00I B00F B00L B00N -62.7(4) .
B00M B00F B00L B00N 38.1(3) .
B00J B00F B00L B00N 0.3(4) .
C00B B00F B00L B00H -33.8(3) .
B00I B00F B00L B00H 1.0(5) .
B00M B00F B00L B00H 101.8(4) .
B00J B00F B00L B00H 64.0(4) .
C00B B00L B00M B00F -38.0(3) .
B00N B00L B00M B00F -138.0(3) .
B00H B00L B00M B00F -101.0(3) .
C00B B00L B00M B00N 100.0(4) .
B00H B00L B00M B00N 37.0(3) .
B00F B00L B00M B00N 138.0(3) .
C00B B00L B00M B00J -0.1(5) .
B00N B00L B00M B00J -100.2(4) .
B00H B00L B00M B00J -63.2(4) .
B00F B00L B00M B00J 37.8(3) .
C00B B00L B00M B00G 62.9(4) .
B00N B00L B00M B00G -37.1(3) .
B00H B00L B00M B00G -0.2(4) .
B00F B00L B00M B00G 100.8(4) .
C00B B00F B00M B00L 38.8(3) .
B00I B00F B00M B00L 100.9(4) .
B00J B00F B00M B00L 137.9(4) .
C00B B00F B00M B00N 1.3(4) .
B00I B00F B00M B00N 63.3(4) .
B00L B00F B00M B00N -37.6(3) .
B00J B00F B00M B00N 100.3(4) .
C00B B00F B00M B00J -99.0(4) .
B00I B00F B00M B00J -36.9(3) .
B00L B00F B00M B00J -137.9(4) .
C00B B00F B00M B00G -61.6(4) .
B00I B00F B00M B00G 0.5(5) .
B00L B00F B00M B00G -100.4(4) .
B00J B00F B00M B00G 37.4(3) .
B00I B00J B00M B00L -1.4(5) .
B00K B00J B00M B00L 62.1(4) .
B00G B00J B00M B00L 99.8(4) .
B00F B00J B00M B00L -38.1(3) .
B00I B00J B00M B00F 36.7(3) .
B00K B00J B00M B00F 100.2(4) .
B00G B00J B00M B00F 137.8(4) .
B00I B00J B00M B00N -64.7(4) .
B00K B00J B00M B00N -1.2(5) .
B00G B00J B00M B00N 36.5(3) .
B00F B00J B00M B00N -101.3(4) .
B00I B00J B00M B00G -101.2(4) .
B00K B00J B00M B00G -37.6(3) .
B00F B00J B00M B00G -137.8(4) .
B00E B00G B00M B00L -0.1(4) .
B00N B00G B00M B00L 37.3(3) .
B00K B00G B00M B00L -63.6(4) .
B00J B00G B00M B00L -101.6(4) .
B00E B00G B00M B00F 63.8(4) .
B00N B00G B00M B00F 101.2(4) .
B00K B00G B00M B00F 0.3(5) .
B00J B00G B00M B00F -37.6(3) .
B00E B00G B00M B00N -37.4(3) .
B00K B00G B00M B00N -100.9(4) .
B00J B00G B00M B00N -138.9(4) .
B00E B00G B00M B00J 101.5(4) .
B00N B00G B00M B00J 138.9(4) .
B00K B00G B00M B00J 38.0(4) .
C00B B00L B00N B00E 1.8(5) .
B00M B00L B00N B00E 100.6(4) .
B00H B00L B00N B00E -38.4(3) .
B00F B00L B00N B00E 62.8(4) .
C00B B00L B00N B00H 40.2(3) .
B00M B00L B00N B00H 139.0(3) .
B00F B00L B00N B00H 101.2(3) .
C00B B00L B00N B00G -61.0(4) .
B00M B00L B00N B00G 37.9(3) .
B00H B00L B00N B00G -101.2(4) .
B00F B00L B00N B00G 0.0(4) .
C00B B00L B00N B00M -98.8(4) .
B00H B00L B00N B00M -139.0(3) .
B00F B00L B00N B00M -37.8(3) .
C10 B00E B00N B00L -2.0(5) .
B00G B00E B00N B00L -100.6(4) .
B00K B00E B00N B00L -62.5(5) .
B00H B00E B00N B00L 38.3(4) .
C10 B00E B00N B00H -40.3(3) .
B00G B00E B00N B00H -138.8(4) .
B00K B00E B00N B00H -100.8(4) .
C10 B00E B00N B00G 98.6(4) .
B00K B00E B00N B00G 38.0(3) .
B00H B00E B00N B00G 138.8(4) .
C10 B00E B00N B00M 60.8(4) .
B00G B00E B00N B00M -37.7(3) .
B00K B00E B00N B00M 0.3(5) .
B00H B00E B00N B00M 101.1(4) .
C10 B00H B00N B00L -97.6(4) .
C00B B00H B00N B00L -39.3(3) .
B00E B00H B00N B00L -137.3(4) .
C10 B00H B00N B00E 39.7(3) .
C00B B00H B00N B00E 98.0(3) .
B00L B00H B00N B00E 137.3(4) .
C10 B00H B00N B00G 3.1(4) .
C00B B00H B00N B00G 61.4(4) .
B00L B00H B00N B00G 100.7(4) .
B00E B00H B00N B00G -36.6(3) .
C10 B00H B00N B00M -61.2(4) .
C00B B00H B00N B00M -2.9(4) .
B00L B00H B00N B00M 36.4(3) .
B00E B00H B00N B00M -100.9(4) .
B00E B00G B00N B00L 100.9(4) .
B00K B00G B00N B00L 63.3(4) .
B00J B00G B00N B00L -0.3(5) .
B00M B00G B00N B00L -37.3(3) .
B00K B00G B00N B00E -37.6(3) .
B00J B00G B00N B00E -101.2(4) .
B00M B00G B00N B00E -138.1(4) .
B00E B00G B00N B00H 37.1(3) .
B00K B00G B00N B00H -0.5(5) .
B00J B00G B00N B00H -64.1(4) .
B00M B00G B00N B00H -101.0(4) .
B00E B00G B00N B00M 138.1(4) .
B00K B00G B00N B00M 100.5(4) .
B00J B00G B00N B00M 36.9(3) .
B00F B00M B00N B00L 37.9(3) .
B00J B00M B00N B00L 101.4(4) .
B00G B00M B00N B00L 138.0(3) .
B00L B00M B00N B00E -100.9(4) .
B00F B00M B00N B00E -63.0(4) .
B00J B00M B00N B00E 0.6(5) .
B00G B00M B00N B00E 37.1(3) .
B00L B00M B00N B00H -36.8(3) .
B00F B00M B00N B00H 1.1(4) .
B00J B00M B00N B00H 64.6(4) .
B00G B00M B00N B00H 101.2(3) .
B00L B00M B00N B00G -138.0(3) .
B00F B00M B00N B00G -100.1(3) .
B00J B00M B00N B00G -36.6(3) .
