#------------------------------------------------------------------------------
#$Date: 2019-11-23 22:35:10 +0200 (Sat, 23 Nov 2019) $
#$Revision: 235373 $
#$URL: file:///home/coder/svn-repositories/cod/cif/1/55/36/1553650.cif $
#------------------------------------------------------------------------------
#
# This file is available in the Crystallography Open Database (COD),
# http://www.crystallography.net/
#
# All data on this site have been placed in the public domain by the
# contributors.
#
data_1553650
loop_
_publ_author_name
'Elsaidi, Sameh K.'
'Mohamed, Mona H.'
'Simon, Cory M.'
'Braun, Efrem'
'Pham, Tony'
'Forrest, Katherine A.'
'Xu, Wenqian'
'Banerjee, Debasis'
'Space, Brian'
'Zaworotko, Michael J.'
'Thallapally, Praveen K.'
_publ_section_title
;
 Effect of ring rotation upon gas adsorption in SIFSIX-3-M (M = Fe, Ni)
 pillared square grid networks.
;
_journal_issue                   3
_journal_name_full               'Chemical science'
_journal_page_first              2373
_journal_page_last               2380
_journal_paper_doi               10.1039/c6sc05012c
_journal_volume                  8
_journal_year                    2017
_chemical_formula_sum            'C8 H8 F6 N4 Ni Si'
_chemical_formula_weight         360.95
_chemical_name_common            SIFSIX-3-Ni
_chemical_name_systematic        SIFSIX-3-Ni
_space_group_IT_number           123
_space_group_name_Hall           '-P 4 2'
_space_group_name_H-M_alt        'P 4/m m m'
_symmetry_cell_setting           tetragonal
_symmetry_space_group_name_H-M   'P 4/m m m'
_audit_creation_date             2016-04-09T10:47
_audit_creation_method           'from EXP file using GSAS2CIF'
_audit_update_record
;
2016-11-14 deposited with the CCDC.
2016-12-19 downloaded from the CCDC.
;
_cell_angle_alpha                90.0
_cell_angle_beta                 90.0
_cell_angle_gamma                90.0
_cell_formula_units_Z            1
_cell_length_a                   6.99732(24)
_cell_length_b                   6.99732
_cell_length_c                   7.49177(27)
_cell_measurement_temperature    298
_cell_volume                     366.816(18)
_computing_structure_refinement  GSAS
_diffrn_ambient_temperature      298
_diffrn_detector                 'Amorphous Si area detector'
_diffrn_detector_type            PerkinElmer
_diffrn_measurement_device_type  17-BM
_diffrn_radiation_polarisn_ratio 0.94
_diffrn_radiation_probe          x-ray
_diffrn_radiation_type           synchrotron
_diffrn_radiation_wavelength     0.72768
_exptl_absorpt_correction_T_max  1.00000
_exptl_absorpt_correction_T_min  1.00000
_exptl_absorpt_process_details
;   GSAS Absorption/surface roughness correction: function number 0
 No correction is applied.
;
_pd_block_id                     2016-04-09T10:47|NI_HE_179|Wenqian_Xu|17-BM
_pd_calc_method                  'Rietveld Refinement'
_pd_instr_location               ' ?'
_pd_meas_number_of_points        4500
_pd_phase_name
'from C:/GSAS/MyWork/2015-1/PNNL/NiSiF6/CoSIFSIX-3.cif'
_pd_proc_info_datetime           2016-04-09T10:47:38
_pd_proc_info_excluded_regions   ' ?'
_pd_proc_ls_background_function
;   GSAS Background function number 1 with 24 terms.
 Shifted Chebyshev function of 1st kind
      1:    2713.91     2:   -1784.23     3:    170.662     4:    295.011    
      5:   -802.480     6:    675.556     7:   -86.9386     8:   -211.203    
      9:    417.664    10:   -324.004    11:    49.0992    12:    99.2173    
     13:   -159.697    14:    141.309    15:   -41.4845    16:   -26.9960    
     17:    78.5553    18:   -65.1715    19:   -6.43067    20:    39.2188    
     21:   -36.5903    22:    38.4781    23:   -41.6809    24:   6.347870E-02
;
_pd_proc_ls_peak_cutoff          0.00100
_pd_proc_ls_profile_function
;
 CW Profile function number 3 with  19 terms
 Pseudovoigt profile coefficients as parameterized in
 P. Thompson, D.E. Cox & J.B. Hastings (1987). J. Appl. Cryst.,20,79-83.
 Asymmetry correction of L.W. Finger, D.E. Cox & A. P. Jephcoat (1994).
 J. Appl. Cryst.,27,892-900.
 #1(GU)   =  171.383 #2(GV)   =    0.000 #3(GW)   =    8.772
 #4(GP)   =    0.000 #5(LX)   =    0.000 #6(LY)   =   56.493
 #7(S/L)  =   0.0005 #8(H/L)  =   0.0005
 #9(trns) =     0.00 #10(shft)=   0.0000
 #11(stec)=     0.00 #12(ptec)=     0.00 #13(sfec)=     0.00
 #14(L11) =    0.000 #15(L22) =    0.000 #16(L33) =    0.000
 #17(L12) =    0.000 #18(L13) =    0.000 #19(L23) =    0.000
 Peak tails are ignored  where the intensity is below 0.0010 times the peak
   Aniso. broadening axis   0.0   0.0   1.0
;
_pd_proc_ls_prof_R_factor        0.0350
_pd_proc_ls_prof_wR_expected     0.0151
_pd_proc_ls_prof_wR_factor       0.0521
_pd_proc_number_of_points        4500
_pd_spec_mounting                ' ?'
_refine_ls_goodness_of_fit_all   3.50
_refine_ls_matrix_type           full
_refine_ls_number_parameters     44
_refine_ls_number_restraints     8
_refine_ls_R_Fsqd_factor         0.04738
_refine_ls_shift/su_max          0.06
_refine_ls_shift/su_mean         0.00
_reflns_d_resolution_high        1.016
_reflns_d_resolution_low         7.492
_reflns_limit_h_max              7
_reflns_limit_h_min              0
_reflns_limit_k_max              5
_reflns_limit_k_min              0
_reflns_limit_l_max              8
_reflns_limit_l_min              0
_reflns_number_total             138
_cod_data_source_file            c6sc05012c2.cif
_cod_data_source_block           NI_HE_179_publ
_cod_depositor_comments
;
The following automatic conversions were performed:

data item '_geom_angle_publ_flag' value 'N' was changed to 'n' in
accordance with the
/home/saulius/struct/COD-crude-data/automatic-downloads/DataCite-retrospective/RSC/depositions/lib/dictionaries/cif_core.dic
dictionary named 'cif_core.dic' version 2.4.2 last updated on
2011-04-26 (41 times).

data item '_geom_bond_publ_flag' value 'N' was changed to 'n' in
accordance with the
/home/saulius/struct/COD-crude-data/automatic-downloads/DataCite-retrospective/RSC/depositions/lib/dictionaries/cif_core.dic
dictionary named 'cif_core.dic' version 2.4.2 last updated on
2011-04-26 (51 times).

Automatic conversion script
Id: cif_fix_values 6909 2019-04-08 15:41:33Z antanas 
;
_cod_original_cell_volume        366.816(32)
_cod_original_sg_symbol_H-M      'P 4/mmm'
_cod_original_formula_sum        'C8.00 H8.00 F6 N4 Ni Si'
_cod_database_code               1553650
_gsas_exptl_extinct_corr_t_min   1.00000
_gsas_exptl_extinct_corr_t_max   1.00000
loop_
_symmetry_equiv_pos_site_id
_symmetry_equiv_pos_as_xyz
1 +x,+y,+z
2 -y,+x,+z
3 -x,-y,+z
4 +y,-x,+z
5 -x,+y,+z
6 -y,-x,+z
7 +x,-y,+z
8 +y,+x,+z
-1 -x,-y,-z
-2 +y,-x,-z
-3 +x,+y,-z
-4 -y,+x,-z
-5 +x,-y,-z
-6 +y,+x,-z
-7 -x,+y,-z
-8 -y,-x,-z
loop_
_atom_site_type_symbol
_atom_site_label
_atom_site_fract_x
_atom_site_fract_y
_atom_site_fract_z
_atom_site_occupancy
_atom_site_thermal_displace_type
_atom_site_U_iso_or_equiv
Ni Ni1 0.5 0.5 0.5 1.0 Uiso 0.0144(12)
Si Si2 0.5 0.5 1.0 1.0 Uiso 0.0480(26)
F F3 0.5 0.5 0.7656(8) 1.0 Uiso 0.0155(18)
F F4 0.6652(4) 0.6652(4) 1.0 1.0 Uiso 0.0606(20)
N N5 0.8051(5) 0.5 0.5 1.0 Uiso 0.0197(25)
C C6 0.90042(8) 0.4562(10) 0.64956(31) 0.5 Uiso 0.0553(32)
H H6 0.8132(9) 0.4211(18) 0.7697(6) 0.5 Uiso 0.066(4)
loop_
_atom_type_symbol
_atom_type_number_in_cell
_atom_type_scat_dispersion_real
_atom_type_scat_dispersion_imag
_atom_type_scat_Cromer_Mann_a1
_atom_type_scat_Cromer_Mann_a2
_atom_type_scat_Cromer_Mann_a3
_atom_type_scat_Cromer_Mann_a4
_atom_type_scat_Cromer_Mann_b1
_atom_type_scat_Cromer_Mann_b2
_atom_type_scat_Cromer_Mann_b3
_atom_type_scat_Cromer_Mann_b4
_atom_type_scat_Cromer_Mann_c
_atom_type_scat_source
Ni 1.0 0.000 0.000 12.8376 3.87850 7.29200 0.25650 4.44380 12.1763 2.38000
66.3421 1.03410 International_Tables_Vol_C
Si 1.0 0.000 0.000 6.29150 2.43860 3.03530 32.3337 1.98910 0.67850 1.54100
81.6937 1.14070 International_Tables_Vol_C
F 6.0 0.000 0.000 3.53920 10.2825 2.64120 4.29440 1.51700 0.26150 1.02430
26.1476 0.27760 International_Tables_Vol_C
N 4.0 0.000 0.000 12.2126 0.00570 3.13220 9.89330 2.01250 28.9975 1.16630
0.58260 -11.529 International_Tables_Vol_C
C 8.0 0.000 0.000 2.31000 20.8439 1.02000 10.2075 1.58860 0.56870 0.86500
51.6512 0.21560 International_Tables_Vol_C
H 8.0 0.000 0.000 0.49300 10.5109 0.32291 26.1257 0.14019 3.14236 0.04081
57.7997 0.00304 International_Tables_Vol_C
loop_
_geom_angle_atom_site_label_1
_geom_angle_atom_site_label_2
_geom_angle_atom_site_label_3
_geom_angle
_geom_angle_site_symmetry_1
_geom_angle_site_symmetry_3
_geom_angle_publ_flag
F3 Ni1 F3 180.0 1_555 -1_666 n
F3 Si2 F3 179.9406 1_555 -1_667 n
F3 Si2 F4 90.0 1_555 1_555 n
F3 Si2 F4 90.0 1_555 2_655 n
F3 Si2 F4 90.0 1_555 3_665 n
F3 Si2 F4 90.0 1_555 4_565 n
F3 Si2 F4 90.0 -1_667 1_555 n
F3 Si2 F4 90.0 -1_667 2_655 n
F3 Si2 F4 90.0 -1_667 3_665 n
F3 Si2 F4 90.0 -1_667 4_565 n
F4 Si2 F4 90.0 1_555 2_655 n
F4 Si2 F4 179.972 1_555 3_665 n
F4 Si2 F4 90.0 1_555 4_565 n
F4 Si2 F4 90.0 2_655 3_665 n
F4 Si2 F4 179.9657 2_655 4_565 n
F4 Si2 F4 90.0 3_665 4_565 n
Ni1 F3 Si2 180.0 1_555 1_555 n
C6 N5 C6 26.4(6) 1_555 7_565 n
C6 N5 C6 113.6(4) 1_555 -3_556 n
C6 N5 C6 120.29(34) 1_555 -5_566 n
C6 N5 C6 120.29(34) 7_565 -3_556 n
C6 N5 C6 113.6(4) 7_565 -5_566 n
C6 N5 C6 26.4(6) -3_556 -5_566 n
N5 C6 C6 111.3(4) 1_555 3_765 n
N5 C6 C6 119.86(17) 1_555 5_755 n
N5 C6 C6 76.78(31) 1_555 7_565 n
N5 C6 H6 116.95(29) 1_555 1_555 n
N5 C6 H6 100.5(6) 1_555 7_565 n
C6 C6 C6 23.7(5) 3_765 5_755 n
C6 C6 C6 66.3(5) 3_765 7_565 n
C6 C6 H6 126.15(28) 3_765 1_555 n
C6 C6 H6 98.9(8) 3_765 7_565 n
C6 C6 C6 90.0 5_755 7_565 n
C6 C6 H6 123.19(27) 5_755 1_555 n
C6 C6 H6 116.15(32) 5_755 7_565 n
C6 C6 H6 102.74(29) 7_565 1_555 n
C6 C6 H6 51.7(7) 7_565 7_565 n
H6 C6 H6 51.0(10) 1_555 7_565 n
C6 H6 C6 25.5(4) 1_555 7_565 n
C6 H6 H6 77.26(29) 1_555 7_565 n
C6 H6 H6 51.7(7) 7_565 7_565 n
loop_
_geom_bond_atom_site_label_1
_geom_bond_atom_site_label_2
_geom_bond_distance
_geom_bond_site_symmetry_2
_geom_bond_publ_flag
Ni1 F3 1.990(6) 1_555 n
Ni1 F3 1.990(6) -1_666 n
Ni1 N5 2.1351(35) 1_555 n
Ni1 N5 2.1351(35) 2_655 n
Ni1 N5 2.1351(35) 3_665 n
Ni1 N5 2.1351(35) 4_565 n
Si2 F3 1.756(6) 1_555 n
Si2 F3 1.756(6) -1_667 n
Si2 F4 1.635(4) 1_555 n
Si2 F4 1.635(4) 2_655 n
Si2 F4 1.635(4) 3_665 n
Si2 F4 1.635(4) 4_565 n
F3 Ni1 1.990(6) 1_555 n
F3 Si2 1.756(6) 1_555 n
F3 F4 2.399(4) 1_555 n
F3 F4 2.399(4) 2_655 n
F3 F4 2.399(4) 3_665 n
F3 F4 2.399(4) 4_565 n
F3 H6 2.260(7) 1_555 n
F3 H6 2.260(7) 2_655 n
F3 H6 2.260(7) 3_665 n
F3 H6 2.260(7) 4_565 n
F3 H6 2.260(7) 5_655 n
F3 H6 2.260(7) 6_665 n
F3 H6 2.260(7) 7_565 n
F3 H6 2.260(7) 8_555 n
F4 Si2 1.635(4) 1_555 n
F4 F3 2.399(4) 1_555 n
F4 F3 2.399(4) -1_667 n
F4 F4 2.312(6) 2_655 n
F4 F4 2.312(6) 4_565 n
F4 H6 2.101(5) 2_655 n
F4 H6 2.101(5) 7_565 n
F4 H6 2.101(5) -4_657 n
F4 H6 2.101(5) -5_567 n
N5 Ni1 2.1351(35) 1_555 n
N5 C6 1.3393(5) 1_555 n
N5 C6 1.3393(5) 7_565 n
N5 C6 1.3393(5) -3_556 n
N5 C6 1.3393(5) -5_566 n
C6 N5 1.3393(5) 1_555 n
C6 C6 1.522(6) 3_765 n
C6 C6 1.3936(11) 5_755 n
C6 C6 0.612(14) 7_565 n
C6 H6 1.115(4) 1_555 n
C6 H6 1.386(12) 7_565 n
H6 F3 2.260(7) 1_555 n
H6 F4 2.101(5) 4_565 n
H6 C6 1.115(4) 1_555 n
H6 C6 1.386(12) 7_565 n
H6 H6 1.104(25) 7_565 n
loop_
_pd_meas_2theta_scan
_pd_proc_2theta_corrected
_pd_meas_counts_total
_pd_proc_ls_weight
_pd_proc_intensity_bkg_calc
_pd_calc_intensity_total
2.0100 2.0144 3761.8 0.0 -9207010.00000 .
2.0100 2.0144 3761.8 0.0 -9207010.00000 .
2.0200 2.0244 3799.2 0.0 -9028446.00000 .
2.0300 2.0344 3841.6 0.0 -8853035.00000 .
2.0400 2.0444 3775.9 0.0 -8680724.00000 .
2.0500 2.0544 3666.3 0.0 -8511466.00000 .
2.0600 2.0644 3755.1 0.0 -8345210.50000 .
2.0700 2.0744 3772.6 0.0 -8181906.50000 .
2.0800 2.0844 3777.8 0.0 -8021510.50000 .
2.0900 2.0944 3642.5 0.0 -7863976.00000 .
2.1000 2.1044 3685.6 0.0 -7709252.00000 .
2.1100 2.1144 3695.8 0.0 -7557296.50000 .
2.1200 2.1244 3757.9 0.0 -7408061.50000 .
2.1300 2.1344 3696.0 0.0 -7261505.50000 .
2.1400 2.1444 3537.7 0.0 -7117584.50000 .
2.1500 2.1544 3672.1 0.0 -6976253.50000 .
2.1600 2.1644 3644.8 0.0 -6837472.00000 .
2.1700 2.1744 3694.8 0.0 -6701204.50000 .
2.1800 2.1844 3513.6 0.0 -6567398.50000 .
2.1900 2.1944 3603.4 0.0 -6436020.50000 .
2.2000 2.2044 3601.6 0.0 -6307026.00000 .
2.2100 2.2144 3623.1 0.0 -6180380.00000 .
2.2200 2.2244 3623.2 0.0 -6056042.00000 .
2.2300 2.2344 3506.5 0.0 -5933972.50000 .
2.2400 2.2444 3553.6 0.0 -5814136.50000 .
2.2500 2.2544 3571.5 0.0 -5696494.50000 .
2.2600 2.2644 3632.9 0.0 -5581014.50000 .
2.2700 2.2744 3505.3 0.0 -5467655.50000 .
2.2800 2.2844 3504.6 0.0 -5356385.50000 .
2.2900 2.2944 3540.0 0.0 -5247169.00000 .
2.3000 2.3044 3583.9 0.0 -5139969.00000 .
2.3100 2.3144 3576.6 0.0 -5034755.00000 .
2.3200 2.3244 3401.4 0.0 -4931490.50000 .
2.3300 2.3344 3493.3 0.0 -4830147.00000 .
2.3400 2.3444 3510.6 0.0 -4730692.50000 .
2.3500 2.3544 3584.6 0.0 -4633089.50000 .
2.3600 2.3644 3475.7 0.0 -4537310.00000 .
2.3700 2.3744 3418.5 0.0 -4443324.00000 .
2.3800 2.3844 3475.0 0.0 -4351096.50000 .
2.3900 2.3944 3498.8 0.0 -4260606.50000 .
2.4000 2.4044 3551.4 0.0 -4171819.00000 .
2.4100 2.4144 3363.7 0.0 -4084704.50000 .
2.4200 2.4244 3423.2 0.0 -3999235.25000 .
2.4300 2.4344 3473.0 0.0 -3915383.25000 .
2.4400 2.4444 3457.7 0.0 -3833121.75000 .
2.4500 2.4544 3481.2 0.0 -3752423.75000 .
2.4600 2.4644 3344.6 0.0 -3673260.00000 .
2.4700 2.4744 3397.6 0.0 -3595607.00000 .
2.4800 2.4844 3453.9 0.0 -3519436.50000 .
2.4900 2.4944 3462.2 0.0 -3444724.50000 .
2.5000 2.5044 3330.2 0.0 -3371443.25000 .
2.5100 2.5144 3378.0 0.0 -3299570.75000 .
2.5200 2.5244 3432.2 0.0 -3229084.00000 .
2.5300 2.5344 3431.7 0.0 -3159954.00000 .
2.5400 2.5444 3428.8 0.0 -3092159.75000 .
2.5500 2.5544 3298.0 0.0 -3025678.50000 .
2.5600 2.5644 3373.3 0.0 -2960485.50000 .
2.5700 2.5744 3390.6 0.0 -2896561.75000 .
2.5800 2.5844 3448.0 0.0 -2833882.00000 .
2.5900 2.5944 3321.3 0.0 -2772424.75000 .
2.6000 2.6044 3302.2 0.0 -2712169.50000 .
2.6100 2.6144 3391.3 0.0 -2653094.75000 .
2.6200 2.6244 3399.6 0.0 -2595178.50000 .
2.6300 2.6344 3389.6 0.0 -2538401.00000 .
2.6400 2.6444 3266.8 0.0 -2482742.50000 .
2.6500 2.6544 3342.8 0.0 -2428183.50000 .
2.6600 2.6644 3359.5 0.0 -2374703.75000 .
2.6700 2.6744 3382.6 0.0 -2322284.75000 .
2.6800 2.6844 3313.1 0.0 -2270907.50000 .
2.6900 2.6944 3243.9 0.0 -2220551.00000 .
2.7000 2.7044 3332.1 0.0 -2171200.25000 .
2.7100 2.7144 3334.7 0.0 -2122835.75000 .
2.7200 2.7244 3386.1 0.0 -2075440.00000 .
2.7300 2.7344 3210.5 0.0 -2028995.37500 .
2.7400 2.7444 3288.8 0.0 -1983483.37500 .
2.7500 2.7544 3306.9 0.0 -1938890.37500 .
2.7600 2.7644 3346.0 0.0 -1895197.50000 .
2.7700 2.7744 3301.7 0.0 -1852388.62500 .
2.7800 2.7844 3232.8 0.0 -1810447.37500 .
2.7900 2.7944 3276.1 0.0 -1769359.50000 .
2.8000 2.8044 3310.0 0.0 -1729107.75000 .
2.8100 2.8144 3347.7 0.0 -1689678.25000 .
2.8200 2.8244 3225.1 0.0 -1651054.50000 .
2.8300 2.8344 3245.9 0.0 -1613222.87500 .
2.8400 2.8444 3288.8 0.0 -1576167.37500 .
2.8500 2.8544 3329.0 0.0 -1539875.62500 .
2.8600 2.8644 3295.9 0.0 -1504332.00000 .
2.8700 2.8744 3197.0 0.0 -1469523.37500 .
2.8800 2.8844 3276.5 0.0 -1435435.37500 .
2.8900 2.8944 3255.0 0.0 -1402056.00000 .
2.9000 2.9044 3346.6 0.0 -1369371.25000 .
2.9100 2.9144 3238.3 0.0 -1337368.37500 .
2.9200 2.9244 3233.2 0.0 -1306034.37500 .
2.9300 2.9344 3252.9 0.0 -1275357.12500 .
2.9400 2.9444 3295.2 0.0 -1245323.12500 .
2.9500 2.9544 3282.5 0.0 -1215922.25000 .
2.9600 2.9644 3206.8 0.0 -1187140.87500 .
2.9700 2.9744 3257.9 0.0 -1158968.62500 .
2.9800 2.9844 3288.7 0.0 -1131392.87500 .
2.9900 2.9944 3286.8 0.0 -1104402.62500 .
3.0000 3.0044 3230.0 0.0 -1077987.00000 .
3.0100 3.0144 3216.5 0.0 -1052135.50000 .
3.0200 3.0244 3245.6 0.0 -1026836.75000 .
3.0300 3.0344 3281.9 0.0 -1002079.62500 .
3.0400 3.0444 3283.8 0.0 -977855.06250 .
3.0500 3.0544 3178.4 0.0 -954151.75000 .
3.0600 3.0644 3231.6 0.0 -930960.31250 .
3.0700 3.0744 3264.6 0.0 -908271.12500 .
3.0800 3.0844 3262.3 0.0 -886073.75000 .
3.0900 3.0944 3248.0 0.0 -864358.87500 .
3.1000 3.1044 3157.5 0.0 -843117.31250 .
3.1100 3.1144 3239.5 0.0 -822340.00000 .
3.1200 3.1244 3244.3 0.0 -802017.93750 .
3.1300 3.1344 3246.6 0.0 -782140.75000 .
3.1400 3.1444 3174.2 0.0 -762702.00000 .
3.1500 3.1544 3218.3 0.0 -743692.43750 .
3.1600 3.1644 3247.6 0.0 -725102.81250 .
3.1700 3.1744 3268.4 0.0 -706925.43750 .
3.1800 3.1844 3225.8 0.0 -689151.93750 .
3.1900 3.1944 3166.6 0.0 -671774.75000 .
3.2000 3.2044 3223.7 0.0 -654785.87500 .
3.2100 3.2144 3233.9 0.0 -638177.31250 .
3.2200 3.2244 3244.7 0.0 -621941.56250 .
3.2300 3.2344 3202.4 0.0 -606071.56250 .
3.2400 3.2444 3179.6 0.0 -590559.62500 .
3.2500 3.2544 3243.9 0.0 -575398.37500 .
3.2600 3.2644 3211.9 0.0 -560581.75000 .
3.2700 3.2744 3261.5 0.0 -546101.37500 .
3.2800 3.2844 3132.9 0.0 -531951.62500 .
3.2900 3.2944 3216.5 0.0 -518125.21875 .
3.3000 3.3044 3225.0 0.0 -504616.09375 .
3.3100 3.3144 3239.2 0.0 -491417.09375 .
3.3200 3.3244 3184.0 0.0 -478522.34375 .
3.3300 3.3344 3203.9 0.0 -465925.81250 .
3.3400 3.3444 3212.8 0.0 -453620.75000 .
3.3500 3.3544 3238.3 0.0 -441602.00000 .
3.3600 3.3644 3247.7 0.0 -429863.03125 .
3.3700 3.3744 3152.3 0.0 -418398.46875 .
3.3800 3.3844 3207.3 0.0 -407202.25000 .
3.3900 3.3944 3219.6 0.0 -396269.28125 .
3.4000 3.4044 3249.6 0.0 -385593.68750 .
3.4100 3.4144 3219.3 0.0 -375170.40625 .
3.4200 3.4244 3143.0 0.0 -364994.28125 .
3.4300 3.4344 3213.8 0.0 -355059.71875 .
3.4400 3.4444 3199.5 0.0 -345361.78125 .
3.4500 3.4544 3260.5 0.0 -335895.50000 .
3.4600 3.4644 3162.7 0.0 -326656.18750 .
3.4700 3.4744 3196.0 0.0 -317638.90625 .
3.4800 3.4844 3220.5 0.0 -308838.87500 .
3.4900 3.4944 3249.9 0.0 -300251.65625 .
3.5000 3.5044 3211.5 0.0 -291872.53125 .
3.5100 3.5144 3142.6 0.0 -283697.06250 .
3.5200 3.5244 3217.7 0.0 -275721.15625 .
3.5300 3.5344 3237.3 0.0 -267940.09375 .
3.5400 3.5444 3263.6 0.0 -260350.34375 .
3.5500 3.5544 3162.1 0.0 -252946.95313 .
3.5600 3.5644 3235.3 0.0 -245726.50000 .
3.5700 3.5744 3209.3 0.0 -238684.93750 .
3.5800 3.5844 3268.5 0.0 -231818.09375 .
3.5900 3.5944 3242.5 0.0 -225122.34375 .
3.6000 3.6044 3150.7 0.0 -218593.93750 .
3.6100 3.6144 3215.6 0.0 -212229.25000 .
3.6200 3.6244 3244.1 0.0 -206024.50000 .
3.6300 3.6344 3238.0 0.0 -199976.25000 .
3.6400 3.6444 3210.5 0.0 -194081.25000 .
3.6500 3.6544 3185.7 0.0 -188335.81250 .
3.6600 3.6644 3224.9 0.0 -182736.79688 .
3.6700 3.6744 3234.9 0.0 -177280.90625 .
3.6800 3.6844 3264.7 0.0 -171964.85938 .
3.6900 3.6944 3140.2 0.0 -166785.54688 .
3.7000 3.7044 3248.3 0.0 -161739.93750 .
3.7100 3.7144 3225.5 0.0 -156825.00000 .
3.7200 3.7244 3268.0 0.0 -152037.76563 .
3.7300 3.7344 3204.2 0.0 -147375.34375 .
3.7400 3.7444 3207.3 0.0 -142834.89063 .
3.7500 3.7544 3243.9 0.0 -138413.57813 .
3.7600 3.7644 3254.6 0.0 -134108.82813 .
3.7700 3.7744 3261.1 0.0 -129917.85156 .
3.7800 3.7844 3203.5 0.0 -125838.06250 .
3.7900 3.7944 3235.5 0.0 -121866.85156 .
3.8000 3.8044 3257.7 0.0 -118001.68750 .
3.8100 3.8144 3249.4 0.0 -114240.17969 .
3.8200 3.8244 3263.7 0.0 -110579.86719 .
3.8300 3.8344 3163.5 0.0 -107018.38281 .
3.8400 3.8444 3251.1 0.0 -103553.49219 .
3.8500 3.8544 3283.1 0.0 -100182.79688 .
3.8600 3.8644 3260.1 0.0 -96904.13281 .
3.8700 3.8744 3200.9 0.0 -93715.35156 .
3.8800 3.8844 3265.5 0.0 -90614.21875 .
3.8900 3.8944 3254.5 0.0 -87598.81250 .
3.9000 3.9044 3277.4 0.0 -84666.95313 .
3.9100 3.9144 3277.5 0.0 -81816.67969 .
3.9200 3.9244 3214.1 0.0 -79045.99219 .
3.9300 3.9344 3252.5 0.0 -76353.07031 .
3.9400 3.9444 3276.6 0.0 -73735.92188 .
3.9500 3.9544 3301.8 0.0 -71192.71875 .
3.9600 3.9644 3218.0 0.0 -68721.75781 .
3.9700 3.9744 3232.4 0.0 -66321.15625 .
3.9800 3.9844 3294.3 0.0 -63989.25391 .
3.9900 3.9944 3287.9 0.0 -61724.25781 .
4.0000 4.0044 3305.1 0.0 -59524.67578 .
4.0100 4.0144 3207.3 0.0 -57388.70703 .
4.0200 4.0244 3275.4 0.0 -55315.01563 .
4.0300 4.0344 3302.9 0.0 -53301.74219 .
4.0400 4.0444 3318.4 0.0 -51347.62891 .
4.0500 4.0544 3241.3 0.0 -49451.03906 .
4.0600 4.0644 3265.9 0.0 -47610.59375 .
4.0700 4.0744 3288.6 0.0 -45824.78516 .
4.0800 4.0844 3307.6 0.0 -44092.34766 .
4.0900 4.0944 3321.8 0.0 -42411.80469 .
4.1000 4.1044 3222.9 0.0 -40781.92578 .
4.1100 4.1144 3287.7 0.0 -39201.28125 .
4.1200 4.1244 3321.9 0.0 -37668.76563 .
4.1300 4.1344 3334.8 0.0 -36182.93359 .
4.1400 4.1444 3307.2 0.0 -34742.79297 .
4.1500 4.1544 3243.7 0.0 -33346.91016 .
4.1600 4.1644 3304.3 0.0 -31994.35547 .
4.1700 4.1744 3338.1 0.0 -30683.83398 .
4.1800 4.1844 3338.2 0.0 -29414.33008 .
4.1900 4.1944 3263.4 0.0 -28184.65625 .
4.2000 4.2044 3307.9 0.0 -26993.87305 .
4.2100 4.2144 3315.5 0.0 -25840.79102 .
4.2200 4.2244 3331.3 0.0 -24724.56055 .
4.2300 4.2344 3344.0 0.0 -23644.04492 .
4.2400 4.2444 3249.8 0.0 -22598.40039 .
4.2500 4.2544 3324.2 0.0 -21586.57031 .
4.2600 4.2644 3328.8 0.0 -20607.67578 .
4.2700 4.2744 3379.6 0.0 -19660.87109 .
4.2800 4.2844 3268.9 0.0 -18745.15234 .
4.2900 4.2944 3334.7 0.0 -17859.79883 .
4.3000 4.3044 3338.5 0.0 -17003.83789 .
4.3100 4.3144 3364.7 0.0 -16176.56152 .
4.3200 4.3244 3375.4 0.0 -15377.05664 .
4.3300 4.3344 3311.3 0.0 -14604.63574 .
4.3400 4.3444 3352.1 0.0 -13858.46191 .
4.3500 4.3544 3369.0 0.0 -13137.86523 .
4.3600 4.3644 3390.3 0.0 -12442.03125 .
4.3700 4.3744 3334.3 0.0 -11770.32129 .
4.3800 4.3844 3341.8 0.0 -11121.97266 .
4.3900 4.3944 3358.0 0.0 -10496.37500 .
4.4000 4.4044 3411.0 0.0 -9892.81055 .
4.4100 4.4144 3401.4 0.0 -9310.67969 .
4.4200 4.4244 3324.4 0.0 -8749.31250 .
4.4300 4.4344 3387.7 0.0 -8208.14551 .
4.4400 4.4444 3373.3 0.0 -7686.51807 .
4.4500 4.4544 3418.2 0.0 -7183.90869 .
4.4600 4.4644 3357.7 0.0 -6699.69824 .
4.4700 4.4744 3360.0 0.0 -6233.37256 .
4.4800 4.4844 3416.5 0.0 -5784.33691 .
4.4900 4.4944 3430.1 0.0 -5352.12305 .
4.5000 4.5044 3449.3 0.0 -4936.17480 .
4.5100 4.5144 3358.3 0.0 -4535.99463 .
4.5200 4.5244 3421.6 0.0 -4151.14160 .
4.5300 4.5344 3447.7 0.0 -3781.07202 .
4.5400 4.5444 3463.2 0.0 -3425.36792 .
4.5500 4.5544 3439.8 0.0 -3083.55322 .
4.5600 4.5644 3379.6 0.0 -2755.21436 .
4.5700 4.5744 3440.9 0.0 -2439.88232 .
4.5800 4.5844 3475.3 0.0 -2137.17920 .
4.5900 4.5944 3470.8 0.0 -1846.67004 .
4.6000 4.6044 3392.6 0.0 -1567.97729 .
4.6100 4.6144 3439.5 0.0 -1300.69922 .
4.6200 4.6244 3477.4 0.0 -1044.48242 .
4.6300 4.6344 3487.1 0.0 -798.93512 .
4.6400 4.6444 3492.0 0.0 -563.72882 .
4.6500 4.6544 3411.0 0.0 -338.49533 .
4.6600 4.6644 3487.1 0.0 -122.91478 .
4.6700 4.6744 3498.1 0.0 83.35593 .
4.6800 4.6844 3511.3 0.0 280.61902 .
4.6900 4.6944 3426.8 0.0 469.19351 .
4.7000 4.7044 3497.3 0.0 649.37714 .
4.7100 4.7144 3500.6 0.0 821.47046 .
4.7200 4.7244 3527.9 0.0 985.74548 .
4.7300 4.7344 3515.3 0.0 1142.48950 .
4.7400 4.7444 3495.0 0.0 1291.96033 .
4.7500 4.7544 3502.5 0.0 1434.42993 .
4.7600 4.7644 3571.7 0.0 1570.15381 .
4.7700 4.7744 3567.4 0.0 1699.36108 .
4.7800 4.7844 3508.3 0.0 1822.30920 .
4.7900 4.7944 3509.8 0.0 1939.21729 .
4.8000 4.8044 3586.3 0.0 2050.32056 .
4.8100 4.8144 3562.0 0.0 2155.83179 .
4.8200 4.8244 3588.5 0.0 2255.96802 .
4.8300 4.8344 3505.1 0.0 2350.93262 .
4.8400 4.8444 3571.0 0.0 2440.92847 .
4.8500 4.8544 3592.1 0.0 2526.14453 .
4.8600 4.8644 3618.8 0.0 2606.77710 .
4.8700 4.8744 3577.2 0.0 2683.00000 .
4.8800 4.8844 3586.4 0.0 2754.99780 .
4.8900 4.8944 3600.2 0.0 2822.93579 .
4.9000 4.9044 3664.9 0.0 2886.98633 .
4.9100 4.9144 3636.0 0.0 2947.30347 .
4.9200 4.9244 3558.7 0.0 3004.04956 .
4.9300 4.9344 3629.5 0.0 3057.37109 .
4.9400 4.9444 3657.9 0.0 3107.41895 .
4.9500 4.9544 3673.5 0.0 3154.32813 .
4.9600 4.9644 3641.0 0.0 3198.24341 .
4.9700 4.9744 3608.7 0.0 3239.29150 .
4.9800 4.9844 3671.9 0.0 3277.60352 .
4.9900 4.9944 3710.1 0.0 3313.30200 .
5.0000 5.0044 3720.0 0.0 3346.50854 .
5.0100 5.0144 3632.9 0.0002753 3377.33911 3408.92358
5.0200 5.0244 3699.1 0.0002703 3405.90405 3438.66284
5.0300 5.0344 3742.0 0.0002672 3432.31250 3466.31226
5.0400 5.0444 3732.4 0.0002679 3456.66895 3491.98096
5.0500 5.0544 3734.5 0.0002678 3479.07446 3708.58472
5.0600 5.0644 3660.8 0.0002732 3499.62744 3734.92212
5.0700 5.0744 3740.2 0.0002674 3518.42163 3759.73608
5.0800 5.0844 3786.2 0.0002641 3535.54639 3783.12988
5.0900 5.0944 3803.2 0.0002629 3551.09033 3805.20776
5.1000 5.1044 3716.7 0.0002691 3565.13696 3826.06958
5.1100 5.1144 3771.0 0.0002652 3577.76855 3845.81616
5.1200 5.1244 3794.2 0.0002636 3589.06348 3864.54321
5.1300 5.1344 3837.7 0.0002606 3599.09692 3882.34912
5.1400 5.1444 3816.7 0.0002620 3607.94165 3899.32983
5.1500 5.1544 3762.3 0.0002658 3615.66821 3915.58081
5.1600 5.1644 3826.1 0.0002614 3622.34180 3931.19507
5.1700 5.1744 3869.6 0.0002584 3628.02979 3946.27124
5.1800 5.1844 3876.7 0.0002579 3632.79150 3960.90430
5.1900 5.1944 3813.1 0.0002623 3636.68921 3975.19214
5.2000 5.2044 3857.6 0.0002592 3639.77954 3989.23438
5.2100 5.2144 3901.4 0.0002563 3642.11646 4003.13428
5.2200 5.2244 3936.9 0.0002540 3643.75415 4016.99561
5.2300 5.2344 3955.1 0.0002528 3644.74316 4030.92871
5.2400 5.2444 3867.5 0.0002586 3645.13110 4045.04907
5.2500 5.2544 3967.7 0.0002520 3644.96655 4059.48193
5.2600 5.2644 3997.7 0.0002501 3644.29272 4074.35327
5.2700 5.2744 4047.8 0.0002470 3643.15210 4089.80981
5.2800 5.2844 3985.4 0.0002509 3641.58545 4106.00195
5.2900 5.2944 4023.0 0.0002486 3639.63306 4123.10059
5.3000 5.3044 4081.3 0.0002450 3637.32959 4141.29736
5.3100 5.3144 4145.5 0.0002412 3634.71509 4160.80713
5.3200 5.3244 4169.2 0.0002399 3631.81860 4181.87207
5.3300 5.3344 4126.7 0.0002423 3628.67578 4204.77637
5.3400 5.3444 4196.2 0.0002383 3625.31641 4229.84961
5.3500 5.3544 4284.2 0.0002334 3621.77002 4257.47900
5.3600 5.3644 4313.8 0.0002318 3618.06348 4288.13477
5.3700 5.3744 4320.6 0.0002314 3614.22607 4322.38330
5.3800 5.3844 4370.9 0.0002288 3610.27979 4360.93701
5.3900 5.3944 4493.6 0.0002225 3606.24951 4404.72217
5.4000 5.4044 4560.7 0.0002193 3602.15942 4455.04785
5.4100 5.4144 4680.8 0.0002136 3598.02856 4513.96045
5.4200 5.4244 4697.4 0.0002129 3593.87891 4585.01514
5.4300 5.4344 4922.4 0.0002032 3589.72778 4674.85400
5.4400 5.4444 5105.3 0.0001959 3585.59644 4796.07471
5.4500 5.4544 5398.4 0.0001852 3581.49878 4971.79395
5.4600 5.4644 5634.0 0.0001775 3577.45142 5241.64844
5.4700 5.4744 6082.0 0.0001644 3573.46948 5667.49072
5.4800 5.4844 6687.5 0.0001495 3569.56738 6334.94092
5.4900 5.4944 7503.4 0.0001333 3565.75806 7345.30322
5.5000 5.5044 8562.4 0.0001168 3562.05347 8793.09668
5.5100 5.5144 9745.8 0.0001026 3558.46460 10729.10547
5.5200 5.5244 11445.2 0.0000874 3555.00317 13116.21191
5.5300 5.5344 13361.9 0.0000748 3551.67920 15790.00586
5.5400 5.5444 15017.4 0.0000666 3548.49927 18433.51367
5.5500 5.5544 16372.6 0.0000611 3545.47437 20578.91992
5.5600 5.5644 17081.8 0.0000585 3542.60962 21695.66992
5.5700 5.5744 17468.7 0.0000572 3539.91431 21443.40039
5.5800 5.5844 17126.6 0.0000584 3537.39429 19923.79297
5.5900 5.5944 16113.9 0.0000621 3535.05420 17598.63672
5.6000 5.6044 14629.9 0.0000684 3532.89893 14993.29492
5.6100 5.6144 13430.5 0.0000745 3530.93481 12515.49805
5.6200 5.6244 12338.7 0.0000810 3529.16382 10416.06738
5.6300 5.6344 11227.2 0.0000891 3527.59082 8801.97363
5.6400 5.6444 10299.3 0.0000971 3526.21802 7668.49951
5.6500 5.6544 9330.8 0.0001072 3525.04980 6942.14600
5.6600 5.6644 8873.6 0.0001127 3524.08521 6523.07910
5.6700 5.6744 8425.2 0.0001187 3523.32861 6316.38379
5.6800 5.6844 8102.0 0.0001234 3522.77905 6248.05420
5.6900 5.6944 7639.4 0.0001309 3522.43921 6268.30518
5.7000 5.7044 7524.1 0.0001329 3522.30859 6347.72559
5.7100 5.7144 7433.8 0.0001345 3522.38672 6471.18457
5.7200 5.7244 7405.3 0.0001350 3522.67456 6632.44629
5.7300 5.7344 7357.2 0.0001359 3523.17163 6830.49463
5.7400 5.7444 7274.2 0.0001375 3523.87646 7067.45703
5.7500 5.7544 7473.8 0.0001338 3524.78833 7347.67432
5.7600 5.7644 7685.1 0.0001301 3525.90479 7677.48975
5.7700 5.7744 7880.2 0.0001269 3527.22681 8065.54736
5.7800 5.7844 8101.1 0.0001234 3528.75000 8523.70898
5.7900 5.7944 8602.5 0.0001162 3530.47339 9069.08008
5.8000 5.8044 9239.5 0.0001082 3532.39502 9728.54785
5.8100 5.8144 10106.7 0.0000989 3534.51123 10548.54102
5.8200 5.8244 11171.6 0.0000895 3536.81982 11614.75293
5.8300 5.8344 12631.8 0.0000792 3539.31934 13088.31152
5.8400 5.8444 15219.1 0.0000657 3542.00562 15264.13477
5.8500 5.8544 19078.1 0.0000524 3544.87402 18650.13477
5.8600 5.8644 23815.1 0.0000420 3547.92432 24048.62695
5.8700 5.8744 32163.5 0.00003109 3551.15112 32594.91602
5.8800 5.8844 44908.7 0.00002227 3554.55176 45683.75391
5.8900 5.8944 63262.1 0.00001581 3558.12280 64715.06250
5.9000 5.9044 89001.8 0.00001124 3561.85840 90638.10156
5.9100 5.9144 123950.7 8.07e-6 3565.75854 123362.90625
5.9200 5.9244 160634.9 6.23e-6 3569.81665 161182.51563
5.9300 5.9344 204001.3 4.90e-6 3574.02930 200334.50000
5.9400 5.9444 240739.0 4.15e-6 3578.39233 234809.78125
5.9500 5.9544 260645.6 3.84e-6 3582.90308 256969.71875
5.9600 5.9644 261952.0 3.82e-6 3587.55518 260309.62500
5.9700 5.9744 244232.7 4.09e-6 3592.34717 243716.98438
5.9800 5.9844 212973.0 4.70e-6 3597.27344 212369.03125
5.9900 5.9944 175083.0 5.71e-6 3602.32886 173971.53125
6.0000 6.0044 134210.0 7.45e-6 3607.51147 135203.12500
6.0100 6.0144 95717.9 0.00001045 3612.81641 100551.75781
6.0200 6.0244 70220.7 0.00001424 3618.23901 72350.83594
6.0300 6.0344 50712.6 0.00001972 3623.77441 51155.55469
6.0400 6.0444 36915.4 0.00002709 3629.42139 36285.95313
6.0500 6.0544 26622.0 0.0000376 3635.17139 26429.33984
6.0600 6.0644 20744.3 0.0000482 3641.02344 20151.30078
6.0700 6.0744 16733.1 0.0000598 3646.97290 16216.77637
6.0800 6.0844 13792.2 0.0000725 3653.01514 13715.84473
6.0900 6.0944 11842.6 0.0000844 3659.14722 12053.13867
6.1000 6.1044 10167.7 0.0000984 3665.36353 10873.96387
6.1100 6.1144 9229.3 0.0001084 3671.66162 9981.20605
6.1200 6.1244 8584.2 0.0001165 3678.03687 9269.45020
6.1300 6.1344 7995.8 0.0001251 3684.48511 8682.07520
6.1400 6.1444 7445.6 0.0001343 3691.00244 8186.95703
6.1500 6.1544 7060.1 0.0001416 3697.58594 7764.06738
6.1600 6.1644 6842.3 0.0001461 3704.23096 7399.61914
6.1700 6.1744 6602.3 0.0001515 3710.93530 7083.37891
6.1800 6.1844 6407.6 0.0001561 3717.69360 6807.38135
6.1900 6.1944 6101.7 0.0001639 3724.50439 6565.27490
6.2000 6.2044 6016.6 0.0001662 3731.36182 6351.90625
6.2100 6.2144 5905.5 0.0001693 3738.26392 6163.06885
6.2200 6.2244 5820.7 0.0001718 3745.20825 5995.28564
6.2300 6.2344 5640.3 0.0001773 3752.19043 5845.67041
6.2400 6.2444 5504.9 0.0001817 3759.20532 5711.81396
6.2500 6.2544 5474.4 0.0001827 3766.25269 5591.68701
6.2600 6.2644 5444.2 0.0001837 3773.33081 5483.57910
6.2700 6.2744 5344.2 0.0001871 3780.43433 5386.03076
6.2800 6.2844 5199.4 0.0001923 3787.55957 5297.80029
6.2900 6.2944 5187.8 0.0001928 3794.70386 5217.81934
6.3000 6.3044 5161.9 0.0001937 3801.86792 5145.16992
6.3100 6.3144 5145.6 0.0001943 3809.04395 5079.05469
6.3200 6.3244 5086.9 0.0001966 3816.23462 5018.78271
6.3300 6.3344 4937.2 0.0002025 3823.43506 4963.75049
6.3400 6.3444 4989.0 0.0002004 3830.64160 4913.43115
6.3500 6.3544 4993.7 0.0002003 3837.85449 4867.36035
6.3600 6.3644 4942.3 0.0002023 3845.07007 4825.12842
6.3700 6.3744 4846.3 0.0002063 3852.28662 4786.37500
6.3800 6.3844 4863.8 0.0002056 3859.50122 4750.78174
6.3900 6.3944 4851.3 0.0002061 3866.71362 4718.06104
6.4000 6.4044 4827.9 0.0002071 3873.92114 4687.96191
6.4100 6.4144 4806.8 0.0002080 3881.12207 4660.25488
6.4200 6.4244 4698.8 0.0002128 3888.31421 4634.74023
6.4300 6.4344 4743.8 0.0002108 3895.49585 4611.23291
6.4400 6.4444 4744.9 0.0002108 3902.66602 4589.56982
6.4500 6.4544 4723.6 0.0002117 3909.82373 4569.60400
6.4600 6.4644 4621.3 0.0002164 3916.96729 4551.20117
6.4700 6.4744 4651.5 0.0002150 3924.09424 4522.43848
6.4800 6.4844 4647.7 0.0002152 3931.20508 4507.06201
6.4900 6.4944 4640.6 0.0002155 3938.29858 4492.90820
6.5000 6.5044 4620.7 0.0002164 3945.37183 4479.89014
6.5100 6.5144 4524.0 0.0002210 3952.42554 4467.92139
6.5200 6.5244 4555.2 0.0002195 3959.45898 4456.92627
6.5300 6.5344 4574.2 0.0002186 3966.46973 4446.83789
6.5400 6.5444 4556.9 0.0002194 3973.45923 4437.59131
6.5500 6.5544 4453.9 0.0002245 3980.42432 4429.13037
6.5600 6.5644 4479.7 0.0002232 3987.36597 4421.39990
6.5700 6.5744 4488.9 0.0002228 3994.28394 4414.35205
6.5800 6.5844 4494.6 0.0002225 4001.17578 4407.94238
6.5900 6.5944 4464.9 0.0002240 4008.04468 4402.12891
6.6000 6.6044 4383.7 0.0002281 4014.88721 4396.87354
6.6100 6.6144 4439.3 0.0002253 4021.70483 4392.14014
6.6200 6.6244 4440.0 0.0002252 4028.49585 4387.89502
6.6300 6.6344 4423.5 0.0002261 4035.26001 4384.10938
6.6400 6.6444 4343.6 0.0002302 4042.00049 4380.75439
6.6500 6.6544 4369.5 0.0002289 4048.71289 4377.80713
6.6600 6.6644 4381.1 0.0002283 4055.40112 4375.23828
6.6700 6.6744 4390.7 0.0002278 4062.06372 4373.03076
6.6800 6.6844 4376.5 0.0002285 4068.69824 4371.15918
6.6900 6.6944 4287.4 0.0002332 4075.31055 4369.60791
6.7000 6.7044 4335.8 0.0002306 4081.89648 4368.35596
6.7100 6.7144 4366.7 0.0002290 4088.45752 4367.38867
6.7200 6.7244 4353.3 0.0002297 4094.99487 4366.68945
6.7300 6.7344 4293.7 0.0002329 4101.50732 4366.24512
6.7400 6.7444 4294.0 0.0002329 4107.99756 4366.03955
6.7500 6.7544 4329.0 0.0002310 4114.46533 4366.06201
6.7600 6.7644 4342.7 0.0002303 4120.91113 4366.30176
6.7700 6.7744 4314.4 0.0002318 4127.33447 4366.74512
6.7800 6.7844 4236.1 0.0002361 4133.73828 4367.38477
6.7900 6.7944 4307.4 0.0002322 4140.12061 4368.21045
6.8000 6.8044 4313.8 0.0002318 4146.48584 4369.20996
6.8100 6.8144 4309.7 0.0002320 4152.83252 4370.38086
6.8200 6.8244 4249.1 0.0002353 4159.16016 4371.70996
6.8300 6.8344 4278.7 0.0002337 4165.47168 4373.19482
6.8400 6.8444 4280.2 0.0002336 4171.76807 4374.82520
6.8500 6.8544 4324.0 0.0002313 4178.04883 4376.59668
6.8600 6.8644 4287.4 0.0002332 4184.31641 4184.31152
6.8700 6.8744 4222.9 0.0002368 4190.57031 4190.56543
6.8800 6.8844 4279.5 0.0002337 4196.81299 4196.80762
6.8900 6.8944 4306.3 0.0002322 4203.04688 4203.04102
6.9000 6.9044 4294.0 0.0002329 4209.27051 4209.26416
6.9100 6.9144 4241.3 0.0002358 4215.48633 4215.47852
6.9200 6.9244 4256.1 0.0002350 4221.69287 4221.68506
6.9300 6.9344 4277.2 0.0002338 4227.89453 4227.88770
6.9400 6.9444 4305.7 0.0002323 4234.09326 4234.08496
6.9500 6.9544 4285.0 0.0002334 4240.28760 4240.27832
6.9600 6.9644 4210.2 0.0002375 4246.47852 4246.47070
6.9700 6.9744 4265.9 0.0002344 4252.66943 4252.66113
6.9800 6.9844 4296.0 0.0002328 4258.86182 4258.85205
6.9900 6.9944 4303.3 0.0002324 4265.05420 4265.04297
7.0000 7.0044 4219.5 0.0002370 4271.25049 4271.24023
7.0100 7.0144 4262.7 0.0002346 4277.45264 4277.44043
7.0200 7.0244 4287.0 0.0002333 4283.65723 4284.40137
7.0300 7.0344 4297.9 0.0002327 4289.86963 4290.62842
7.0400 7.0444 4290.8 0.0002331 4296.09229 4296.86133
7.0500 7.0544 4232.9 0.0002362 4302.32471 4303.10693
7.0600 7.0644 4266.3 0.0002344 4308.56738 4309.36475
7.0700 7.0744 4311.5 0.0002319 4314.82178 4315.63477
7.0800 7.0844 4313.3 0.0002318 4321.09131 4321.91797
7.0900 7.0944 4262.8 0.0002346 4327.37451 4328.21924
7.1000 7.1044 4264.1 0.0002345 4333.67480 4334.53564
7.1100 7.1144 4313.7 0.0002318 4339.99463 4340.87256
7.1200 7.1244 4315.1 0.0002317 4346.33447 4347.22656
7.1300 7.1344 4297.0 0.0002327 4352.69385 4353.60449
7.1400 7.1444 4227.7 0.0002365 4359.07617 4360.00293
7.1500 7.1544 4304.2 0.0002323 4365.48145 4366.42969
7.1600 7.1644 4314.3 0.0002318 4371.91211 4372.87793
7.1700 7.1744 4336.0 0.0002306 4378.37061 4379.35596
7.1800 7.1844 4255.1 0.0002350 4384.85400 4385.86035
7.1900 7.1944 4296.1 0.0002328 4391.36963 4392.39502
7.2000 7.2044 4324.5 0.0002312 4397.91357 4398.96143
7.2100 7.2144 4356.9 0.0002295 4404.48828 4405.56055
7.2200 7.2244 4335.8 0.0002306 4411.09814 4412.19189
7.2300 7.2344 4278.0 0.0002338 4417.74170 4418.86084
7.2400 7.2444 4321.1 0.0002314 4424.42236 4425.56592
7.2500 7.2544 4363.2 0.0002292 4431.13965 4432.30859
7.2600 7.2644 4346.1 0.0002301 4437.89600 4439.09033
7.2700 7.2744 4323.4 0.0002313 4444.69043 4445.91406
7.2800 7.2844 4326.0 0.0002312 4451.52637 4452.77686
7.2900 7.2944 4354.9 0.0002296 4458.40527 4459.68604
7.3000 7.3044 4405.8 0.0002270 4465.32715 4471.50488
7.3100 7.3144 4397.2 0.0002274 4472.29346 4478.58887
7.3200 7.3244 4320.9 0.0002314 4479.30566 4485.72363
7.3300 7.3344 4400.3 0.0002273 4486.36475 4492.90869
7.3400 7.3444 4426.3 0.0002259 4493.47266 4500.14600
7.3500 7.3544 4445.2 0.0002250 4500.62744 4507.43555
7.3600 7.3644 4393.7 0.0002276 4507.83545 4514.78076
7.3700 7.3744 4416.5 0.0002264 4515.09326 4522.18066
7.3800 7.3844 4460.1 0.0002242 4522.40527 4529.63721
7.3900 7.3944 4496.4 0.0002224 4529.76953 4537.15332
7.4000 7.4044 4498.7 0.0002223 4537.18945 4544.72803
7.4100 7.4144 4458.2 0.0002243 4544.66357 4552.36377
7.4200 7.4244 4531.9 0.0002207 4552.19531 4560.06055
7.4300 7.4344 4593.6 0.0002177 4559.78320 4567.82227
7.4400 7.4444 4597.8 0.0002175 4567.43311 4575.64746
7.4500 7.4544 4583.1 0.0002182 4575.13867 4583.53711
7.4600 7.4644 4607.1 0.0002171 4582.90430 4591.49512
7.4700 7.4744 4677.2 0.0002138 4590.73438 4599.51855
7.4800 7.4844 4748.3 0.0002106 4598.62354 4607.61182
7.4900 7.4944 4765.1 0.0002099 4606.57666 4615.77637
7.5000 7.5044 4719.5 0.0002119 4614.59277 4624.01221
7.5100 7.5144 4828.2 0.0002071 4622.67432 4632.31934
7.5200 7.5244 4892.3 0.0002044 4630.81934 4640.69922
7.5300 7.5344 4927.6 0.0002029 4639.03125 4649.15576
7.5400 7.5444 4917.7 0.0002033 4647.30859 4657.68652
7.5500 7.5544 4964.2 0.0002014 4655.65381 4666.29492
7.5600 7.5644 5024.0 0.0001990 4664.06543 4674.97998
7.5700 7.5744 5067.3 0.0001973 4672.54443 4683.74414
7.5800 7.5844 5095.1 0.0001963 4681.09521 4692.58887
7.5900 7.5944 5037.6 0.0001985 4689.71143 4701.51709
7.6000 7.6044 5101.4 0.0001960 4698.40088 4710.52588
7.6100 7.6144 5124.3 0.0001951 4707.15625 4719.61865
7.6200 7.6244 5127.6 0.0001950 4715.98486 4728.79785
7.6300 7.6344 5076.0 0.0001970 4724.88623 4738.06348
7.6400 7.6444 5066.6 0.0001974 4733.85547 4747.41504
7.6500 7.6544 5101.3 0.0001960 4742.89844 4756.85596
7.6600 7.6644 5085.0 0.0001967 4752.01221 4766.38916
7.6700 7.6744 5040.1 0.0001984 4761.19922 4776.01221
7.6800 7.6844 4959.6 0.0002016 4770.45801 4785.73145
7.6900 7.6944 4980.2 0.0002008 4779.78809 4795.54590
7.7000 7.7044 4962.6 0.0002015 4789.19141 4805.45361
7.7100 7.7144 4947.1 0.0002021 4798.66797 4815.46387
7.7200 7.7244 4864.9 0.0002056 4808.21924 4825.57471
7.7300 7.7344 4842.0 0.0002065 4817.84229 4835.78906
7.7400 7.7444 4855.2 0.0002060 4827.53711 4846.10840
7.7500 7.7544 4863.0 0.0002056 4837.30811 4856.53516
7.7600 7.7644 4821.9 0.0002074 4847.15039 4867.07324
7.7700 7.7744 4754.2 0.0002103 4857.06738 4877.72852
7.7800 7.7844 4784.3 0.0002090 4867.05566 4888.49805
7.7900 7.7944 4791.8 0.0002087 4877.11719 4899.38965
7.8000 7.8044 4792.7 0.0002086 4887.25391 4910.40771
7.8100 7.8144 4730.8 0.0002114 4897.45947 4921.55518
7.8200 7.8244 4735.9 0.0002112 4907.74023 4932.83838
7.8300 7.8344 4760.6 0.0002101 4918.09277 4944.26416
7.8400 7.8444 4782.5 0.0002091 4928.51709 4955.84033
7.8500 7.8544 4769.4 0.0002097 4939.01367 4967.57129
7.8600 7.8644 4698.8 0.0002128 4949.58105 4979.46777
7.8700 7.8744 4762.1 0.0002100 4960.21973 4991.54102
7.8800 7.8844 4779.6 0.0002092 4970.93018 5003.80176
7.8900 7.8944 4788.2 0.0002088 4981.70947 5016.26514
7.9000 7.9044 4734.2 0.0002112 4992.56006 5028.94727
7.9100 7.9144 4764.6 0.0002099 5003.47852 5041.86523
7.9200 7.9244 4814.1 0.0002077 5014.46777 5055.04590
7.9300 7.9344 4825.6 0.0002072 5025.52539 5068.51221
7.9400 7.9444 4820.5 0.0002074 5036.65088 5082.30322
7.9500 7.9544 4753.9 0.0002104 5047.84131 5096.45459
7.9600 7.9644 4834.1 0.0002069 5059.09961 5111.01904
7.9700 7.9744 4867.8 0.0002054 5070.42334 5126.06006
7.9800 7.9844 4881.5 0.0002049 5081.81543 5141.67773
7.9900 7.9944 4833.8 0.0002069 5093.27100 5158.00146
8.0000 8.0044 4877.2 0.0002050 5104.78955 5175.25391
8.0100 8.0144 4940.2 0.0002024 5116.37256 5193.80859
8.0200 8.0244 4969.8 0.0002012 5128.01807 5214.28955
8.0300 8.0344 4990.9 0.0002004 5139.72510 5237.74609
8.0400 8.0444 4959.0 0.0002017 5151.49219 5265.83740
8.0500 8.0544 5051.7 0.0001980 5163.32129 5301.03027
8.0600 8.0644 5147.3 0.0001943 5175.20801 5346.65869
8.0700 8.0744 5216.9 0.0001917 5187.15479 5406.77100
8.0800 8.0844 5229.2 0.0001912 5199.15918 5485.57373
8.0900 8.0944 5370.2 0.0001862 5211.21777 5586.44482
8.1000 8.1044 5509.1 0.0001815 5223.33594 5710.60498
8.1100 8.1144 5684.1 0.0001759 5235.50439 5855.66113
8.1200 8.1244 5840.9 0.0001712 5247.72803 6014.15771
8.1300 8.1344 5902.2 0.0001694 5260.00488 6172.21631
8.1400 8.1444 6112.6 0.0001636 5272.33496 6308.74707
8.1500 8.1544 6259.8 0.0001597 5284.71289 6398.12988
8.1600 8.1644 6343.7 0.0001576 5297.14209 6420.42822
8.1700 8.1744 6295.9 0.0001588 5309.61963 6374.42334
8.1800 8.1844 6314.5 0.0001584 5322.14307 6278.61230
8.1900 8.1944 6338.6 0.0001578 5334.71338 6158.80371
8.2000 8.2044 6325.0 0.0001581 5347.32910 6037.06299
8.2100 8.2144 6269.5 0.0001595 5359.98877 5928.31592
8.2200 8.2244 6141.4 0.0001628 5372.69092 5840.94385
8.2300 8.2344 6203.1 0.0001612 5385.43311 5778.16162
8.2400 8.2444 6210.0 0.0001610 5398.21680 5739.46729
8.2500 8.2544 6239.0 0.0001603 5411.03906 5722.16504
8.2600 8.2644 6178.9 0.0001618 5423.89941 5722.82227
8.2700 8.2744 6235.9 0.0001604 5436.79590 5738.49365
8.2800 8.2844 6331.2 0.0001579 5449.72510 5767.64990
8.2900 8.2944 6438.3 0.0001553 5462.68896 5810.96191
8.3000 8.3044 6533.9 0.0001530 5475.68750 5872.07910
8.3100 8.3144 6583.4 0.0001519 5488.71631 5958.54590
8.3200 8.3244 6870.7 0.0001455 5501.77246 6082.70605
8.3300 8.3344 7149.5 0.0001399 5514.85840 6262.23730
8.3400 8.3444 7481.2 0.0001337 5527.97168 6519.52832
8.3500 8.3544 7829.9 0.0001277 5541.11084 6879.18408
8.3600 8.3644 8454.8 0.0001183 5554.27100 7363.12842
8.3700 8.3744 9164.1 0.0001091 5567.45654 7983.51563
8.3800 8.3844 9926.0 0.0001007 5580.66260 8734.44922
8.3900 8.3944 10760.0 0.0000929 5593.88867 9583.54590
8.4000 8.4044 11334.5 0.0000882 5607.13184 10463.62109
8.4100 8.4144 12137.6 0.0000824 5620.39307 11265.52539
8.4200 8.4244 12513.7 0.0000799 5633.66797 11842.66016
8.4300 8.4344 12566.0 0.0000796 5646.95801 12052.53906
8.4400 8.4444 12136.2 0.0000824 5660.25879 11836.21680
8.4500 8.4544 11636.2 0.0000859 5673.57178 11261.47266
8.4600 8.4644 10927.1 0.0000915 5686.89551 10473.62891
8.4700 8.4744 10141.1 0.0000986 5700.22461 9617.25488
8.4800 8.4844 9343.7 0.0001070 5713.55908 8798.19336
8.4900 8.4944 8452.9 0.0001183 5726.89941 8080.67676
8.5000 8.5044 7940.4 0.0001259 5740.24365 7494.75146
8.5100 8.5144 7486.0 0.0001336 5753.58936 7044.60742
8.5200 8.5244 7101.1 0.0001408 5766.93506 6716.99805
8.5300 8.5344 6700.8 0.0001492 5780.27637 6489.47412
8.5400 8.5444 6517.1 0.0001534 5793.61670 6337.31152
8.5500 8.5544 6389.4 0.0001565 5806.95264 6238.17139
8.5600 8.5644 6273.1 0.0001594 5820.28174 6174.37402
8.5700 8.5744 6177.8 0.0001619 5833.60107 6133.26904
8.5800 8.5844 6004.8 0.0001665 5846.91260 6106.49902
8.5900 8.5944 6029.8 0.0001658 5860.21338 6088.87598
8.6000 8.6044 6020.7 0.0001661 5873.50098 6077.29541
8.6100 8.6144 5983.7 0.0001671 5886.77344 6069.93213
8.6200 8.6244 5870.5 0.0001703 5900.03125 6065.69482
8.6300 8.6344 5916.7 0.0001690 5913.27100 6063.88232
8.6400 8.6444 5930.9 0.0001686 5926.48975 6064.02490
8.6500 8.6544 5924.4 0.0001688 5939.68994 6065.77539
8.6600 8.6644 5908.0 0.0001693 5952.86621 6068.87109
8.6700 8.6744 5826.9 0.0001716 5966.02051 6073.09912
8.6800 8.6844 5897.8 0.0001696 5979.14795 6078.29004
8.6900 8.6944 5916.2 0.0001690 5992.24805 6084.30225
8.7000 8.7044 5922.1 0.0001689 6005.31934 6091.01807
8.7100 8.7144 5836.7 0.0001713 6018.36084 6098.33838
8.7200 8.7244 5896.1 0.0001696 6031.37012 6106.18066
8.7300 8.7344 5931.6 0.0001686 6044.34375 6114.47412
8.7400 8.7444 5938.4 0.0001684 6057.28467 6123.15771
8.7500 8.7544 5907.9 0.0001693 6070.18848 6132.18262
8.7600 8.7644 5884.9 0.0001699 6083.05420 6141.50049
8.7700 8.7744 5951.7 0.0001680 6095.87939 6151.07715
8.7800 8.7844 5958.0 0.0001678 6108.66113 6160.87354
8.7900 8.7944 5984.6 0.0001671 6121.40234 6170.86377
8.8000 8.8044 5899.7 0.0001695 6134.09863 6181.02344
8.8100 8.8144 5963.2 0.0001677 6146.74707 6191.32617
8.8200 8.8244 6000.9 0.0001666 6159.34766 6201.75391
8.8300 8.8344 6024.5 0.0001660 6171.89990 6212.28906
8.8400 8.8444 5966.7 0.0001676 6184.40137 6222.91309
8.8500 8.8544 5981.4 0.0001672 6196.85010 6233.61182
8.8600 8.8644 6046.1 0.0001654 6209.24365 6244.37354
8.8700 8.8744 6065.3 0.0001649 6221.58154 6255.18848
8.8800 8.8844 6067.5 0.0001648 6233.86475 6266.04199
8.8900 8.8944 5995.3 0.0001668 6246.08740 6276.92822
8.9000 8.9044 6044.0 0.0001655 6258.25000 6287.83447
8.9100 8.9144 6075.1 0.0001646 6270.35254 6298.75684
8.9200 8.9244 6120.8 0.0001634 6282.39014 6309.68311
8.9300 8.9344 6044.6 0.0001654 6294.36426 6320.61182
8.9400 8.9444 6066.3 0.0001648 6306.27295 6331.53076
8.9500 8.9544 6125.1 0.0001633 6318.11279 6342.43994
8.9600 8.9644 6140.8 0.0001628 6329.88330 6353.32813
8.9700 8.9744 6146.5 0.0001627 6341.58398 6371.17871
8.9800 8.9844 6064.6 0.0001649 6353.21338 6382.14014
8.9900 8.9944 6156.1 0.0001624 6364.76807 6393.07471
9.0000 9.0044 6166.0 0.0001622 6376.25098 6403.97656
9.0100 9.0144 6201.6 0.0001612 6387.65527 6414.84082
9.0200 9.0244 6137.4 0.0001629 6398.98193 6425.66553
9.0300 9.0344 6166.0 0.0001622 6410.22998 6436.44336
9.0400 9.0444 6216.9 0.0001609 6421.39990 6447.17529
9.0500 9.0544 6233.3 0.0001604 6432.48633 6457.85791
9.0600 9.0644 6246.6 0.0001601 6443.49121 6468.48828
9.0700 9.0744 6172.0 0.0001620 6454.40918 6479.06006
9.0800 9.0844 6247.5 0.0001601 6465.24316 6489.57764
9.0900 9.0944 6277.9 0.0001593 6475.99072 6500.03027
9.1000 9.1044 6302.4 0.0001587 6486.64844 6510.42285
9.1100 9.1144 6244.9 0.0001601 6497.21826 6520.74854
9.1200 9.1244 6289.4 0.0001590 6507.69629 6531.00830
9.1300 9.1344 6342.4 0.0001577 6518.08496 6541.19678
9.1400 9.1444 6370.6 0.0001570 6528.37744 6551.31543
9.1500 9.1544 6379.5 0.0001568 6538.57666 6561.36035
9.1600 9.1644 6280.7 0.0001592 6548.68066 6571.32910
9.1700 9.1744 6381.1 0.0001567 6558.68750 6581.22168
9.1800 9.1844 6434.4 0.0001554 6568.59570 6591.03760
9.1900 9.1944 6432.9 0.0001554 6578.40527 6600.77246
9.2000 9.2044 6385.3 0.0001566 6588.11475 6610.42676
9.2100 9.2144 6444.7 0.0001552 6597.72266 6619.99756
9.2200 9.2244 6471.7 0.0001545 6607.22900 6629.48682
9.2300 9.2344 6515.4 0.0001535 6616.62988 6638.88721
9.2400 9.2444 6516.5 0.0001535 6625.92725 6648.20459
9.2500 9.2544 6441.6 0.0001552 6635.11816 6657.43359
9.2600 9.2644 6546.8 0.0001527 6644.20215 6666.57324
9.2700 9.2744 6585.2 0.0001519 6653.18066 6675.62500
9.2800 9.2844 6598.9 0.0001515 6662.04492 6684.58496
9.2900 9.2944 6533.5 0.0001531 6670.80420 6692.69922
9.3000 9.3044 6588.6 0.0001518 6679.45020 6701.49219
9.3100 9.3144 6655.3 0.0001503 6687.98389 6710.18994
9.3200 9.3244 6670.5 0.0001499 6696.40625 6718.79395
9.3300 9.3344 6682.1 0.0001497 6704.71338 6727.30469
9.3400 9.3444 6609.5 0.0001513 6712.90771 6735.72217
9.3500 9.3544 6727.1 0.0001487 6720.98633 6744.04297
9.3600 9.3644 6761.3 0.0001479 6728.94678 6752.26953
9.3700 9.3744 6824.1 0.0001465 6736.78955 6760.40039
9.3800 9.3844 6690.1 0.0001495 6744.51611 6768.43701
9.3900 9.3944 6788.5 0.0001473 6752.12207 6776.37646
9.4000 9.4044 6824.3 0.0001465 6759.60742 6784.22266
9.4100 9.4144 6838.8 0.0001462 6766.97314 6791.97021
9.4200 9.4244 6808.0 0.0001469 6774.21680 6799.62598
9.4300 9.4344 6803.9 0.0001470 6781.34033 6807.18652
9.4400 9.4444 6860.9 0.0001458 6788.33887 6814.65332
9.4500 9.4544 6882.3 0.0001453 6795.21387 6822.02686
9.4600 9.4644 6888.8 0.0001452 6801.96436 6829.30713
9.4700 9.4744 6780.2 0.0001475 6808.59033 6836.49658
9.4800 9.4844 6866.4 0.0001456 6815.08936 6843.59277
9.4900 9.4944 6888.6 0.0001452 6821.46240 6850.60400
9.5000 9.5044 6909.6 0.0001447 6827.70801 6857.52539
9.5100 9.5144 6824.2 0.0001465 6833.82715 6864.36084
9.5200 9.5244 6859.6 0.0001458 6839.81543 6871.11328
9.5300 9.5344 6896.2 0.0001450 6845.67676 6877.78271
9.5400 9.5444 6897.4 0.0001450 6851.40869 6884.37354
9.5500 9.5544 6902.0 0.0001449 6857.00928 6890.88770
9.5600 9.5644 6803.5 0.0001470 6862.47900 6892.46680
9.5700 9.5744 6880.2 0.0001453 6867.81982 6898.92090
9.5800 9.5844 6901.2 0.0001449 6873.02832 6905.30908
9.5900 9.5944 6916.4 0.0001446 6878.10254 6911.63232
9.6000 9.6044 6832.4 0.0001464 6883.04590 6917.89453
9.6100 9.6144 6869.4 0.0001456 6887.85449 6924.10400
9.6200 9.6244 6923.4 0.0001444 6892.53174 6930.26660
9.6300 9.6344 6933.7 0.0001442 6897.07471 6936.38867
9.6400 9.6444 6919.9 0.0001445 6901.48340 6942.47656
9.6500 9.6544 6841.9 0.0001462 6905.75732 6948.54102
9.6600 9.6644 6918.0 0.0001446 6909.89648 6954.58740
9.6700 9.6744 6930.9 0.0001443 6913.89893 6960.62842
9.6800 9.6844 6943.3 0.0001440 6917.76709 6966.67578
9.6900 9.6944 6880.3 0.0001453 6921.49854 6972.74365
9.7000 9.7044 6937.0 0.0001442 6925.09326 6978.84668
9.7100 9.7144 6969.2 0.0001435 6928.55225 6984.99805
9.7200 9.7244 6991.0 0.0001430 6931.87549 6991.22168
9.7300 9.7344 7016.0 0.0001425 6935.06006 6997.53418
9.7400 9.7444 6902.1 0.0001449 6938.10938 7003.96240
9.7500 9.7544 7033.2 0.0001422 6941.02051 7010.53418
9.7600 9.7644 7048.5 0.0001419 6943.79199 7025.56201
9.7700 9.7744 7088.3 0.0001411 6946.42920 7032.63867
9.7800 9.7844 7022.3 0.0001424 6948.92529 7039.96680
9.7900 9.7944 7110.7 0.0001406 6951.28564 7047.60010
9.8000 9.8044 7175.8 0.0001394 6953.50635 7055.58740
9.8100 9.8144 7232.5 0.0001383 6955.59180 7063.99707
9.8200 9.8244 7206.0 0.0001388 6957.53516 7072.90137
9.8300 9.8344 7208.3 0.0001387 6959.34180 7082.38916
9.8400 9.8444 7286.4 0.0001372 6961.00977 7092.56299
9.8500 9.8544 7305.7 0.0001369 6962.54102 7103.54395
9.8600 9.8644 7436.2 0.0001345 6963.93262 7115.48047
9.8700 9.8744 7276.6 0.0001374 6965.18408 7128.54199
9.8800 9.8844 7302.0 0.0001369 6966.29980 7142.94629
9.8900 9.8944 7340.9 0.0001362 6967.27734 7158.94873
9.9000 9.9044 7515.7 0.0001331 6968.11475 7176.88281
9.9100 9.9144 7355.4 0.0001360 6968.81592 7197.17432
9.9200 9.9244 7291.5 0.0001371 6969.37793 7220.42529
9.9300 9.9344 7381.0 0.0001355 6969.80078 7247.50049
9.9400 9.9444 7436.2 0.0001345 6970.08838 7279.74561
9.9500 9.9544 7467.6 0.0001339 6970.23535 7319.29590
9.9600 9.9644 7443.4 0.0001343 6970.24756 7369.59277
9.9700 9.9744 7615.9 0.0001313 6970.12109 7436.07568
9.9800 9.9844 7740.5 0.0001292 6969.85840 7527.03076
9.9900 9.9944 7918.4 0.0001263 6969.45703 7654.41357
10.0000 10.0044 8045.2 0.0001243 6968.91943 7834.30029
10.0100 10.0144 8339.0 0.0001199 6968.24512 8086.50732
10.0200 10.0244 8721.7 0.0001147 6967.43848 8432.85840
10.0300 10.0344 9196.0 0.0001087 6966.48975 8893.77930
10.0400 10.0444 9710.5 0.0001030 6965.40820 9483.29883
10.0500 10.0544 10207.6 0.0000980 6964.19141 10202.91992
10.0600 10.0644 11000.8 0.0000909 6962.83887 11034.92871
10.0700 10.0744 11727.7 0.0000853 6961.35205 11935.04883
10.0800 10.0844 12406.5 0.0000806 6959.73145 12824.18555
10.0900 10.0944 12775.5 0.0000783 6957.97461 13582.99609
10.1000 10.1044 13133.7 0.0000761 6956.08594 14065.25195
10.1100 10.1144 13169.1 0.0000759 6954.06299 14150.31934
10.1200 10.1244 13037.4 0.0000767 6951.90820 13813.91699
10.1300 10.1344 12596.2 0.0000794 6949.61914 13145.09082
10.1400 10.1444 11872.4 0.0000842 6947.20068 12288.35840
10.1500 10.1544 11395.4 0.0000878 6944.64746 11377.39355
10.1600 10.1644 10801.3 0.0000926 6941.96484 10507.37109
10.1700 10.1744 10231.7 0.0000977 6939.14941 9735.56543
10.1800 10.1844 9595.6 0.0001042 6936.20557 9089.44434
10.1900 10.1944 9212.5 0.0001085 6933.13281 8574.41113
10.2000 10.2044 8888.6 0.0001125 6929.92773 8180.70117
10.2100 10.2144 8583.3 0.0001165 6926.59619 7889.78320
10.2200 10.2244 8281.5 0.0001208 6923.13525 7679.89697
10.2300 10.2344 8026.5 0.0001246 6919.54785 7530.11816
10.2400 10.2444 7939.4 0.0001260 6915.83057 7422.75537
10.2500 10.2544 7767.1 0.0001287 6911.98926 7344.21680
10.2600 10.2644 7653.7 0.0001307 6908.02197 7284.82715
10.2700 10.2744 7461.5 0.0001340 6903.92725 7238.11035
10.2800 10.2844 7462.3 0.0001340 6899.70850 7199.91895
10.2900 10.2944 7378.5 0.0001355 6895.36621 7167.66016
10.3000 10.3044 7340.0 0.0001362 6890.89990 7139.72314
10.3100 10.3144 7194.9 0.0001390 6886.31104 7115.08203
10.3200 10.3244 7194.5 0.0001390 6881.59814 7093.04932
10.3300 10.3344 7174.1 0.0001394 6876.76416 7073.13428
10.3400 10.3444 7152.7 0.0001398 6871.81006 7054.97852
10.3500 10.3544 7094.4 0.0001410 6866.73535 7038.29688
10.3600 10.3644 6988.2 0.0001431 6861.54102 7022.86426
10.3700 10.3744 7040.8 0.0001420 6856.22754 7008.49023
10.3800 10.3844 7034.1 0.0001422 6850.79492 6995.02295
10.3900 10.3944 6998.8 0.0001429 6845.24268 6982.33496
10.4000 10.4044 6919.2 0.0001445 6839.57715 6970.31543
10.4100 10.4144 6921.1 0.0001445 6833.79492 6958.87549
10.4200 10.4244 6947.0 0.0001439 6827.89697 6947.93701
10.4300 10.4344 6935.4 0.0001442 6821.88184 6937.43408
10.4400 10.4444 6910.2 0.0001447 6815.75732 6927.31250
10.4500 10.4544 6793.2 0.0001472 6809.51709 6917.52051
10.4600 10.4644 6884.8 0.0001452 6803.16357 6908.02393
10.4700 10.4744 6868.1 0.0001456 6796.70068 6898.77979
10.4800 10.4844 6858.7 0.0001458 6790.12500 6889.76563
10.4900 10.4944 6758.9 0.0001480 6783.44043 6880.95166
10.5000 10.5044 6820.2 0.0001466 6776.64551 6872.31836
10.5100 10.5144 6816.5 0.0001467 6769.74316 6863.84326
10.5200 10.5244 6829.1 0.0001464 6762.73242 6855.51367
10.5300 10.5344 6752.3 0.0001481 6755.61621 6847.31787
10.5400 10.5444 6733.8 0.0001485 6748.39404 6839.24072
10.5500 10.5544 6778.0 0.0001475 6741.06641 6847.57813
10.5600 10.5644 6774.7 0.0001476 6733.63330 6839.95752
10.5700 10.5744 6755.9 0.0001480 6726.09912 6832.44141
10.5800 10.5844 6651.6 0.0001503 6718.46045 6825.02734
10.5900 10.5944 6740.2 0.0001484 6710.72168 6817.71289
10.6000 10.6044 6728.8 0.0001486 6702.88086 6810.49707
10.6100 10.6144 6720.3 0.0001488 6694.94189 6803.38232
10.6200 10.6244 6666.4 0.0001500 6686.90186 6796.37012
10.6300 10.6344 6682.4 0.0001496 6678.76416 6789.46338
10.6400 10.6444 6704.9 0.0001491 6670.53027 6782.66846
10.6500 10.6544 6701.2 0.0001492 6662.20117 6775.99365
10.6600 10.6644 6704.0 0.0001492 6653.77539 6769.44385
10.6700 10.6744 6593.8 0.0001517 6645.25439 6763.02979
10.6800 10.6844 6684.6 0.0001496 6636.64014 6756.76563
10.6900 10.6944 6693.4 0.0001494 6627.93457 6750.66260
10.7000 10.7044 6695.6 0.0001494 6619.13525 6744.73340
10.7100 10.7144 6604.0 0.0001514 6610.24609 6738.99951
10.7200 10.7244 6669.4 0.0001499 6601.26855 6733.48242
10.7300 10.7344 6675.7 0.0001498 6592.20068 6728.20117
10.7400 10.7444 6699.9 0.0001493 6583.04639 6723.18555
10.7500 10.7544 6666.0 0.0001500 6573.80322 6718.46338
10.7600 10.7644 6620.1 0.0001511 6564.47461 6714.06836
10.7700 10.7744 6686.6 0.0001496 6555.06104 6710.04053
10.7800 10.7844 6701.1 0.0001492 6545.56494 6706.42285
10.7900 10.7944 6702.2 0.0001492 6535.98340 6703.26465
10.8000 10.8044 6617.5 0.0001511 6526.31982 6700.62549
10.8100 10.8144 6706.8 0.0001491 6516.57666 6698.56982
10.8200 10.8244 6720.0 0.0001488 6506.75244 6697.17383
10.8300 10.8344 6736.9 0.0001484 6496.84961 6696.52441
10.8400 10.8444 6708.5 0.0001491 6486.86719 6696.72314
10.8500 10.8544 6738.2 0.0001484 6476.80811 6697.88623
10.8600 10.8644 6776.3 0.0001476 6466.67334 6700.15283
10.8700 10.8744 6806.6 0.0001469 6456.46338 6703.68408
10.8800 10.8844 6826.7 0.0001465 6446.17725 6708.66797
10.8900 10.8944 6772.6 0.0001477 6435.82031 6715.33154
10.9000 10.9044 6868.6 0.0001456 6425.38965 6723.93994
10.9100 10.9144 6900.6 0.0001449 6414.88672 6734.82324
10.9200 10.9244 6946.1 0.0001440 6404.31494 6748.37500
10.9300 10.9344 6905.7 0.0001448 6393.67285 6765.09961
10.9400 10.9444 6981.4 0.0001432 6382.96289 6785.64697
10.9500 10.9544 7007.3 0.0001427 6372.18604 6810.91113
10.9600 10.9644 7099.2 0.0001409 6361.34131 6842.16699
10.9700 10.9744 7171.2 0.0001394 6350.43311 6881.34424
10.9800 10.9844 7129.3 0.0001403 6339.45947 6931.42188
10.9900 10.9944 7320.1 0.0001366 6328.42236 6997.05762
11.0000 11.0044 7441.7 0.0001344 6317.32227 7085.42188
11.0100 11.0144 7594.9 0.0001317 6306.16162 7207.22070
11.0200 11.0244 7680.9 0.0001302 6294.93848 7377.67432
11.0300 11.0344 8007.9 0.0001249 6283.65918 7617.14063
11.0400 11.0444 8348.8 0.0001198 6272.31885 7950.84375
11.0500 11.0544 8787.7 0.0001138 6260.92236 8407.17969
11.0600 11.0644 9272.7 0.0001078 6249.46973 9014.15332
11.0700 11.0744 9997.9 0.0001000 6237.96240 9793.94238
11.0800 11.0844 10967.7 0.0000912 6226.39844 10755.93164
11.0900 11.0944 11932.1 0.0000838 6214.78076 11888.78125
11.1000 11.1044 13111.6 0.0000763 6203.11182 13151.51270
11.1100 11.1144 14000.1 0.0000714 6191.39160 14462.80762
11.1200 11.1244 15075.7 0.0000663 6179.62158 15689.76270
11.1300 11.1344 15664.8 0.0000638 6167.79932 16647.61133
11.1400 11.1444 15879.5 0.0000630 6155.93018 17137.45703
11.1500 11.1544 15557.0 0.0000643 6144.01563 17033.49805
11.1600 11.1644 15022.8 0.0000666 6132.05127 16360.44629
11.1700 11.1744 14305.7 0.0000699 6120.04150 15277.07031
11.1800 11.1844 13392.6 0.0000747 6107.98730 13985.30859
11.1900 11.1944 12492.0 0.0000801 6095.89063 12655.73340
11.2000 11.2044 11426.2 0.0000875 6083.75146 11404.56250
11.2100 11.2144 10749.8 0.0000930 6071.56982 10299.55664
11.2200 11.2244 10089.0 0.0000991 6059.34717 9371.62695
11.2300 11.2344 9526.7 0.0001050 6047.08545 8624.89844
11.2400 11.2444 8911.7 0.0001122 6034.78467 8038.25049
11.2500 11.2544 8605.4 0.0001162 6022.44482 7601.24512
11.2600 11.2644 8251.3 0.0001212 6010.06934 7291.62793
11.2700 11.2744 7974.9 0.0001254 5997.65771 7054.85986
11.2800 11.2844 7677.8 0.0001302 5985.21143 6880.42822
11.2900 11.2944 7485.2 0.0001336 5972.72998 6749.57471
11.3000 11.3044 7317.3 0.0001367 5960.21631 6648.55859
11.3100 11.3144 7196.2 0.0001390 5947.67090 6567.87451
11.3200 11.3244 7052.8 0.0001418 5935.09424 6501.23047
11.3300 11.3344 6845.3 0.0001461 5922.48584 6444.56641
11.3400 11.3444 6822.4 0.0001466 5909.84961 6395.29541
11.3500 11.3544 6740.5 0.0001484 5897.18262 6351.73096
11.3600 11.3644 6666.5 0.0001500 5884.49023 6312.75244
11.3700 11.3744 6539.1 0.0001529 5871.77100 6277.56104
11.3800 11.3844 6533.0 0.0001531 5859.02588 6245.57471
11.3900 11.3944 6455.1 0.0001549 5846.25537 6216.34180
11.4000 11.4044 6428.9 0.0001555 5833.46289 6189.51074
11.4100 11.4144 6352.3 0.0001574 5820.64404 6164.78418
11.4200 11.4244 6230.1 0.0001605 5807.80518 6141.93164
11.4300 11.4344 6273.7 0.0001594 5794.94482 6120.76074
11.4400 11.4444 6237.5 0.0001603 5782.06396 6101.11328
11.4500 11.4544 6196.4 0.0001614 5769.16357 6082.85840
11.4600 11.4644 6092.7 0.0001641 5756.24463 6065.89355
11.4700 11.4744 6125.4 0.0001633 5743.30762 6050.13477
11.4800 11.4844 6100.0 0.0001639 5730.35645 6035.52246
11.4900 11.4944 6078.2 0.0001645 5717.38672 6021.99854
11.5000 11.5044 6011.6 0.0001663 5704.40088 6009.53906
11.5100 11.5144 5976.9 0.0001673 5691.40283 5998.12207
11.5200 11.5244 5996.0 0.0001668 5678.39063 5987.73828
11.5300 11.5344 5970.5 0.0001675 5665.36572 5978.39648
11.5400 11.5444 5947.1 0.0001682 5652.33008 5970.11523
11.5500 11.5544 5840.4 0.0001712 5639.28174 5962.92188
11.5600 11.5644 5897.3 0.0001696 5626.22314 5956.86328
11.5700 11.5744 5877.6 0.0001701 5613.15820 5951.99756
11.5800 11.5844 5878.6 0.0001701 5600.08154 5948.39697
11.5900 11.5944 5800.4 0.0001724 5587.00000 5946.14893
11.6000 11.6044 5801.5 0.0001724 5573.90967 5945.36572
11.6100 11.6144 5811.9 0.0001721 5560.81494 5946.17188
11.6200 11.6244 5813.6 0.0001720 5547.71387 5948.72168
11.6300 11.6344 5781.8 0.0001730 5534.60840 5953.19824
11.6400 11.6444 5704.2 0.0001753 5521.49854 5959.81445
11.6500 11.6544 5771.9 0.0001733 5508.38721 5968.82324
11.6600 11.6644 5770.9 0.0001733 5495.27246 5980.52539
11.6700 11.6744 5764.8 0.0001735 5482.15674 5995.27832
11.6800 11.6844 5707.5 0.0001752 5469.03906 6013.50439
11.6900 11.6944 5755.2 0.0001738 5455.92285 6035.71777
11.7000 11.7044 5763.5 0.0001735 5442.80762 6062.53955
11.7100 11.7144 5790.7 0.0001727 5429.69336 6094.74170
11.7200 11.7244 5771.9 0.0001733 5416.58105 6133.30615
11.7300 11.7344 5801.7 0.0001724 5403.47363 6179.54395
11.7400 11.7444 5887.7 0.0001698 5390.36865 6235.25000
11.7500 11.7544 5934.6 0.0001685 5377.26807 6303.04688
11.7600 11.7644 6001.7 0.0001666 5364.17480 6386.86328
11.7700 11.7744 6027.9 0.0001659 5351.08301 6492.70361
11.7800 11.7844 6241.3 0.0001602 5338.00195 6629.73730
11.7900 11.7944 6406.2 0.0001561 5324.92480 6824.63477
11.8000 11.8044 6664.8 0.0001500 5311.85742 7071.44971
11.8100 11.8144 6881.9 0.0001453 5298.79834 7410.15820
11.8200 11.8244 7368.9 0.0001357 5285.74902 7875.89990
11.8300 11.8344 7984.0 0.0001253 5272.70947 8510.76953
11.8400 11.8444 8839.4 0.0001131 5259.67920 9360.53809
11.8500 11.8544 9948.2 0.0001005 5246.66113 10468.67676
11.8600 11.8644 11400.8 0.0000877 5233.65674 11867.73438
11.8700 11.8744 13544.0 0.0000738 5220.66211 13568.68066
11.8800 11.8844 16293.4 0.0000614 5207.68115 15548.69922
11.8900 11.8944 19477.7 0.0000513 5194.71387 17736.97656
11.9000 11.9044 22481.2 0.0000445 5181.76221 19997.08008
11.9100 11.9144 25717.7 0.0000389 5168.82471 22108.46094
11.9200 11.9244 28020.0 0.0000357 5155.90332 23766.63867
11.9300 11.9344 29312.5 0.00003412 5142.99707 24643.91211
11.9400 11.9444 28560.7 0.00003501 5130.10791 24527.12891
11.9500 11.9544 26999.1 0.0000370 5117.23486 23442.98633
11.9600 11.9644 24300.0 0.0000412 5104.38232 21640.92969
11.9700 11.9744 21075.6 0.0000474 5091.54639 19457.33594
11.9800 11.9844 17839.4 0.0000561 5078.73145 17173.37305
11.9900 11.9944 14700.5 0.0000680 5065.93311 14995.46387
12.0000 12.0044 12364.8 0.0000809 5053.15771 13045.04004
12.0100 12.0144 10489.3 0.0000953 5040.40039 11381.79297
12.0200 12.0244 9034.5 0.0001107 5027.66455 10020.56738
12.0300 12.0344 7905.4 0.0001265 5014.95117 8945.04297
12.0400 12.0444 7237.7 0.0001382 5002.26025 8119.62744
12.0500 12.0544 6712.7 0.0001490 4989.59180 7499.77197
12.0600 12.0644 6313.2 0.0001584 4976.94727 7040.06592
12.0700 12.0744 5981.8 0.0001672 4964.32666 6699.66406
12.0800 12.0844 5781.7 0.0001730 4951.72949 6445.03760
12.0900 12.0944 5654.6 0.0001768 4939.15576 6250.59668
12.1000 12.1044 5537.6 0.0001806 4926.60938 6097.92432
12.1100 12.1144 5431.2 0.0001841 4914.08887 5974.37549
12.1200 12.1244 5274.9 0.0001896 4901.59375 5871.54150
12.1300 12.1344 5275.5 0.0001896 4889.12305 5783.93262
12.1400 12.1444 5217.9 0.0001916 4876.68213 5707.95117
12.1500 12.1544 5185.8 0.0001928 4864.26758 5641.19727
12.1600 12.1644 5080.5 0.0001968 4851.88086 5581.99951
12.1700 12.1744 5087.4 0.0001966 4839.52295 5529.15283
12.1800 12.1844 5070.5 0.0001972 4827.19287 5481.73730
12.1900 12.1944 5044.6 0.0001982 4814.89307 5439.04102
12.2000 12.2044 5002.3 0.0001999 4802.62256 5400.48242
12.2100 12.2144 4967.0 0.0002013 4790.38184 5365.59668
12.2200 12.2244 4972.2 0.0002011 4778.17090 5334.00537
12.2300 12.2344 4968.8 0.0002013 4765.99316 5305.38867
12.2400 12.2444 4957.0 0.0002017 4753.84326 5279.49170
12.2500 12.2544 4883.1 0.0002048 4741.72607 5256.11084
12.2600 12.2644 4927.8 0.0002029 4729.64063 5235.07764
12.2700 12.2744 4930.1 0.0002028 4717.58789 5216.26807
12.2800 12.2844 4922.2 0.0002032 4705.56787 5199.58740
12.2900 12.2944 4889.9 0.0002045 4693.58203 5184.97266
12.3000 12.3044 4907.0 0.0002038 4681.62598 5172.39063
12.3100 12.3144 4924.2 0.0002031 4669.70654 5161.83643
12.3200 12.3244 4937.4 0.0002025 4657.82080 5153.33545
12.3300 12.3344 4949.1 0.0002021 4645.96875 5151.13281
12.3400 12.3444 4890.6 0.0002045 4634.15137 5146.97314
12.3500 12.3544 4974.5 0.0002010 4622.36768 5145.12012
12.3600 12.3644 4997.7 0.0002001 4610.62207 5145.72705
12.3700 12.3744 5017.2 0.0001993 4598.90869 5148.99023
12.3800 12.3844 4976.0 0.0002010 4587.23340 5155.15430
12.3900 12.3944 5064.0 0.0001975 4575.59277 5164.52588
12.4000 12.4044 5099.2 0.0001961 4563.99023 5177.48340
12.4100 12.4144 5153.2 0.0001941 4552.42090 5194.49023
12.4200 12.4244 5161.0 0.0001938 4540.89160 5216.14648
12.4300 12.4344 5238.2 0.0001909 4529.39795 5243.21826
12.4400 12.4444 5331.6 0.0001876 4517.94336 5276.74365
12.4500 12.4544 5422.6 0.0001844 4506.52441 5318.16064
12.4600 12.4644 5536.2 0.0001806 4495.14453 5369.57129
12.4700 12.4744 5572.3 0.0001795 4483.80322 5434.10352
12.4800 12.4844 5801.5 0.0001724 4472.50098 5516.47070
12.4900 12.4944 5981.7 0.0001672 4461.23535 5623.73584
12.5000 12.5044 6202.9 0.0001612 4450.00830 5766.24365
12.5100 12.5144 6396.3 0.0001563 4438.82080 5958.61182
12.5200 12.5244 6789.6 0.0001473 4427.67285 6212.15723
12.5300 12.5344 7198.0 0.0001389 4416.56592 6568.72510
12.5400 12.5444 7761.4 0.0001288 4405.49561 7049.29248
12.5500 12.5544 8318.8 0.0001202 4394.46533 7685.55322
12.5600 12.5644 9153.4 0.0001092 4383.47754 8507.43164
12.5700 12.5744 10202.9 0.0000980 4372.52734 9537.46289
12.5800 12.5844 11407.8 0.0000877 4361.61914 10783.84375
12.5900 12.5944 12793.9 0.0000782 4350.74951 12232.42188
12.6000 12.6044 14056.1 0.0000711 4339.92285 13837.15527
12.6100 12.6144 15609.9 0.0000641 4329.13623 15507.99805
12.6200 12.6244 16807.7 0.0000595 4318.38916 17097.48828
12.6300 12.6344 17539.6 0.0000570 4307.68555 18397.40430
12.6400 12.6444 17699.5 0.0000565 4297.02148 19172.17188
12.6500 12.6544 17556.7 0.0000570 4286.39941 19246.24023
12.6600 12.6644 16867.7 0.0000593 4275.81836 18599.41602
12.6700 12.6744 15758.9 0.0000635 4265.27881 17379.36719
12.6800 12.6844 14500.9 0.0000690 4254.78076 15817.48242
12.6900 12.6944 13166.8 0.0000759 4244.32568 14132.88184
12.7000 12.7044 12004.2 0.0000833 4233.91309 12487.06348
12.7100 12.7144 10869.4 0.0000920 4223.54102 10981.78418
12.7200 12.7244 9907.1 0.0001009 4213.20898 9671.74512
12.7300 12.7344 9005.3 0.0001110 4202.92334 8577.32324
12.7400 12.7444 8380.5 0.0001193 4192.67871 7694.58398
12.7500 12.7544 7799.5 0.0001282 4182.47559 7003.57764
12.7600 12.7644 7323.6 0.0001365 4172.31396 6475.51953
12.7700 12.7744 6871.7 0.0001455 4162.19727 6078.74414
12.7800 12.7844 6583.1 0.0001519 4152.12207 5783.07324
12.7900 12.7944 6297.4 0.0001588 4142.08936 5562.45508
12.8000 12.8044 6080.9 0.0001644 4132.09912 5396.06787
12.8100 12.8144 5861.3 0.0001706 4122.15186 5268.28271
12.8200 12.8244 5629.1 0.0001776 4112.24854 5168.18750
12.8300 12.8344 5538.5 0.0001806 4102.38623 5087.69141
12.8400 12.8444 5424.3 0.0001844 4092.56787 5021.94336
12.8500 12.8544 5304.2 0.0001885 4082.79126 4967.62256
12.8600 12.8644 5151.2 0.0001941 4073.05884 4922.55664
12.8700 12.8744 5128.4 0.0001950 4063.36841 4885.31104
12.8800 12.8844 5050.4 0.0001980 4053.72168 4854.93018
12.8900 12.8944 5006.2 0.0001998 4044.11768 4830.77881
12.9000 12.9044 4902.4 0.0002040 4034.55762 4812.44385
12.9100 12.9144 4893.5 0.0002044 4025.03931 4799.67822
12.9200 12.9244 4882.1 0.0002048 4015.56445 4792.38867
12.9300 12.9344 4859.9 0.0002058 4006.13232 4790.61816
12.9400 12.9444 4835.3 0.0002068 3996.74390 4794.54980
12.9500 12.9544 4787.0 0.0002089 3987.39722 4804.53516
12.9600 12.9644 4825.4 0.0002072 3978.09424 4821.12988
12.9700 12.9744 4836.0 0.0002068 3968.83496 4845.18652
12.9800 12.9844 4866.0 0.0002055 3959.61719 4877.98291
12.9900 12.9944 4843.4 0.0002065 3950.44360 4921.45215
13.0000 13.0044 4927.1 0.0002030 3941.31226 4978.51904
13.0100 13.0144 5016.5 0.0001993 3932.22290 5053.60791
13.0200 13.0244 5095.4 0.0001963 3923.17798 5153.28320
13.0300 13.0344 5180.5 0.0001930 3914.17554 5287.02930
13.0400 13.0444 5397.2 0.0001853 3905.21533 5468.01514
13.0500 13.0544 5621.9 0.0001779 3896.29761 5713.68018
13.0600 13.0644 5916.7 0.0001690 3887.42236 6045.76416
13.0700 13.0744 6304.8 0.0001586 3878.59180 6489.49023
13.0800 13.0844 6749.4 0.0001482 3869.80151 7071.53662
13.0900 13.0944 7523.4 0.0001329 3861.05273 7816.68555
13.1000 13.1044 8437.7 0.0001185 3852.34814 8743.20215
13.1100 13.1144 9615.9 0.0001040 3843.68579 9857.17969
13.1200 13.1244 10897.7 0.0000918 3835.06616 11145.98047
13.1300 13.1344 12583.1 0.0000795 3826.48730 12570.27051
13.1400 13.1444 14253.1 0.0000702 3817.95166 14053.77441
13.1500 13.1544 15847.7 0.0000631 3809.45801 15471.88770
13.1600 13.1644 17008.2 0.0000588 3801.00562 16648.52539
13.1700 13.1744 17833.0 0.0000561 3792.59448 17382.82617
13.1800 13.1844 17949.6 0.0000557 3784.22681 17520.38086
13.1900 13.1944 17470.0 0.0000572 3775.90137 17034.50586
13.2000 13.2044 16515.4 0.0000605 3767.61475 16043.61621
13.2100 13.2144 15039.8 0.0000665 3759.37183 14746.44336
13.2200 13.2244 13734.8 0.0000728 3751.16797 13339.81152
13.2300 13.2344 12393.6 0.0000807 3743.00806 11975.35742
13.2400 13.2444 11218.3 0.0000891 3734.88794 10754.28906
13.2500 13.2544 10160.5 0.0000984 3726.80884 9736.97363
13.2600 13.2644 9518.7 0.0001051 3718.77075 8953.07520
13.2700 13.2744 9034.4 0.0001107 3710.77368 8408.96680
13.2800 13.2844 8786.7 0.0001138 3702.81665 8093.04492
13.2900 13.2944 8627.4 0.0001159 3694.90186 7979.75928
13.3000 13.3044 8735.9 0.0001145 3687.02637 8032.30273
13.3100 13.3144 8880.7 0.0001126 3679.19043 8203.40332
13.3200 13.3244 9073.7 0.0001102 3671.39648 8418.00879
13.3300 13.3344 9196.2 0.0001087 3663.64233 8637.76465
13.3400 13.3444 9129.5 0.0001095 3655.92773 8768.64453
13.3500 13.3544 9044.2 0.0001106 3648.25244 8745.46973
13.3600 13.3644 8813.8 0.0001135 3640.61743 8541.01855
13.3700 13.3744 8421.6 0.0001187 3633.02148 8176.71729
13.3800 13.3844 7856.2 0.0001273 3625.46509 7706.57520
13.3900 13.3944 7403.8 0.0001351 3617.94897 7190.19922
13.4000 13.4044 6857.9 0.0001458 3610.47168 6675.41016
13.4100 13.4144 6340.7 0.0001577 3603.03320 6194.12988
13.4200 13.4244 5866.6 0.0001705 3595.63232 5764.75000
13.4300 13.4344 5509.3 0.0001815 3588.27197 5395.62305
13.4400 13.4444 5202.3 0.0001922 3580.95020 5087.89990
13.4500 13.4544 4925.5 0.0002030 3573.66577 4837.77881
13.4600 13.4644 4707.5 0.0002124 3566.42065 4638.39697
13.4700 13.4744 4478.7 0.0002233 3559.21265 4481.44873
13.4800 13.4844 4375.6 0.0002285 3552.04272 4358.46191
13.4900 13.4944 4266.1 0.0002344 3544.91089 4261.69092
13.5000 13.5044 4177.8 0.0002394 3537.81665 4184.60400
13.5100 13.5144 4046.8 0.0002471 3530.75903 4122.03564
13.5200 13.5244 4010.6 0.0002493 3523.73950 4070.11206
13.5300 13.5344 3972.6 0.0002517 3516.75879 4026.04761
13.5400 13.5444 3913.5 0.0002555 3509.81299 3987.89526
13.5500 13.5544 3835.7 0.0002607 3502.90454 3954.31885
13.5600 13.5644 3824.4 0.0002615 3496.03271 3924.40430
13.5700 13.5744 3793.6 0.0002636 3489.19727 3897.51807
13.5800 13.5844 3768.5 0.0002654 3482.39844 3873.20752
13.5900 13.5944 3752.9 0.0002665 3475.63647 3851.14478
13.6000 13.6044 3670.2 0.0002725 3468.90894 3831.07837
13.6100 13.6144 3696.4 0.0002705 3462.21826 3812.81543
13.6200 13.6244 3687.0 0.0002712 3455.56348 3796.20068
13.6300 13.6344 3664.4 0.0002729 3448.94385 3781.11938
13.6400 13.6444 3621.6 0.0002761 3442.35889 3767.47632
13.6500 13.6544 3640.2 0.0002747 3435.81006 3755.20532
13.6600 13.6644 3623.5 0.0002760 3429.29590 3744.25488
13.6700 13.6744 3633.0 0.0002753 3422.81567 3734.60010
13.6800 13.6844 3593.2 0.0002783 3416.37109 3726.23218
13.6900 13.6944 3603.8 0.0002775 3409.96069 3719.15918
13.7000 13.7044 3608.5 0.0002771 3403.58447 3713.41211
13.7100 13.7144 3620.3 0.0002762 3397.24146 3709.04053
13.7200 13.7244 3601.5 0.0002777 3390.93286 3706.11987
13.7300 13.7344 3592.2 0.0002784 3384.65869 3704.74951
13.7400 13.7444 3618.9 0.0002763 3378.41748 3705.06299
13.7500 13.7544 3621.6 0.0002761 3372.20947 3707.23096
13.7600 13.7644 3628.5 0.0002756 3366.03491 3711.48364
13.7700 13.7744 3603.6 0.0002775 3359.89331 3718.12329
13.7800 13.7844 3665.5 0.0002728 3353.78540 3727.56982
13.7900 13.7944 3681.2 0.0002716 3347.70825 3740.41064
13.8000 13.8044 3710.8 0.0002695 3341.66479 3757.50024
13.8100 13.8144 3702.1 0.0002701 3335.65234 3780.09033
13.8200 13.8244 3771.4 0.0002652 3329.67383 3810.01904
13.8300 13.8344 3825.9 0.0002614 3323.72656 3849.95288
13.8400 13.8444 3895.9 0.0002567 3317.80981 3903.65869
13.8500 13.8544 3940.0 0.0002538 3311.92554 3976.27808
13.8600 13.8644 4047.0 0.0002471 3306.07275 4074.51440
13.8700 13.8744 4183.1 0.0002391 3300.25073 4206.63477
13.8800 13.8844 4336.1 0.0002306 3294.45996 4382.17773
13.8900 13.8944 4529.2 0.0002208 3288.69897 4611.24023
13.9000 13.9044 4706.2 0.0002125 3282.96973 4903.32764
13.9100 13.9144 5041.3 0.0001984 3277.27026 5265.75293
13.9200 13.9244 5391.9 0.0001855 3271.60156 5701.67920
13.9300 13.9344 5792.7 0.0001726 3265.96216 6207.80225
13.9400 13.9444 6145.4 0.0001627 3260.35352 6771.52197
13.9500 13.9544 6609.5 0.0001513 3254.77393 7367.25244
13.9600 13.9644 6992.2 0.0001430 3249.22388 7951.97021
13.9700 13.9744 7281.1 0.0001373 3243.70361 8462.45410
13.9800 13.9844 7393.6 0.0001353 3238.21167 8820.97266
13.9900 13.9944 7444.0 0.0001343 3232.74878 8956.84863
14.0000 14.0044 7318.1 0.0001366 3227.31445 8838.35938
14.0100 14.0144 7081.5 0.0001412 3221.90894 8490.43457
14.0200 14.0244 6793.4 0.0001472 3216.53174 7980.57324
14.0300 14.0344 6369.1 0.0001570 3211.18359 7373.59863
14.0400 14.0444 6064.5 0.0001649 3205.86304 6762.46191
14.0500 14.0544 5713.0 0.0001750 3200.56836 6178.91553
14.0600 14.0644 5399.2 0.0001852 3195.30322 5650.49463
14.0700 14.0744 5066.7 0.0001974 3190.06641 5191.20801
14.0800 14.0844 4873.0 0.0002052 3184.85474 4805.35791
14.0900 14.0944 4657.2 0.0002147 3179.67114 4490.45703
14.1000 14.1044 4488.3 0.0002228 3174.51465 4239.59229
14.1100 14.1144 4310.7 0.0002320 3169.38501 4043.43335
14.1200 14.1244 4202.0 0.0002380 3164.28101 3891.87622
14.1300 14.1344 4103.8 0.0002437 3159.20361 3775.25464
14.1400 14.1444 4011.2 0.0002493 3154.15259 3685.10791
14.1500 14.1544 3937.1 0.0002540 3149.12842 3614.52197
14.1600 14.1644 3825.5 0.0002614 3144.12866 3558.15430
14.1700 14.1744 3805.3 0.0002628 3139.15576 3512.06860
14.1800 14.1844 3742.1 0.0002672 3134.20752 3473.46509
14.1900 14.1944 3709.4 0.0002696 3129.28467 3440.40356
14.2000 14.2044 3632.7 0.0002753 3124.38672 3411.55737
14.2100 14.2144 3623.3 0.0002760 3119.51465 3386.02002
14.2200 14.2244 3585.0 0.0002789 3114.66724 3363.15991
14.2300 14.2344 3561.3 0.0002808 3109.84399 3342.52979
14.2400 14.2444 3505.5 0.0002853 3105.04443 3323.80127
14.2500 14.2544 3503.8 0.0002854 3100.26978 3306.72607
14.2600 14.2644 3489.2 0.0002866 3095.51978 3291.11743
14.2700 14.2744 3470.3 0.0002882 3090.79346 3276.83325
14.2800 14.2844 3448.1 0.0002900 3086.09033 3263.77515
14.2900 14.2944 3420.5 0.0002924 3081.41113 3251.88696
14.3000 14.3044 3417.2 0.0002926 3076.75586 3241.15796
14.3100 14.3144 3411.9 0.0002931 3072.12354 3231.63721
14.3200 14.3244 3410.1 0.0002932 3067.51416 3223.43042
14.3300 14.3344 3349.1 0.0002986 3062.92798 3216.72729
14.3400 14.3444 3374.9 0.0002963 3058.36255 3211.79639
14.3500 14.3544 3379.1 0.0002959 3053.82178 3208.98901
14.3600 14.3644 3389.0 0.0002951 3049.30322 3208.72388
14.3700 14.3744 3355.8 0.0002980 3044.80713 3211.45190
14.3800 14.3844 3400.0 0.0002941 3040.33252 3217.60181
14.3900 14.3944 3412.2 0.0002931 3035.88013 3227.51587
14.4000 14.4044 3462.4 0.0002888 3031.45020 3241.34668
14.4100 14.4144 3428.9 0.0002916 3027.04077 3258.95801
14.4200 14.4244 3502.6 0.0002855 3022.65283 3279.79175
14.4300 14.4344 3520.3 0.0002841 3018.28638 3302.69629
14.4400 14.4444 3557.6 0.0002811 3013.94067 3325.71094
14.4500 14.4544 3563.4 0.0002806 3009.61670 3345.89893
14.4600 14.4644 3547.4 0.0002819 3005.31396 3359.51196
14.4700 14.4744 3586.3 0.0002788 3001.03125 3362.85596
14.4800 14.4844 3556.8 0.0002812 2996.77002 3353.79297
14.4900 14.4944 3540.5 0.0002824 2992.52759 3332.85693
14.5000 14.5044 3475.5 0.0002877 2988.30640 3302.95557
14.5100 14.5144 3463.7 0.0002887 2984.10498 3267.93921
14.5200 14.5244 3416.5 0.0002927 2979.92310 3231.27710
14.5300 14.5344 3377.4 0.0002961 2975.76172 3195.49512
14.5400 14.5444 3311.6 0.0003020 2971.62012 3162.19214
14.5500 14.5544 3290.5 0.0003039 2967.49756 3132.23804
14.5600 14.5644 3249.9 0.0003077 2963.39478 3092.94995
14.5700 14.5744 3234.3 0.0003092 2959.31079 3070.56030
14.5800 14.5844 3197.5 0.0003127 2955.24658 3051.57495
14.5900 14.5944 3161.7 0.0003163 2951.20044 3035.57520
14.6000 14.6044 3156.4 0.0003168 2947.17358 3022.07373
14.6100 14.6144 3134.5 0.0003190 2943.16602 3010.58496
14.6200 14.6244 3125.8 0.0003199 2939.17578 3000.66235
14.6300 14.6344 3080.6 0.0003246 2935.20435 2991.93213
14.6400 14.6444 3092.2 0.0003234 2931.25122 2984.09448
14.6500 14.6544 3086.4 0.0003240 2927.31616 2976.92139
14.6600 14.6644 3073.5 0.0003254 2923.39941 2970.24341
14.6700 14.6744 3033.7 0.0003296 2919.50049 2963.94360
14.6800 14.6844 3042.4 0.0003287 2915.61841 2957.93848
14.6900 14.6944 3032.8 0.0003297 2911.75488 2952.16968
14.7000 14.7044 3027.0 0.0003304 2907.90869 2946.68384
14.7100 14.7144 2992.6 0.0003342 2904.08008 2941.27734
14.7200 14.7244 2992.3 0.0003342 2900.26831 2936.01611
14.7300 14.7344 2989.4 0.0003345 2896.47339 2926.64014
14.7400 14.7444 2996.2 0.0003338 2892.69604 2921.67969
14.7500 14.7544 2985.2 0.0003350 2888.93604 2916.82056
14.7600 14.7644 2934.4 0.0003408 2885.19116 2912.05347
14.7700 14.7744 2957.2 0.0003382 2881.46338 2907.37109
14.7800 14.7844 2945.9 0.0003395 2877.75293 2902.76538
14.7900 14.7944 2944.6 0.0003396 2874.05835 2898.23096
14.8000 14.8044 2904.9 0.0003442 2870.38013 2893.76270
14.8100 14.8144 2920.2 0.0003424 2866.71753 2889.35669
14.8200 14.8244 2906.3 0.0003441 2863.07275 2885.00659
14.8300 14.8344 2907.1 0.0003440 2859.44165 2880.71216
14.8400 14.8444 2872.5 0.0003481 2855.82739 2876.46655
14.8500 14.8544 2885.9 0.0003465 2852.22900 2872.26929
14.8600 14.8644 2878.9 0.0003474 2848.64600 2868.11792
14.8700 14.8744 2870.4 0.0003484 2845.07837 2864.00952
14.8800 14.8844 2844.3 0.000352 2841.52563 2859.94116
14.8900 14.8944 2843.9 0.000352 2837.98901 2855.91260
14.9000 14.9044 2841.7 0.000352 2834.46704 2851.92188
14.9100 14.9144 2827.2 0.000354 2830.96094 2847.96582
14.9200 14.9244 2836.1 0.000353 2827.46802 2844.04395
14.9300 14.9344 2798.1 0.000357 2823.99146 2840.15552
14.9400 14.9444 2817.1 0.000355 2820.52954 2836.29834
14.9500 14.9544 2804.7 0.000357 2817.08130 2832.47168
14.9600 14.9644 2798.0 0.000357 2813.64868 2828.67578
14.9700 14.9744 2776.1 0.000360 2810.22900 2824.90723
14.9800 14.9844 2786.2 0.000359 2806.82593 2821.16797
14.9900 14.9944 2796.1 0.000358 2803.43555 2817.45459
15.0000 15.0044 2784.5 0.000359 2800.05981 2813.76587
15.0100 15.0144 2748.1 0.000364 2796.69824 2810.10425
15.0200 15.0244 2763.0 0.000362 2793.34937 2806.46680
15.0300 15.0344 2757.5 0.000363 2790.01563 2802.85474
15.0400 15.0444 2755.5 0.000363 2786.69531 2799.26538
15.0500 15.0544 2745.3 0.000364 2783.38892 2795.69824
15.0600 15.0644 2735.4 0.000366 2780.09546 2792.15405
15.0700 15.0744 2739.8 0.000365 2776.81763 2788.63159
15.0800 15.0844 2734.7 0.000366 2773.55029 2785.13062
15.0900 15.0944 2739.9 0.000365 2770.29736 2781.77051
15.1000 15.1044 2700.3 0.000370 2767.05884 2778.31274
15.1100 15.1144 2731.5 0.000366 2763.83276 2774.87476
15.1200 15.1244 2721.6 0.000367 2760.61914 2771.45728
15.1300 15.1344 2723.1 0.000367 2757.41943 2768.05835
15.1400 15.1444 2695.5 0.000371 2754.23267 2764.67871
15.1500 15.1544 2723.4 0.000367 2751.05811 2761.31909
15.1600 15.1644 2716.6 0.000368 2747.89624 2757.97607
15.1700 15.1744 2713.9 0.000368 2744.74731 2754.65161
15.1800 15.1844 2688.7 0.000372 2741.61182 2751.34473
15.1900 15.1944 2699.3 0.000370 2738.48755 2748.05688
15.2000 15.2044 2700.0 0.000370 2735.37671 2744.78589
15.2100 15.2144 2707.2 0.000369 2732.27759 2741.53101
15.2200 15.2244 2699.8 0.000370 2729.19092 2738.29395
15.2300 15.2344 2690.2 0.000372 2726.11743 2735.07202
15.2400 15.2444 2690.8 0.000372 2723.05542 2731.86816
15.2500 15.2544 2696.9 0.000371 2720.00513 2732.45825
15.2600 15.2644 2695.2 0.000371 2716.96729 2729.33154
15.2700 15.2744 2668.8 0.000375 2713.94092 2726.22144
15.2800 15.2844 2679.5 0.000373 2710.92773 2723.12866
15.2900 15.2944 2678.1 0.000373 2707.92529 2720.05054
15.3000 15.3044 2675.8 0.000374 2704.93481 2716.98901
15.3100 15.3144 2643.9 0.000378 2701.95557 2713.94336
15.3200 15.3244 2671.8 0.000374 2698.98853 2710.91406
15.3300 15.3344 2662.1 0.000376 2696.03345 2707.89917
15.3400 15.3444 2656.5 0.000376 2693.08936 2704.90063
15.3500 15.3544 2636.8 0.000379 2690.15698 2701.91821
15.3600 15.3644 2651.3 0.000377 2687.23535 2698.95020
15.3700 15.3744 2650.7 0.000377 2684.32568 2695.99707
15.3800 15.3844 2644.2 0.000378 2681.42700 2693.06006
15.3900 15.3944 2633.4 0.000380 2678.53979 2690.13696
15.4000 15.4044 2620.1 0.000382 2675.66357 2687.22949
15.4100 15.4144 2642.6 0.000378 2672.79883 2684.33569
15.4200 15.4244 2626.4 0.000381 2669.94482 2681.45825
15.4300 15.4344 2632.0 0.000380 2667.10132 2678.59351
15.4400 15.4444 2605.1 0.000384 2664.26929 2675.74512
15.4500 15.4544 2631.0 0.000380 2661.44849 2672.91016
15.4600 15.4644 2626.3 0.000381 2658.63818 2670.09009
15.4700 15.4744 2634.6 0.000380 2655.83789 2667.45581
15.4800 15.4844 2596.1 0.000385 2653.04956 2664.66699
15.4900 15.4944 2618.8 0.000382 2650.27075 2661.89087
15.5000 15.5044 2615.5 0.000382 2647.50342 2659.12964
15.5100 15.5144 2617.4 0.000382 2644.74609 2656.38208
15.5200 15.5244 2585.1 0.000387 2641.99951 2653.64893
15.5300 15.5344 2602.5 0.000384 2639.26318 2650.93018
15.5400 15.5444 2597.1 0.000385 2636.53857 2648.22534
15.5500 15.5544 2592.4 0.000386 2633.82300 2645.53467
15.5600 15.5644 2583.2 0.000387 2631.11743 2642.85718
15.5700 15.5744 2555.2 0.000391 2628.42310 2640.19507
15.5800 15.5844 2572.6 0.000389 2625.73828 2637.54639
15.5900 15.5944 2565.3 0.000390 2623.06421 2634.91138
15.6000 15.6044 2562.5 0.000390 2620.40063 2632.29077
15.6100 15.6144 2528.7 0.000395 2617.74658 2629.68481
15.6200 15.6244 2552.6 0.000392 2615.10303 2627.09131
15.6300 15.6344 2543.2 0.000393 2612.46851 2624.51294
15.6400 15.6444 2551.3 0.000392 2609.84497 2621.94922
15.6500 15.6544 2529.7 0.000395 2607.23096 2615.19800
15.6600 15.6644 2539.3 0.000394 2604.62671 2612.71167
15.6700 15.6744 2527.4 0.000396 2602.03271 2610.23950
15.6800 15.6844 2539.0 0.000394 2599.44800 2607.78027
15.6900 15.6944 2510.0 0.000398 2596.87451 2605.33545
15.7000 15.7044 2528.3 0.000396 2594.30884 2602.90332
15.7100 15.7144 2529.1 0.000395 2591.75439 2600.48486
15.7200 15.7244 2524.2 0.000396 2589.20898 2598.08081
15.7300 15.7344 2509.7 0.000398 2586.67285 2595.69019
15.7400 15.7444 2513.4 0.000398 2584.14697 2593.31348
15.7500 15.7544 2517.3 0.000397 2581.62988 2590.95166
15.7600 15.7644 2523.7 0.000396 2579.12305 2588.60352
15.7700 15.7744 2521.9 0.000397 2576.62524 2586.27051
15.7800 15.7844 2485.0 0.000402 2574.13770 2583.95215
15.7900 15.7944 2509.1 0.000399 2571.65869 2581.64819
15.8000 15.8044 2504.2 0.000399 2569.18896 2579.35840
15.8100 15.8144 2514.2 0.000398 2566.72949 2577.08594
15.8200 15.8244 2486.4 0.000402 2564.27832 2574.82764
15.8300 15.8344 2505.8 0.000399 2561.83691 2572.58545
15.8400 15.8444 2503.9 0.000399 2559.40503 2570.67773
15.8500 15.8544 2507.7 0.000399 2556.98169 2568.47046
15.8600 15.8644 2487.8 0.000402 2554.56885 2566.29883
15.8700 15.8744 2503.0 0.000400 2552.16382 2564.12573
15.8800 15.8844 2506.1 0.000399 2549.76880 2561.96997
15.8900 15.8944 2501.0 0.000400 2547.38208 2559.83252
15.9000 15.9044 2482.1 0.000403 2545.00586 2557.71289
15.9100 15.9144 2498.9 0.000400 2542.63696 2555.61255
15.9200 15.9244 2504.3 0.000399 2540.27808 2553.53052
15.9300 15.9344 2501.4 0.000400 2537.92773 2551.46802
15.9400 15.9444 2509.0 0.000399 2535.58643 2549.42676
15.9500 15.9544 2486.9 0.000402 2533.25488 2547.40552
15.9600 15.9644 2512.2 0.000398 2530.93066 2545.40649
15.9700 15.9744 2512.6 0.000398 2528.61694 2543.42847
15.9800 15.9844 2511.7 0.000398 2526.31128 2541.47559
15.9900 15.9944 2488.5 0.000402 2524.01440 2543.34351
16.0000 16.0044 2506.9 0.000399 2521.72656 2541.47974
16.0100 16.0144 2518.0 0.000397 2519.44702 2539.64136
16.0200 16.0244 2513.1 0.000398 2517.17627 2537.83203
16.0300 16.0344 2489.6 0.000402 2514.91553 2536.05151
16.0400 16.0444 2517.4 0.000397 2512.66235 2534.30322
16.0500 16.0544 2519.9 0.000397 2510.41797 2532.58862
16.0600 16.0644 2527.3 0.000396 2508.18213 2530.90894
16.0700 16.0744 2513.3 0.000398 2505.95532 2529.26685
16.0800 16.0844 2531.8 0.000395 2503.73682 2527.66528
16.0900 16.0944 2538.6 0.000394 2501.52637 2526.10791
16.1000 16.1044 2544.6 0.000393 2499.32495 2524.59717
16.1100 16.1144 2536.1 0.000394 2497.13257 2523.13916
16.1200 16.1244 2553.7 0.000392 2494.94702 2521.73950
16.1300 16.1344 2575.7 0.000388 2492.77271 2520.17358
16.1400 16.1444 2573.4 0.000389 2490.60522 2518.91455
16.1500 16.1544 2595.0 0.000385 2488.44604 2517.74316
16.1600 16.1644 2574.9 0.000388 2486.29541 2516.67432
16.1700 16.1744 2607.8 0.000383 2484.15332 2515.73364
16.1800 16.1844 2610.8 0.000383 2482.01953 2514.95313
16.1900 16.1944 2620.4 0.000382 2479.89404 2514.37769
16.2000 16.2044 2601.5 0.000384 2477.77734 2514.06543
16.2100 16.2144 2620.4 0.000382 2475.66870 2514.09277
16.2200 16.2244 2637.3 0.000379 2473.56738 2514.54858
16.2300 16.2344 2631.8 0.000380 2471.47510 2515.54443
16.2400 16.2444 2614.6 0.000382 2469.39087 2517.19702
16.2500 16.2544 2638.0 0.000379 2467.31470 2519.62915
16.2600 16.2644 2630.8 0.000380 2465.24731 2522.95361
16.2700 16.2744 2631.0 0.000380 2463.18823 2527.25854
16.2800 16.2844 2610.0 0.000383 2461.13672 2532.58423
16.2900 16.2944 2633.9 0.000380 2459.09326 2538.90527
16.3000 16.3044 2640.8 0.000379 2457.05811 2546.09424
16.3100 16.3144 2639.3 0.000379 2455.03076 2553.88550
16.3200 16.3244 2638.7 0.000379 2453.01172 2561.81836
16.3300 16.3344 2633.7 0.000380 2451.00024 2569.19824
16.3400 16.3444 2648.6 0.000378 2448.99731 2575.10254
16.3500 16.3544 2641.6 0.000379 2447.00244 2578.54199
16.3600 16.3644 2643.3 0.000378 2445.01489 2578.77539
16.3700 16.3744 2606.4 0.000384 2443.03613 2575.64307
16.3800 16.3844 2620.2 0.000382 2441.06494 2569.64648
16.3900 16.3944 2607.5 0.000384 2439.10205 2561.71289
16.4000 16.4044 2599.9 0.000385 2437.14575 2552.83765
16.4100 16.4144 2557.4 0.000391 2435.19873 2543.84692
16.4200 16.4244 2568.2 0.000389 2433.25879 2535.32275
16.4300 16.4344 2553.0 0.000392 2431.32666 2527.62891
16.4400 16.4444 2545.7 0.000393 2429.40259 2520.96582
16.4500 16.4544 2517.9 0.000397 2427.48657 2515.42065
16.4600 16.4644 2528.5 0.000395 2425.57837 2510.99585
16.4700 16.4744 2515.5 0.000398 2423.67725 2507.63892
16.4800 16.4844 2520.9 0.000397 2421.78394 2505.26636
16.4900 16.4944 2500.8 0.000400 2419.89844 2503.77954
16.5000 16.5044 2514.5 0.000398 2418.02100 2503.07788
16.5100 16.5144 2510.7 0.000398 2416.15088 2503.07471
16.5200 16.5244 2506.7 0.000399 2414.28809 2503.69824
16.5300 16.5344 2521.6 0.000397 2412.43408 2504.90234
16.5400 16.5444 2498.5 0.000400 2410.58618 2506.65967
16.5500 16.5544 2523.5 0.000396 2408.74634 2508.97217
16.5600 16.5644 2522.0 0.000397 2406.91431 2511.86206
16.5700 16.5744 2529.1 0.000395 2405.08960 2515.38135
16.5800 16.5844 2523.1 0.000396 2403.27319 2519.60498
16.5900 16.5944 2540.8 0.000394 2401.46387 2524.64038
16.6000 16.6044 2552.3 0.000392 2399.66162 2530.62451
16.6100 16.6144 2557.8 0.000391 2397.86694 2537.72583
16.6200 16.6244 2562.4 0.000390 2396.07910 2546.14795
16.6300 16.6344 2593.6 0.000386 2394.29956 2556.12207
16.6400 16.6444 2600.5 0.000385 2392.52710 2567.90405
16.6500 16.6544 2626.3 0.000381 2390.76270 2581.76196
16.6600 16.6644 2631.0 0.000380 2389.00391 2597.97046
16.6700 16.6744 2690.9 0.000372 2387.25415 2616.79443
16.6800 16.6844 2724.4 0.000367 2385.51050 2638.48218
16.6900 16.6944 2774.2 0.000360 2383.77466 2663.25757
16.7000 16.7044 2799.5 0.000357 2382.04590 2691.31079
16.7100 16.7144 2870.1 0.0003484 2380.32520 2722.79639
16.7200 16.7244 2921.2 0.0003423 2378.61084 2757.83325
16.7300 16.7344 2969.0 0.0003368 2376.90430 2796.58472
16.7400 16.7444 3027.8 0.0003303 2375.20459 2839.49341
16.7500 16.7544 3072.1 0.0003255 2373.51196 2887.71802
16.7600 16.7644 3154.3 0.0003170 2371.82593 2943.65698
16.7700 16.7744 3211.1 0.0003114 2370.14771 3011.20288
16.7800 16.7844 3317.4 0.0003014 2368.47632 3095.50977
16.7900 16.7944 3383.3 0.0002956 2366.81128 3202.38599
16.8000 16.8044 3538.0 0.0002826 2365.15454 3337.61890
16.8100 16.8144 3694.2 0.0002707 2363.50464 3506.35400
16.8200 16.8244 3889.7 0.0002571 2361.86206 3713.86841
16.8300 16.8344 4072.6 0.0002455 2360.22510 3959.50781
16.8400 16.8444 4349.0 0.0002299 2358.59546 4252.33984
16.8500 16.8544 4616.4 0.0002166 2356.97339 4571.25537
16.8600 16.8644 4881.1 0.0002049 2355.35815 4914.91309
16.8700 16.8744 5088.0 0.0001965 2353.74878 5266.52637
16.8800 16.8844 5362.4 0.0001865 2352.14746 5600.29834
16.8900 16.8944 5547.4 0.0001803 2350.55347 5881.33447
16.9000 16.9044 5609.3 0.0001783 2348.96509 6070.32520
16.9100 16.9144 5591.7 0.0001788 2347.38330 6134.59277
16.9200 16.9244 5583.4 0.0001791 2345.80933 6061.34912
16.9300 16.9344 5421.2 0.0001845 2344.24194 5863.78760
16.9400 16.9444 5219.4 0.0001916 2342.68042 5574.70605
16.9500 16.9544 4934.5 0.0002027 2341.12598 5233.21729
16.9600 16.9644 4677.6 0.0002138 2339.57837 4873.82275
16.9700 16.9744 4429.1 0.0002258 2338.03833 4525.18262
16.9800 16.9844 4153.1 0.0002408 2336.50317 4197.25732
16.9900 16.9944 3907.5 0.0002559 2334.97583 3902.70532
17.0000 17.0044 3667.3 0.0002727 2333.45483 3645.85693
17.0100 17.0144 3497.1 0.0002859 2331.93970 3427.43970
17.0200 17.0244 3336.0 0.0002998 2330.43213 3245.68188
17.0300 17.0344 3189.0 0.0003136 2328.93091 3097.18237
17.0400 17.0444 3035.4 0.0003294 2327.43555 2977.62695
17.0500 17.0544 2967.7 0.0003370 2325.94751 2882.37524
17.0600 17.0644 2890.0 0.0003460 2324.46509 2806.90210
17.0700 17.0744 2809.9 0.000356 2322.98975 2747.10864
17.0800 17.0844 2724.7 0.000367 2321.52051 2699.48730
17.0900 17.0944 2701.5 0.000370 2320.05762 2661.16992
17.1000 17.1044 2647.4 0.000378 2318.60132 2629.90918
17.1100 17.1144 2607.4 0.000384 2317.15112 2604.00244
17.1200 17.1244 2557.5 0.000391 2315.70752 2582.18555
17.1300 17.1344 2555.1 0.000391 2314.27002 2563.54419
17.1400 17.1444 2531.6 0.000395 2312.83862 2547.41870
17.1500 17.1544 2507.3 0.000399 2311.41333 2533.33545
17.1600 17.1644 2474.8 0.000404 2309.99512 2520.95215
17.1700 17.1744 2478.1 0.000404 2308.58228 2510.01440
17.1800 17.1844 2463.6 0.000406 2307.17578 2500.33667
17.1900 17.1944 2452.9 0.000408 2305.77539 2491.77515
17.2000 17.2044 2436.0 0.000411 2304.38110 2484.22510
17.2100 17.2144 2434.1 0.000411 2302.99365 2477.61108
17.2200 17.2244 2438.8 0.000410 2301.61157 2471.88281
17.2300 17.2344 2437.4 0.000410 2300.23560 2467.02197
17.2400 17.2444 2431.2 0.000411 2298.86548 2463.03613
17.2500 17.2544 2411.9 0.000415 2297.50146 2459.97070
17.2600 17.2644 2438.7 0.000410 2296.14404 2457.90430
17.2700 17.2744 2443.5 0.000409 2294.79199 2456.95825
17.2800 17.2844 2452.6 0.000408 2293.44556 2457.29468
17.2900 17.2944 2447.9 0.000409 2292.10474 2459.11328
17.3000 17.3044 2481.0 0.000403 2290.77173 2462.64453
17.3100 17.3144 2508.1 0.000399 2289.44360 2468.12549
17.3200 17.3244 2520.5 0.000397 2288.12085 2475.78906
17.3300 17.3344 2531.9 0.000395 2286.80371 2485.82275
17.3400 17.3444 2584.1 0.000387 2285.49316 2498.33350
17.3500 17.3544 2616.9 0.000382 2284.18774 2513.30200
17.3600 17.3644 2653.7 0.000377 2282.88867 2530.52490
17.3700 17.3744 2669.1 0.000375 2281.59448 2549.53833
17.3800 17.3844 2725.9 0.000367 2280.30737 2569.50928
17.3900 17.3944 2757.8 0.000363 2279.02417 2589.12451
17.4000 17.4044 2781.0 0.000360 2277.74756 2606.54565
17.4100 17.4144 2770.6 0.000361 2276.47705 2619.56177
17.4200 17.4244 2797.9 0.000357 2275.21118 2626.10034
17.4300 17.4344 2786.3 0.000359 2273.95093 2624.97241
17.4400 17.4444 2763.9 0.000362 2272.69678 2616.40479
17.4500 17.4544 2730.6 0.000366 2271.44775 2601.93994
17.4600 17.4644 2721.7 0.000367 2270.20483 2583.77808
17.4700 17.4744 2689.8 0.000372 2268.96704 2564.06372
17.4800 17.4844 2650.6 0.000377 2267.73486 2544.49927
17.4900 17.4944 2617.8 0.000382 2266.50757 2526.25537
17.5000 17.5044 2572.0 0.000389 2265.28613 2510.05786
17.5100 17.5144 2566.0 0.000390 2264.07031 2496.30029
17.5200 17.5244 2531.9 0.000395 2262.85938 2485.14307
17.5300 17.5344 2516.5 0.000397 2261.65356 2476.58374
17.5400 17.5444 2485.3 0.000402 2260.45386 2470.51074
17.5500 17.5544 2491.6 0.000401 2259.25854 2466.75122
17.5600 17.5644 2474.9 0.000404 2258.06909 2465.10669
17.5700 17.5744 2474.1 0.000404 2256.88452 2465.38794
17.5800 17.5844 2442.8 0.000409 2255.70508 2467.43335
17.5900 17.5944 2465.5 0.000406 2254.53125 2471.13965
17.6000 17.6044 2467.7 0.000405 2253.36328 2476.46606
17.6100 17.6144 2465.9 0.000406 2252.19946 2483.45313
17.6200 17.6244 2456.1 0.000407 2251.04150 2492.22363
17.6300 17.6344 2476.1 0.000404 2249.88818 2502.99463
17.6400 17.6444 2482.4 0.000403 2248.73975 2516.07617
17.6500 17.6544 2493.3 0.000401 2247.59717 2531.87134
17.6600 17.6644 2494.7 0.000401 2246.45825 2550.87451
17.6700 17.6744 2511.4 0.000398 2245.32642 2573.65063
17.6800 17.6844 2522.8 0.000396 2244.19775 2600.81543
17.6900 17.6944 2557.3 0.000391 2243.07397 2633.00708
17.7000 17.7044 2554.0 0.000392 2241.95630 2670.83691
17.7100 17.7144 2599.1 0.000385 2240.84302 2714.86279
17.7200 17.7244 2643.2 0.000378 2239.73486 2765.52515
17.7300 17.7344 2685.4 0.000372 2238.63159 2823.10449
17.7400 17.7444 2724.4 0.000367 2237.53345 2887.64453
17.7500 17.7544 2768.9 0.000361 2236.43970 2958.84766
17.7600 17.7644 2831.4 0.000353 2235.35156 3035.97266
17.7700 17.7744 2891.8 0.0003458 2234.26733 3117.84766
17.7800 17.7844 2936.0 0.0003406 2233.18774 3206.40576
17.7900 17.7944 2969.0 0.0003368 2232.11328 3294.89893
17.8000 17.8044 3044.8 0.0003284 2231.04370 3388.16333
17.8100 17.8144 3118.9 0.0003206 2229.97876 3490.89502
17.8200 17.8244 3200.1 0.0003125 2228.91895 3610.55396
17.8300 17.8344 3283.7 0.0003045 2227.86304 3756.03125
17.8400 17.8444 3469.2 0.0002883 2226.81274 3935.97900
17.8500 17.8544 3676.5 0.0002720 2225.76660 4157.44336
17.8600 17.8644 3989.7 0.0002506 2224.72510 4424.88574
17.8700 17.8744 4313.8 0.0002318 2223.68750 4739.37305
17.8800 17.8844 4854.3 0.0002060 2222.65576 5097.60645
17.8900 17.8944 5449.7 0.0001835 2221.62842 5490.55762
17.9000 17.9044 6144.1 0.0001628 2220.60547 5901.55078
17.9100 17.9144 6751.0 0.0001481 2219.58643 6304.17480
17.9200 17.9244 7420.6 0.0001348 2218.57178 6661.39844
17.9300 17.9344 7884.1 0.0001268 2217.56250 6928.74902
17.9400 17.9444 8152.3 0.0001227 2216.55786 7064.05029
17.9500 17.9544 8017.1 0.0001247 2215.55615 7041.86572
17.9600 17.9644 7817.6 0.0001279 2214.56104 6864.32666
17.9700 17.9744 7322.7 0.0001366 2213.56958 6559.98193
17.9800 17.9844 6700.0 0.0001493 2212.58203 6171.62842
17.9900 17.9944 5948.9 0.0001681 2211.59888 5742.29053
18.0000 18.0044 5329.2 0.0001876 2210.61987 5306.70801
18.0100 18.0144 4725.9 0.0002116 2209.64551 4889.08252
18.0200 18.0244 4202.4 0.0002380 2208.67676 4504.75098
18.0300 18.0344 3775.9 0.0002648 2207.71045 4161.88184
18.0400 18.0444 3441.4 0.0002906 2206.74951 3863.79736
18.0500 18.0544 3218.6 0.0003107 2205.79321 3610.32739
18.0600 18.0644 3026.7 0.0003304 2204.84033 3398.91138
18.0700 18.0744 2888.4 0.0003462 2203.89136 3225.44629
18.0800 18.0844 2753.8 0.000363 2202.94751 3085.00195
18.0900 18.0944 2692.2 0.000371 2202.00781 2972.38599
18.1000 18.1044 2638.8 0.000379 2201.07227 2882.58594
18.1100 18.1144 2588.1 0.000386 2200.14111 2811.06079
18.1200 18.1244 2530.0 0.000395 2199.21362 2753.90576
18.1300 18.1344 2523.3 0.000396 2198.29053 2707.90234
18.1400 18.1444 2502.0 0.000400 2197.37231 2670.49463
18.1500 18.1544 2486.1 0.000402 2196.45776 2639.71655
18.1600 18.1644 2445.2 0.000409 2195.54712 2614.08862
18.1700 18.1744 2461.5 0.000406 2194.64014 2592.52100
18.1800 18.1844 2445.7 0.000409 2193.73804 2574.21094
18.1900 18.1944 2445.0 0.000409 2192.84009 2558.57739
18.2000 18.2044 2412.5 0.000415 2191.94580 2545.19019
18.2100 18.2144 2430.7 0.000411 2191.05615 2533.73022
18.2200 18.2244 2421.7 0.000413 2190.16992 2523.95386
18.2300 18.2344 2432.0 0.000411 2189.28833 2515.67334
18.2400 18.2444 2412.2 0.000415 2188.41040 2508.74146
18.2500 18.2544 2431.6 0.000411 2187.53589 2503.03931
18.2600 18.2644 2430.7 0.000411 2186.66650 2498.47168
18.2700 18.2744 2434.1 0.000411 2185.80103 2494.96191
18.2800 18.2844 2424.1 0.000413 2184.93945 2492.44702
18.2900 18.2944 2448.0 0.000409 2184.08154 2490.88110
18.3000 18.3044 2455.0 0.000407 2183.22827 2490.22534
18.3100 18.3144 2448.6 0.000408 2182.37866 2490.45410
18.3200 18.3244 2444.1 0.000409 2181.53271 2491.54785
18.3300 18.3344 2467.3 0.000405 2180.69067 2493.50000
18.3400 18.3444 2472.7 0.000404 2179.85205 2496.51245
18.3500 18.3544 2474.6 0.000404 2179.01831 2500.19165
18.3600 18.3644 2472.5 0.000404 2178.18872 2504.75415
18.3700 18.3744 2489.6 0.000402 2177.36255 2510.22192
18.3800 18.3844 2497.6 0.000400 2176.54028 2516.63062
18.3900 18.3944 2497.7 0.000400 2175.72192 2524.02051
18.4000 18.4044 2509.0 0.000399 2174.90820 2532.44409
18.4100 18.4144 2512.5 0.000398 2174.09692 2541.84082
18.4200 18.4244 2534.2 0.000395 2173.29004 2552.52808
18.4300 18.4344 2540.2 0.000394 2172.48779 2564.46631
18.4400 18.4444 2554.8 0.000391 2171.68823 2577.75781
18.4500 18.4544 2552.4 0.000392 2170.89282 2592.51587
18.4600 18.4644 2591.3 0.000386 2170.10254 2608.87573
18.4700 18.4744 2606.7 0.000384 2169.31543 2626.99097
18.4800 18.4844 2629.1 0.000380 2168.53174 2647.04077
18.4900 18.4944 2629.2 0.000380 2167.75244 2669.23682
18.5000 18.5044 2674.7 0.000374 2166.97656 2693.82324
18.5100 18.5144 2704.7 0.000370 2166.20435 2721.09131
18.5200 18.5244 2743.1 0.000365 2165.43604 2751.38892
18.5300 18.5344 2747.8 0.000364 2164.67212 2785.14502
18.5400 18.5444 2816.6 0.000355 2163.91113 2822.88818
18.5500 18.5544 2850.0 0.000351 2163.15430 2865.29419
18.5600 18.5644 2902.9 0.0003445 2162.40210 2913.23633
18.5700 18.5744 2936.1 0.0003406 2161.65259 2964.09229
18.5800 18.5844 3031.3 0.0003299 2160.90796 3027.00293
18.5900 18.5944 3088.0 0.0003238 2160.16602 3100.20776
18.6000 18.6044 3167.7 0.0003157 2159.42847 3186.46240
18.6100 18.6144 3235.4 0.0003091 2158.69458 3289.40454
18.6200 18.6244 3378.8 0.0002960 2157.96411 3413.75952
18.6300 18.6344 3498.9 0.0002858 2157.23853 3565.51514
18.6400 18.6444 3650.0 0.0002740 2156.51636 3752.04932
18.6500 18.6544 3820.6 0.0002617 2155.79761 3982.13965
18.6600 18.6644 4071.2 0.0002456 2155.08301 4266.48779
18.6700 18.6744 4350.3 0.0002299 2154.37183 4614.65820
18.6800 18.6844 4704.9 0.0002125 2153.66455 5038.49854
18.6900 18.6944 5124.4 0.0001951 2152.96021 5548.57471
18.7000 18.7044 5733.4 0.0001744 2152.26123 6153.69287
18.7100 18.7144 6445.5 0.0001551 2151.56592 6859.46240
18.7200 18.7244 7312.7 0.0001367 2150.87378 7666.52637
18.7300 18.7344 8355.6 0.0001197 2150.18530 8568.28906
18.7400 18.7444 9659.2 0.0001035 2149.50073 9547.93750
18.7500 18.7544 11007.0 0.0000909 2148.81958 10574.68457
18.7600 18.7644 12488.8 0.0000801 2148.14355 11599.89941
18.7700 18.7744 13752.5 0.0000727 2147.47070 12555.18750
18.7800 18.7844 14979.4 0.0000668 2146.80103 13356.29980
18.7900 18.7944 15755.1 0.0000635 2146.13574 13916.87012
18.8000 18.8044 16137.1 0.0000620 2145.47412 14171.83789
18.8100 18.8144 16042.0 0.0000623 2144.81641 14101.65137
18.8200 18.8244 15547.2 0.0000643 2144.16235 13742.24805
18.8300 18.8344 14882.4 0.0000672 2143.51245 13172.44629
18.8400 18.8444 14006.1 0.0000714 2142.86646 12487.00195
18.8500 18.8544 13105.0 0.0000763 2142.22412 11771.68262
18.8600 18.8644 12190.9 0.0000820 2141.58496 11089.90137
18.8700 18.8744 11625.5 0.0000860 2140.95068 10479.76074
18.8800 18.8844 11106.4 0.0000900 2140.31909 9956.01563
18.8900 18.8944 10682.2 0.0000936 2139.69214 9513.26465
18.9000 18.9044 10283.5 0.0000972 2139.06934 9129.03223
18.9100 18.9144 10091.5 0.0000991 2138.44995 8769.97656
18.9200 18.9244 9692.4 0.0001032 2137.83447 8400.72070
18.9300 18.9344 9272.6 0.0001078 2137.22192 7995.45752
18.9400 18.9444 8710.0 0.0001148 2136.61523 7546.19531
18.9500 18.9544 8260.4 0.0001211 2136.01099 7062.72705
18.9600 18.9644 7615.9 0.0001313 2135.41138 6565.17676
18.9700 18.9744 6996.0 0.0001429 2134.81519 6075.03760
18.9800 18.9844 6338.6 0.0001578 2134.22290 5609.50635
18.9900 18.9944 5860.3 0.0001706 2133.63477 5179.86133
19.0000 19.0044 5322.0 0.0001879 2133.05005 4792.16797
19.0100 19.0144 4886.9 0.0002046 2132.46973 4448.67676
19.0200 19.0244 4461.9 0.0002241 2131.89331 4149.02051
19.0300 19.0344 4176.1 0.0002395 2131.32056 3891.08398
19.0400 19.0444 3912.0 0.0002556 2130.75195 3671.59448
19.0500 19.0544 3688.1 0.0002711 2130.18726 3486.56738
19.0600 19.0644 3465.4 0.0002886 2129.62671 3331.66431
19.0700 19.0744 3341.3 0.0002993 2129.07007 3202.50269
19.0800 19.0844 3203.6 0.0003122 2128.51733 3094.89331
19.0900 19.0944 3099.6 0.0003226 2127.96875 3005.01733
19.1000 19.1044 2997.5 0.0003336 2127.42383 2929.53442
19.1100 19.1144 2922.1 0.0003422 2126.88379 2865.62646
19.1200 19.1244 2841.4 0.000352 2126.34619 2810.98462
19.1300 19.1344 2809.1 0.000356 2125.81299 2763.76880
19.1400 19.1444 2767.3 0.000361 2125.28467 2722.53687
19.1500 19.1544 2707.2 0.000369 2124.76074 2686.18286
19.1600 19.1644 2655.4 0.000377 2124.23999 2653.85498
19.1700 19.1744 2629.2 0.000380 2123.72266 2624.90527
19.1800 19.1844 2576.2 0.000388 2123.21069 2598.83301
19.1900 19.1944 2565.8 0.000390 2122.70190 2575.25049
19.2000 19.2044 2532.1 0.000395 2122.19775 2554.71143
19.2100 19.2144 2512.1 0.000398 2121.69751 2535.25049
19.2200 19.2244 2480.6 0.000403 2121.20190 2517.51636
19.2300 19.2344 2476.8 0.000404 2120.71021 2501.34155
19.2400 19.2444 2456.9 0.000407 2120.22168 2486.57886
19.2500 19.2544 2451.4 0.000408 2119.73828 2473.10840
19.2600 19.2644 2416.7 0.000414 2119.25903 2460.82544
19.2700 19.2744 2417.0 0.000414 2118.78296 2449.63770
19.2800 19.2844 2418.7 0.000413 2118.31226 2439.46826
19.2900 19.2944 2398.6 0.000417 2117.84546 2430.25146
19.3000 19.3044 2379.8 0.000420 2117.38232 2421.93066
19.3100 19.3144 2379.3 0.000420 2116.92383 2414.45850
19.3200 19.3244 2378.7 0.000420 2116.46997 2412.75903
19.3300 19.3344 2377.4 0.000421 2116.01929 2406.91699
19.3400 19.3444 2363.5 0.000423 2115.57349 2401.82886
19.3500 19.3544 2347.2 0.000426 2115.13135 2397.47778
19.3600 19.3644 2361.8 0.000423 2114.69458 2393.85010
19.3700 19.3744 2362.9 0.000423 2114.26123 2390.94458
19.3800 19.3844 2360.6 0.000424 2113.83228 2388.59082
19.3900 19.3944 2340.1 0.000427 2113.40820 2387.14429
19.4000 19.4044 2363.2 0.000423 2112.98755 2386.44775
19.4100 19.4144 2360.2 0.000424 2112.57178 2386.52808
19.4200 19.4244 2364.4 0.000423 2112.16016 2387.41699
19.4300 19.4344 2335.3 0.000428 2111.75269 2389.16162
19.4400 19.4444 2378.0 0.000421 2111.35010 2391.81958
19.4500 19.4544 2387.0 0.000419 2110.95166 2395.46313
19.4600 19.4644 2388.3 0.000419 2110.55762 2400.18335
19.4700 19.4744 2376.9 0.000421 2110.16846 2406.09814
19.4800 19.4844 2410.9 0.000415 2109.78271 2413.35864
19.4900 19.4944 2429.5 0.000412 2109.40234 2422.16187
19.5000 19.5044 2442.1 0.000409 2109.02515 2432.76904
19.5100 19.5144 2442.1 0.000409 2108.65356 2445.52954
19.5200 19.5244 2479.6 0.000403 2108.28589 2460.91113
19.5300 19.5344 2512.7 0.000398 2107.92310 2479.54077
19.5400 19.5444 2543.9 0.000393 2107.56445 2502.24683
19.5500 19.5544 2551.2 0.000392 2107.21021 2530.12036
19.5600 19.5644 2619.5 0.000382 2106.86035 2564.55200
19.5700 19.5744 2661.0 0.000376 2106.51538 2607.28540
19.5800 19.5844 2721.7 0.000367 2106.17554 2660.43311
19.5900 19.5944 2770.8 0.000361 2105.83936 2726.47314
19.6000 19.6044 2889.6 0.0003461 2105.50708 2808.18799
19.6100 19.6144 2984.1 0.0003351 2105.18066 2908.55469
19.6200 19.6244 3120.3 0.0003205 2104.85913 3030.56616
19.6300 19.6344 3247.4 0.0003079 2104.54077 3176.99316
19.6400 19.6444 3456.0 0.0002893 2104.22729 3350.07007
19.6500 19.6544 3691.7 0.0002709 2103.91895 3551.11743
19.6600 19.6644 3951.5 0.0002531 2103.61523 3780.07861
19.6700 19.6744 4209.6 0.0002376 2103.31592 4034.91064
19.6800 19.6844 4599.5 0.0002174 2103.02100 4310.76855
19.6900 19.6944 4933.9 0.0002027 2102.73145 4598.91016
19.7000 19.7044 5275.5 0.0001896 2102.44556 4885.44482
19.7100 19.7144 5524.7 0.0001810 2102.16504 5150.45215
19.7200 19.7244 5795.4 0.0001726 2101.88916 5368.69580
19.7300 19.7344 5923.3 0.0001688 2101.61768 5513.79785
19.7400 19.7444 5974.1 0.0001674 2101.35107 5563.69775
19.7500 19.7544 5840.9 0.0001712 2101.08936 5510.28809
19.7600 19.7644 5709.6 0.0001751 2100.83154 5362.45264
19.7700 19.7744 5473.9 0.0001827 2100.57959 5141.15234
19.7800 19.7844 5167.3 0.0001935 2100.33203 4873.20557
19.7900 19.7944 4802.6 0.0002082 2100.08911 4583.81006
19.8000 19.8044 4499.7 0.0002222 2099.85034 4292.86035
19.8100 19.8144 4206.7 0.0002377 2099.61719 4014.21973
19.8200 19.8244 3916.5 0.0002553 2099.38843 3756.60840
19.8300 19.8344 3621.5 0.0002761 2099.16479 3524.85718
19.8400 19.8444 3431.0 0.0002915 2098.94556 3320.99292
19.8500 19.8544 3245.2 0.0003082 2098.73096 3145.06616
19.8600 19.8644 3095.3 0.0003231 2098.52197 2995.74585
19.8700 19.8744 2928.0 0.0003415 2098.31763 2870.79126
19.8800 19.8844 2840.0 0.000352 2098.11719 2767.42944
19.8900 19.8944 2744.9 0.000364 2097.92261 2682.66016
19.9000 19.9044 2668.7 0.000375 2097.73218 2609.71094
19.9100 19.9144 2574.9 0.000388 2097.54663 2553.41968
19.9200 19.9244 2543.4 0.000393 2097.36670 2507.47485
19.9300 19.9344 2490.6 0.000402 2097.19165 2469.76025
19.9400 19.9444 2454.3 0.000407 2097.02051 2438.52979
19.9500 19.9544 2398.4 0.000417 2096.85449 2412.38818
19.9600 19.9644 2383.0 0.000420 2096.69385 2390.24365
19.9700 19.9744 2368.6 0.000422 2096.53784 2371.26270
19.9800 19.9844 2336.6 0.000428 2096.38672 2354.81348
19.9900 19.9944 2303.7 0.000434 2096.24048 2340.42505
20.0000 20.0044 2303.1 0.000434 2096.09888 2327.74243
20.0100 20.0144 2293.0 0.000436 2095.96313 2316.50269
20.0200 20.0244 2279.0 0.000439 2095.83105 2306.50220
20.0300 20.0344 2238.6 0.000447 2095.70483 2297.58691
20.0400 20.0444 2251.6 0.000444 2095.58350 2289.63965
20.0500 20.0544 2247.7 0.000445 2095.46655 2282.70190
20.0600 20.0644 2240.8 0.000446 2095.35474 2276.43604
20.0700 20.0744 2209.6 0.000453 2095.24829 2270.92676
20.0800 20.0844 2219.0 0.000451 2095.14673 2266.14380
20.0900 20.0944 2218.0 0.000451 2095.04980 2262.07520
20.1000 20.1044 2217.8 0.000451 2094.95703 2258.72900
20.1100 20.1144 2189.5 0.000457 2094.87012 2256.13745
20.1200 20.1244 2200.4 0.000454 2094.78857 2255.67871
20.1300 20.1344 2212.5 0.000452 2094.71143 2254.79346
20.1400 20.1444 2208.8 0.000453 2094.63965 2254.89648
20.1500 20.1544 2188.2 0.000457 2094.57178 2256.11816
20.1600 20.1644 2198.3 0.000455 2094.51025 2258.59766
20.1700 20.1744 2211.3 0.000452 2094.45337 2262.49146
20.1800 20.1844 2217.7 0.000451 2094.40063 2267.95044
20.1900 20.1944 2205.9 0.000453 2094.35352 2275.10913
20.2000 20.2044 2216.1 0.000451 2094.31079 2284.06934
20.2100 20.2144 2234.7 0.000447 2094.27368 2294.87378
20.2200 20.2244 2247.2 0.000445 2094.24170 2307.47949
20.2300 20.2344 2239.3 0.000447 2094.21387 2321.72461
20.2400 20.2444 2255.1 0.000443 2094.19141 2337.26685
20.2500 20.2544 2273.3 0.000440 2094.17383 2353.53638
20.2600 20.2644 2283.4 0.000438 2094.16138 2369.64819
20.2700 20.2744 2279.1 0.000439 2094.15430 2384.38086
20.2800 20.2844 2284.6 0.000438 2094.15137 2396.24121
20.2900 20.2944 2297.5 0.000435 2094.15308 2403.72485
20.3000 20.3044 2298.1 0.000435 2094.16089 2405.73022
20.3100 20.3144 2280.5 0.000439 2094.17285 2401.95264
20.3200 20.3244 2273.2 0.000440 2094.18994 2393.01465
20.3300 20.3344 2279.5 0.000439 2094.21240 2380.22559
20.3400 20.3444 2271.4 0.000440 2094.23877 2365.14917
20.3500 20.3544 2251.6 0.000444 2094.27100 2349.23340
20.3600 20.3644 2239.1 0.000447 2094.30737 2333.62085
20.3700 20.3744 2244.3 0.000446 2094.34937 2319.12744
20.3800 20.3844 2231.2 0.000448 2094.39600 2306.29712
20.3900 20.3944 2217.4 0.000451 2094.44678 2295.47681
20.4000 20.4044 2203.9 0.000454 2094.50439 2286.88403
20.4100 20.4144 2220.7 0.000450 2094.56519 2280.65747
20.4200 20.4244 2222.5 0.000450 2094.63135 2276.90332
20.4300 20.4344 2210.9 0.000452 2094.70215 2275.72607
20.4400 20.4444 2210.1 0.000452 2094.77856 2277.25903
20.4500 20.4544 2226.7 0.000449 2094.85889 2281.68262
20.4600 20.4644 2237.5 0.000447 2094.94458 2289.24487
20.4700 20.4744 2243.0 0.000446 2095.03467 2300.26025
20.4800 20.4844 2249.6 0.000445 2095.13037 2315.10327
20.4900 20.4944 2274.9 0.000440 2095.22998 2334.18896
20.5000 20.5044 2299.3 0.000435 2095.33447 2357.93457
20.5100 20.5144 2313.9 0.000432 2095.44458 2386.72192
20.5200 20.5244 2341.8 0.000427 2095.55859 2420.82861
20.5300 20.5344 2401.9 0.000416 2095.67749 2460.35962
20.5400 20.5444 2441.9 0.000410 2095.80103 2505.16089
20.5500 20.5544 2496.5 0.000401 2095.92969 2554.69531
20.5600 20.5644 2552.6 0.000392 2096.06323 2607.88965
20.5700 20.5744 2628.9 0.000380 2096.20068 2662.92065
20.5800 20.5844 2681.5 0.000373 2096.34399 2717.00732
20.5900 20.5944 2713.4 0.000369 2096.49121 2766.29517
20.6000 20.6044 2734.0 0.000366 2096.64258 2806.07324
20.6100 20.6144 2779.9 0.000360 2096.79956 2831.54395
20.6200 20.6244 2833.0 0.000353 2096.96069 2839.10156
20.6300 20.6344 2738.9 0.000365 2097.12695 2827.58398
20.6400 20.6444 2711.2 0.000369 2097.29736 2798.72998
20.6500 20.6544 2686.7 0.000372 2097.47217 2756.50195
20.6600 20.6644 2644.3 0.000378 2097.65137 2705.76245
20.6700 20.6744 2568.5 0.000389 2097.83569 2651.07764
20.6800 20.6844 2528.5 0.000395 2098.02417 2596.07007
20.6900 20.6944 2498.2 0.000400 2098.21655 2543.28931
20.7000 20.7044 2467.8 0.000405 2098.41455 2494.36597
20.7100 20.7144 2418.0 0.000414 2098.61621 2450.22144
20.7200 20.7244 2384.3 0.000419 2098.82275 2411.26929
20.7300 20.7344 2366.8 0.000423 2099.03369 2377.56128
20.7400 20.7444 2345.7 0.000426 2099.24878 2347.53906
20.7500 20.7544 2308.9 0.000433 2099.46875 2323.55347
20.7600 20.7644 2303.6 0.000434 2099.69238 2295.34375
20.7700 20.7744 2294.1 0.000436 2099.92065 2279.29272
20.7800 20.7844 2279.9 0.000439 2100.15283 2266.36572
20.7900 20.7944 2249.5 0.000445 2100.38916 2256.05249
20.8000 20.8044 2265.8 0.000441 2100.63062 2247.89209
20.8100 20.8144 2251.0 0.000444 2100.87598 2241.48193
20.8200 20.8244 2246.6 0.000445 2101.12549 2236.48486
20.8300 20.8344 2221.3 0.000450 2101.37817 2232.62769
20.8400 20.8444 2222.2 0.000450 2101.63647 2229.69067
20.8500 20.8544 2234.0 0.000448 2101.89844 2227.50977
20.8600 20.8644 2222.4 0.000450 2102.16431 2225.95410
20.8700 20.8744 2217.1 0.000451 2102.43433 2224.93066
20.8800 20.8844 2207.7 0.000453 2102.70776 2221.11011
20.8900 20.8944 2224.7 0.000449 2102.98633 2220.99194
20.9000 20.9044 2220.8 0.000450 2103.26855 2221.24878
20.9100 20.9144 2199.0 0.000455 2103.55396 2221.85767
20.9200 20.9244 2203.0 0.000454 2103.84375 2226.62109
20.9300 20.9344 2214.1 0.000452 2104.13721 2227.93359
20.9400 20.9444 2218.5 0.000451 2104.43530 2229.58154
20.9500 20.9544 2208.8 0.000453 2104.73682 2231.57422
20.9600 20.9644 2207.1 0.000453 2105.04150 2233.93286
20.9700 20.9744 2212.1 0.000452 2105.35034 2236.68823
20.9800 20.9844 2224.5 0.000450 2105.66333 2239.87988
20.9900 20.9944 2202.8 0.000454 2105.97949 2243.56250
21.0000 21.0044 2213.5 0.000452 2106.29932 2247.80420
21.0100 21.0144 2232.3 0.000448 2106.62280 2252.68481
21.0200 21.0244 2232.4 0.000448 2106.95020 2258.29980
21.0300 21.0344 2220.6 0.000450 2107.28052 2264.75122
21.0400 21.0444 2228.3 0.000449 2107.61377 2272.15063
21.0500 21.0544 2255.3 0.000443 2107.95215 2280.60913
21.0600 21.0644 2269.6 0.000441 2108.29321 2290.22803
21.0700 21.0744 2250.7 0.000444 2108.63843 2301.09595
21.0800 21.0844 2273.1 0.000440 2108.98608 2313.26587
21.0900 21.0944 2302.2 0.000434 2109.33667 2326.75171
21.1000 21.1044 2321.9 0.000431 2109.69165 2341.50220
21.1100 21.1144 2318.6 0.000431 2110.04907 2357.37549
21.1200 21.1244 2353.7 0.000425 2110.40991 2374.10352
21.1300 21.1344 2384.7 0.000419 2110.77417 2391.25391
21.1400 21.1444 2405.2 0.000416 2111.14136 2408.19604
21.1500 21.1544 2403.0 0.000416 2111.51196 2424.11841
21.1600 21.1644 2430.0 0.000412 2111.88525 2438.12915
21.1700 21.1744 2455.6 0.000407 2112.26123 2449.46826
21.1800 21.1844 2471.2 0.000405 2112.64087 2457.75708
21.1900 21.1944 2448.6 0.000408 2113.02295 2463.16211
21.2000 21.2044 2467.7 0.000405 2113.40845 2466.35449
21.2100 21.2144 2478.7 0.000403 2113.79565 2468.31299
21.2200 21.2244 2477.1 0.000404 2114.18701 2470.07031
21.2300 21.2344 2462.0 0.000406 2114.58105 2472.55273
21.2400 21.2444 2480.1 0.000403 2114.97632 2476.51685
21.2500 21.2544 2491.4 0.000401 2115.37573 2482.56519
21.2600 21.2644 2507.8 0.000399 2115.77686 2491.19922
21.2700 21.2744 2492.0 0.000401 2116.18140 2502.86646
21.2800 21.2844 2522.5 0.000396 2116.58765 2518.01147
21.2900 21.2944 2555.4 0.000391 2116.99707 2537.11108
21.3000 21.3044 2587.1 0.000387 2117.40869 2560.70752
21.3100 21.3144 2582.8 0.000387 2117.82227 2589.43726
21.3200 21.3244 2642.1 0.000378 2118.23804 2624.04346
21.3300 21.3344 2698.0 0.000371 2118.65698 2665.39063
21.3400 21.3444 2746.0 0.000364 2119.07764 2714.46826
21.3500 21.3544 2786.8 0.000359 2119.50098 2772.37744
21.3600 21.3644 2857.0 0.0003500 2119.92627 2840.31812
21.3700 21.3744 2960.7 0.0003378 2120.35327 2919.56836
21.3800 21.3844 3048.5 0.0003280 2120.78223 3011.44995
21.3900 21.3944 3133.8 0.0003191 2121.21362 3117.29028
21.4000 21.4044 3274.7 0.0003054 2121.64624 3238.36230
21.4100 21.4144 3429.9 0.0002916 2122.08154 3375.78467
21.4200 21.4244 3580.7 0.0002793 2122.51880 3530.35962
21.4300 21.4344 3718.4 0.0002689 2122.95825 3702.32593
21.4400 21.4444 3925.9 0.0002547 2123.39771 3891.05664
21.4500 21.4544 4127.3 0.0002423 2123.84009 4094.85059
21.4600 21.4644 4313.4 0.0002318 2124.28320 4311.06396
21.4700 21.4744 4465.5 0.0002239 2124.72900 4536.91455
21.4800 21.4844 4699.6 0.0002128 2125.17603 4770.95508
21.4900 21.4944 4950.2 0.0002020 2125.62476 5014.62256
21.5000 21.5044 5165.3 0.0001936 2126.07422 5272.81104
21.5100 21.5144 5376.0 0.0001860 2126.52539 5552.79736
21.5200 21.5244 5711.8 0.0001751 2126.97803 5861.90820
21.5300 21.5344 6044.4 0.0001654 2127.43164 6204.87451
21.5400 21.5444 6396.6 0.0001563 2127.88623 6581.58008
21.5500 21.5544 6667.7 0.0001500 2128.34253 6985.22266
21.5600 21.5644 7056.4 0.0001417 2128.79956 7400.68164
21.5700 21.5744 7428.6 0.0001346 2129.25781 7803.25195
21.5800 21.5844 7703.8 0.0001298 2129.71753 8158.76807
21.5900 21.5944 7759.3 0.0001289 2130.17798 8426.87793
21.6000 21.6044 7925.5 0.0001262 2130.63843 8568.75977
21.6100 21.6144 7953.0 0.0001257 2131.10059 8557.94824
21.6200 21.6244 7791.1 0.0001284 2131.56323 8389.34570
21.6300 21.6344 7492.0 0.0001335 2132.02686 8081.00830
21.6400 21.6444 7245.6 0.0001380 2132.49097 7667.44922
21.6500 21.6544 6924.1 0.0001444 2132.95508 7188.93750
21.6600 21.6644 6468.9 0.0001546 2133.41992 6682.47803
21.6700 21.6744 6026.8 0.0001659 2133.88599 6177.18994
21.6800 21.6844 5662.9 0.0001766 2134.35205 5693.53564
21.6900 21.6944 5282.6 0.0001893 2134.81812 5247.64600
21.7000 21.7044 4931.2 0.0002028 2135.28516 4837.54785
21.7100 21.7144 4538.9 0.0002203 2135.75122 4475.96924
21.7200 21.7244 4298.8 0.0002326 2136.21924 4160.86377
21.7300 21.7344 4047.9 0.0002470 2136.68604 3888.91724
21.7400 21.7444 3819.1 0.0002618 2137.15332 3657.85449
21.7500 21.7544 3606.7 0.0002773 2137.62109 3463.72778
21.7600 21.7644 3469.5 0.0002882 2138.08813 3302.15356
21.7700 21.7744 3331.1 0.0003002 2138.55566 3168.64990
21.7800 21.7844 3194.6 0.0003130 2139.02222 3058.91040
21.7900 21.7944 3098.8 0.0003227 2139.48901 2968.99512
21.8000 21.8044 3005.5 0.0003327 2139.95508 2895.44312
21.8100 21.8144 2960.8 0.0003377 2140.42114 2835.33325
21.8200 21.8244 2867.3 0.0003488 2140.88721 2786.28735
21.8300 21.8344 2820.8 0.000355 2141.35181 2746.43677
21.8400 21.8444 2780.2 0.000360 2141.81616 2714.37549
21.8500 21.8544 2757.0 0.000363 2142.28101 2689.08813
21.8600 21.8644 2707.7 0.000369 2142.74438 2669.87866
21.8700 21.8744 2686.5 0.000372 2143.20703 2656.31006
21.8800 21.8844 2696.3 0.000371 2143.66870 2648.12549
21.8900 21.8944 2675.4 0.000374 2144.12891 2645.19775
21.9000 21.9044 2652.4 0.000377 2144.58960 2647.45996
21.9100 21.9144 2662.6 0.000376 2145.04907 2654.85913
21.9200 21.9244 2683.3 0.000373 2145.50708 2667.28833
21.9300 21.9344 2698.5 0.000371 2145.96387 2684.53418
21.9400 21.9444 2682.1 0.000373 2146.42041 2706.19922
21.9500 21.9544 2726.7 0.000367 2146.87427 2731.60962
21.9600 21.9644 2759.0 0.000362 2147.32764 2759.69775
21.9700 21.9744 2787.8 0.000359 2147.78052 2788.86768
21.9800 21.9844 2781.5 0.000360 2148.23047 2816.89917
21.9900 21.9944 2822.7 0.000354 2148.68042 2840.96997
22.0000 22.0044 2848.5 0.000351 2149.12769 2857.96265
22.0100 22.0144 2835.7 0.000353 2149.57349 2865.07617
22.0200 22.0244 2808.9 0.000356 2150.01855 2860.62207
22.0300 22.0344 2809.0 0.000356 2150.46069 2844.59155
22.0400 22.0444 2810.1 0.000356 2150.90137 2818.64771
22.0500 22.0544 2767.7 0.000361 2151.34058 2785.54810
22.0600 22.0644 2703.4 0.000370 2151.77856 2748.35620
22.0700 22.0744 2692.9 0.000371 2152.21362 2709.82324
22.0800 22.0844 2666.9 0.000375 2152.64673 2672.10059
22.0900 22.0944 2637.4 0.000379 2153.07788 2638.16602
22.1000 22.1044 2578.8 0.000388 2153.50659 2606.11743
22.1100 22.1144 2580.4 0.000388 2153.93408 2578.00171
22.1200 22.1244 2570.1 0.000389 2154.35889 2554.68359
22.1300 22.1344 2548.9 0.000392 2154.78052 2535.23438
22.1400 22.1444 2503.4 0.000399 2155.20044 2520.21509
22.1500 22.1544 2515.2 0.000398 2155.61841 2509.59448
22.1600 22.1644 2532.3 0.000395 2156.03296 2503.32690
22.1700 22.1744 2513.7 0.000398 2156.44507 2501.39746
22.1800 22.1844 2494.8 0.000401 2156.85547 2503.85864
22.1900 22.1944 2518.1 0.000397 2157.26270 2510.85596
22.2000 22.2044 2539.9 0.000394 2157.66626 2522.65259
22.2100 22.2144 2545.6 0.000393 2158.06763 2539.64185
22.2200 22.2244 2533.2 0.000395 2158.46655 2562.34961
22.2300 22.2344 2586.4 0.000387 2158.86206 2591.42773
22.2400 22.2444 2604.6 0.000384 2159.25488 2627.61865
22.2500 22.2544 2625.8 0.000381 2159.64478 2671.51611
22.2600 22.2644 2652.3 0.000377 2160.03125 2724.30884
22.2700 22.2744 2716.5 0.000368 2160.41504 2786.46558
22.2800 22.2844 2782.7 0.000359 2160.79517 2858.43359
22.2900 22.2944 2826.1 0.000354 2161.17188 2940.30786
22.3000 22.3044 2921.6 0.0003423 2161.54517 3031.71118
22.3100 22.3144 3021.7 0.0003309 2161.91528 3131.70142
22.3200 22.3244 3157.6 0.0003167 2162.28198 3238.75830
22.3300 22.3344 3232.4 0.0003094 2162.64526 3350.77197
22.3400 22.3444 3376.3 0.0002962 2163.00488 3464.94531
22.3500 22.3544 3516.8 0.0002843 2163.36035 3577.48608
22.3600 22.3644 3601.2 0.0002777 2163.71265 3684.99683
22.3700 22.3744 3653.3 0.0002737 2164.06104 3776.78271
22.3800 22.3844 3687.3 0.0002712 2164.40576 3847.21558
22.3900 22.3944 3714.3 0.0002692 2164.74658 3886.02295
22.4000 22.4044 3671.4 0.0002724 2165.08301 3888.06616
22.4100 22.4144 3551.0 0.0002816 2165.41650 3851.71777
22.4200 22.4244 3499.3 0.0002858 2165.74536 3780.54297
22.4300 22.4344 3417.6 0.0002926 2166.07007 3682.18091
22.4400 22.4444 3317.1 0.0003015 2166.39038 3566.06860
22.4500 22.4544 3167.7 0.0003157 2166.70752 3441.27686
22.4600 22.4644 3104.5 0.0003221 2167.01953 3315.22559
22.4700 22.4744 3014.5 0.0003317 2167.32666 3193.31104
22.4800 22.4844 2935.4 0.0003407 2167.63013 3079.09058
22.4900 22.4944 2835.8 0.000353 2167.92944 2974.67554
22.5000 22.5044 2771.0 0.000361 2168.22437 2881.10547
22.5100 22.5144 2758.9 0.000362 2168.51392 2798.66479
22.5200 22.5244 2674.8 0.000374 2168.80005 2727.09619
22.5300 22.5344 2615.6 0.000382 2169.08032 2665.77271
22.5400 22.5444 2596.6 0.000385 2169.35620 2613.82837
22.5500 22.5544 2565.6 0.000390 2169.62744 2570.26147
22.5600 22.5644 2535.7 0.000394 2169.89429 2534.01025
22.5700 22.5744 2483.4 0.000403 2170.15576 2503.35181
22.5800 22.5844 2487.0 0.000402 2170.41284 2478.66553
22.5900 22.5944 2472.9 0.000404 2170.66553 2458.37622
22.6000 22.6044 2452.3 0.000408 2170.91187 2441.70190
22.6100 22.6144 2407.0 0.000415 2171.15430 2427.98047
22.6200 22.6244 2424.2 0.000413 2171.39087 2416.66504
22.6300 22.6344 2416.3 0.000414 2171.62280 2407.31323
22.6400 22.6444 2387.4 0.000419 2171.84863 2399.57373
22.6500 22.6544 2396.0 0.000417 2172.07031 2393.17358
22.6600 22.6644 2386.5 0.000419 2172.28687 2387.89941
22.6700 22.6744 2399.7 0.000417 2172.49658 2383.59229
22.6800 22.6844 2375.6 0.000421 2172.70190 2380.12598
22.6900 22.6944 2374.4 0.000421 2172.90259 2377.40967
22.7000 22.7044 2401.8 0.000416 2173.09619 2375.37231
22.7100 22.7144 2398.5 0.000417 2173.28613 2373.96118
22.7200 22.7244 2388.5 0.000419 2173.46899 2373.13525
22.7300 22.7344 2397.6 0.000417 2173.64722 2372.86719
22.7400 22.7444 2418.3 0.000414 2173.81958 2374.77612
22.7500 22.7544 2433.2 0.000411 2173.98560 2375.58179
22.7600 22.7644 2410.4 0.000415 2174.14624 2377.08398
22.7700 22.7744 2440.7 0.000410 2174.30127 2378.92432
22.7800 22.7844 2457.2 0.000407 2174.45020 2381.28638
22.7900 22.7944 2485.2 0.000402 2174.59277 2384.18018
22.8000 22.8044 2451.3 0.000408 2174.73120 2387.62085
22.8100 22.8144 2487.8 0.000402 2174.86304 2391.63013
22.8200 22.8244 2529.6 0.000395 2174.98755 2396.73267
22.8300 22.8344 2517.5 0.000397 2175.10718 2401.97241
22.8400 22.8444 2512.0 0.000398 2175.22119 2407.88477
22.8500 22.8544 2528.8 0.000395 2175.32788 2416.62793
22.8600 22.8644 2562.9 0.000390 2175.42944 2424.05762
22.8700 22.8744 2565.1 0.000390 2175.52441 2432.34106
22.8800 22.8844 2546.6 0.000393 2175.61353 2441.56250
22.8900 22.8944 2587.3 0.000387 2175.69604 2451.82495
22.9000 22.9044 2605.2 0.000384 2175.77271 2463.25586
22.9100 22.9144 2631.8 0.000380 2175.84253 2476.01074
22.9200 22.9244 2596.8 0.000385 2175.90625 2490.28833
22.9300 22.9344 2656.3 0.000376 2175.96387 2506.33789
22.9400 22.9444 2697.2 0.000371 2176.01440 2524.47729
22.9500 22.9544 2693.0 0.000371 2176.05933 2545.11816
22.9600 22.9644 2728.2 0.000367 2176.09717 2568.78442
22.9700 22.9744 2768.7 0.000361 2176.12915 2596.14722
22.9800 22.9844 2842.6 0.000352 2176.15430 2628.05859
22.9900 22.9944 2847.3 0.000351 2176.17261 2665.57764
23.0000 23.0044 2911.6 0.0003435 2176.18481 2710.00952
23.0100 23.0144 2995.8 0.0003338 2176.19019 2762.92554
23.0200 23.0244 3047.8 0.0003281 2176.18848 2826.16992
23.0300 23.0344 3110.3 0.0003215 2176.18066 2901.84814
23.0400 23.0444 3198.1 0.0003127 2176.16602 2992.29443
23.0500 23.0544 3334.7 0.0002999 2176.14526 3099.99341
23.0600 23.0644 3459.9 0.0002890 2176.11694 3227.48267
23.0700 23.0744 3557.2 0.0002811 2176.08252 3377.20044
23.0800 23.0844 3764.4 0.0002656 2176.04077 3551.30420
23.0900 23.0944 4002.4 0.0002498 2175.99268 3751.44507
23.1000 23.1044 4260.2 0.0002347 2175.93701 3978.49268
23.1100 23.1144 4491.9 0.0002226 2175.87524 4232.17822
23.1200 23.1244 4859.2 0.0002058 2175.80615 4510.63184
23.1300 23.1344 5256.9 0.0001902 2175.73047 4809.75439
23.1400 23.1444 5623.4 0.0001778 2175.64771 5122.38281
23.1500 23.1544 5888.3 0.0001698 2175.55811 5437.35596
23.1600 23.1644 6203.3 0.0001612 2175.46167 5738.71436
23.1700 23.1744 6436.6 0.0001554 2175.35791 6005.76611
23.1800 23.1844 6508.1 0.0001537 2175.24658 6214.84033
23.1900 23.1944 6403.1 0.0001562 2175.12988 6343.35693
23.2000 23.2044 6354.2 0.0001574 2175.00464 6375.48779
23.2100 23.2144 6163.0 0.0001623 2174.87402 6307.08789
23.2200 23.2244 5853.1 0.0001709 2174.73486 6147.08057
23.2300 23.2344 5529.9 0.0001808 2174.58911 5914.50830
23.2400 23.2444 5271.2 0.0001897 2174.43652 5632.97559
23.2500 23.2544 4961.4 0.0002016 2174.27686 5325.39111
23.2600 23.2644 4598.5 0.0002175 2174.11011 5010.77002
23.2700 23.2744 4354.0 0.0002297 2173.93604 4703.21680
23.2800 23.2844 4120.3 0.0002427 2173.75513 4412.29102
23.2900 23.2944 3928.2 0.0002546 2173.56665 4143.89844
23.3000 23.3044 3691.3 0.0002709 2173.37134 3901.22046
23.3100 23.3144 3545.1 0.0002821 2173.16895 3685.46631
23.3200 23.3244 3404.0 0.0002938 2172.95923 3496.43311
23.3300 23.3344 3283.3 0.0003046 2172.74268 3332.92505
23.3400 23.3444 3133.2 0.0003192 2172.51929 3193.07593
23.3500 23.3544 3052.0 0.0003277 2172.28833 3074.59985
23.3600 23.3644 2999.7 0.0003334 2172.04956 2975.00757
23.3700 23.3744 2914.3 0.0003431 2171.80469 2891.77124
23.3800 23.3844 2812.4 0.000356 2171.55249 2822.45581
23.3900 23.3944 2794.6 0.000358 2171.29248 2764.81006
23.4000 23.4044 2744.9 0.000364 2171.02515 2716.82617
23.4100 23.4144 2722.3 0.000367 2170.75146 2676.76880
23.4200 23.4244 2632.7 0.000380 2170.47070 2643.17603
23.4300 23.4344 2630.7 0.000380 2170.18237 2614.84155
23.4400 23.4444 2626.7 0.000381 2169.88721 2590.79492
23.4500 23.4544 2570.8 0.000389 2169.58472 2570.15698
23.4600 23.4644 2556.2 0.000391 2169.27563 2552.53320
23.4700 23.4744 2551.1 0.000392 2168.95850 2537.43774
23.4800 23.4844 2544.3 0.000393 2168.63452 2524.32959
23.4900 23.4944 2506.0 0.000399 2168.30396 2513.01318
23.5000 23.5044 2502.0 0.000400 2167.96509 2503.27295
23.5100 23.5144 2504.5 0.000399 2167.61987 2494.93872
23.5200 23.5244 2496.8 0.000401 2167.26758 2487.88086
23.5300 23.5344 2465.1 0.000406 2166.90869 2483.29639
23.5400 23.5444 2470.2 0.000405 2166.54175 2478.51123
23.5500 23.5544 2470.8 0.000405 2166.16846 2474.75415
23.5600 23.5644 2476.7 0.000404 2165.78809 2471.97949
23.5700 23.5744 2435.5 0.000411 2165.39966 2470.15283
23.5800 23.5844 2449.7 0.000408 2165.00562 2469.25146
23.5900 23.5944 2459.8 0.000407 2164.60327 2469.26367
23.6000 23.6044 2469.3 0.000405 2164.19507 2470.19067
23.6100 23.6144 2431.3 0.000411 2163.77954 2472.03833
23.6200 23.6244 2458.8 0.000407 2163.35693 2474.82983
23.6300 23.6344 2477.7 0.000404 2162.92749 2478.59619
23.6400 23.6444 2467.0 0.000405 2162.49072 2483.38306
23.6500 23.6544 2459.9 0.000407 2162.04761 2489.25073
23.6600 23.6644 2476.1 0.000404 2161.59717 2496.27661
23.6700 23.6744 2503.8 0.000399 2161.13989 2504.55981
23.6800 23.6844 2495.4 0.000401 2160.67603 2514.23340
23.6900 23.6944 2514.1 0.000398 2160.20581 2525.45630
23.7000 23.7044 2547.5 0.000393 2159.72705 2538.44141
23.7100 23.7144 2565.0 0.000390 2159.24316 2553.45557
23.7200 23.7244 2566.4 0.000390 2158.75195 2570.84424
23.7300 23.7344 2596.7 0.000385 2158.25439 2591.04785
23.7400 23.7444 2638.3 0.000379 2157.74927 2614.62427
23.7500 23.7544 2679.4 0.000373 2157.23804 2642.27905
23.7600 23.7644 2686.7 0.000372 2156.72046 2674.01782
23.7700 23.7744 2746.5 0.000364 2156.19580 2712.64868
23.7800 23.7844 2810.5 0.000356 2155.66455 2758.58398
23.7900 23.7944 2872.8 0.0003481 2155.12720 2813.33374
23.8000 23.8044 2909.6 0.0003437 2154.58276 2878.63208
23.8100 23.8144 2995.6 0.0003338 2154.03149 2956.40991
23.8200 23.8244 3121.9 0.0003203 2153.47510 3048.75293
23.8300 23.8344 3220.0 0.0003106 2152.91187 3157.82251
23.8400 23.8444 3313.1 0.0003018 2152.34155 3285.76221
23.8500 23.8544 3496.0 0.0002860 2151.76538 3434.55127
23.8600 23.8644 3690.3 0.0002710 2151.18262 3605.84790
23.8700 23.8744 3920.3 0.0002551 2150.59326 3800.78125
23.8800 23.8844 4115.4 0.0002430 2149.99878 4019.70435
23.8900 23.8944 4452.8 0.0002246 2149.39673 4256.88525
23.9000 23.9044 4810.1 0.0002079 2148.78906 4520.27783
23.9100 23.9144 5082.3 0.0001968 2148.17554 4799.92480
23.9200 23.9244 5442.6 0.0001837 2147.55542 5088.78027
23.9300 23.9344 5770.1 0.0001733 2146.93018 5375.97510
23.9400 23.9444 6076.2 0.0001646 2146.29736 5646.71973
23.9500 23.9544 6213.1 0.0001610 2145.65942 5882.90039
23.9600 23.9644 6385.8 0.0001566 2145.01636 6065.16113
23.9700 23.9744 6460.8 0.0001548 2144.36646 6176.44922
23.9800 23.9844 6440.9 0.0001553 2143.71021 6205.94775
23.9900 23.9944 6253.4 0.0001599 2143.04907 6151.69971
24.0000 24.0044 6100.9 0.0001639 2142.38184 6020.68066
24.0100 24.0144 5913.1 0.0001691 2141.70923 5826.58057
24.0200 24.0244 5632.2 0.0001775 2141.03052 5586.57275
24.0300 24.0344 5266.9 0.0001899 2140.34619 5318.31836
24.0400 24.0444 5018.9 0.0001992 2139.65674 5037.78613
24.0500 24.0544 4740.8 0.0002109 2138.96143 4758.06787
24.0600 24.0644 4478.5 0.0002233 2138.26099 4488.98145
24.0700 24.0744 4150.1 0.0002410 2137.55396 4237.27295
24.0800 24.0844 3970.3 0.0002519 2136.84277 4007.11572
24.0900 24.0944 3791.0 0.0002638 2136.12598 3800.67065
24.1000 24.1044 3579.1 0.0002794 2135.40356 3618.61182
24.1100 24.1144 3455.3 0.0002894 2134.67651 3460.55713
24.1200 24.1244 3342.0 0.0002992 2133.94360 3325.40039
24.1300 24.1344 3263.3 0.0003064 2133.20605 3211.58521
24.1400 24.1444 3137.2 0.0003188 2132.46387 3117.32129
24.1500 24.1544 3079.4 0.0003247 2131.71533 3040.75146
24.1600 24.1644 3048.8 0.0003280 2130.96289 2980.09082
24.1700 24.1744 3013.5 0.0003318 2130.20508 2933.72681
24.1800 24.1844 2937.0 0.0003405 2129.44214 2900.30005
24.1900 24.1944 2936.4 0.0003406 2128.67505 2878.72778
24.2000 24.2044 2944.3 0.0003396 2127.90308 2868.23438
24.2100 24.2144 2950.9 0.0003389 2127.12695 2868.32837
24.2200 24.2244 2916.0 0.0003429 2126.34570 2878.77881
24.2300 24.2344 2973.6 0.0003363 2125.56006 2899.55713
24.2400 24.2444 3008.8 0.0003324 2124.76953 2930.77881
24.2500 24.2544 3038.5 0.0003291 2123.97510 2972.62134
24.2600 24.2644 3068.2 0.0003259 2123.17627 3026.14478
24.2700 24.2744 3163.6 0.0003161 2122.37305 3089.58765
24.2800 24.2844 3254.4 0.0003073 2121.56519 3163.64404
24.2900 24.2944 3295.8 0.0003034 2120.75317 3247.73706
24.3000 24.3044 3409.5 0.0002933 2119.93750 3340.32593
24.3100 24.3144 3531.8 0.0002831 2119.11768 3440.27588
24.3200 24.3244 3638.1 0.0002749 2118.29419 3544.17017
24.3300 24.3344 3704.4 0.0002700 2117.46631 3647.64526
24.3400 24.3444 3812.2 0.0002623 2116.63501 3744.85303
24.3500 24.3544 3909.5 0.0002558 2115.79907 3828.71802
24.3600 24.3644 3969.9 0.0002519 2114.95996 3891.79077
24.3700 24.3744 3938.7 0.0002539 2114.11670 3927.72852
24.3800 24.3844 3978.2 0.0002514 2113.27100 3932.99146
24.3900 24.3944 3976.6 0.0002515 2112.42090 3907.98218
24.4000 24.4044 3933.0 0.0002543 2111.56738 3856.99609
24.4100 24.4144 3807.8 0.0002626 2110.71045 3787.02246
24.4200 24.4244 3779.9 0.0002646 2109.85034 3706.06592
24.4300 24.4344 3712.9 0.0002693 2108.98682 3621.72852
24.4400 24.4444 3602.8 0.0002776 2108.12085 3540.43774
24.4500 24.4544 3538.7 0.0002826 2107.25098 3467.26001
24.4600 24.4644 3488.2 0.0002867 2106.37891 3406.05835
24.4700 24.4744 3440.1 0.0002907 2105.50293 3359.75928
24.4800 24.4844 3354.3 0.0002981 2104.62451 3330.61401
24.4900 24.4944 3346.4 0.0002988 2103.74390 3320.39429
24.5000 24.5044 3351.0 0.0002984 2102.85864 3330.51636
24.5100 24.5144 3369.5 0.0002968 2101.97241 3362.09863
24.5200 24.5244 3346.1 0.0002989 2101.08325 3415.98071
24.5300 24.5344 3423.2 0.0002921 2100.19141 3492.69897
24.5400 24.5444 3513.0 0.0002847 2099.29761 3592.42065
24.5500 24.5544 3633.6 0.0002752 2098.40161 3714.84131
24.5600 24.5644 3722.6 0.0002686 2097.50244 3859.01489
24.5700 24.5744 3927.7 0.0002546 2096.60059 4023.10815
24.5800 24.5844 4155.8 0.0002406 2095.69775 4204.05566
24.5900 24.5944 4364.8 0.0002291 2094.79248 4397.40918
24.6000 24.6044 4565.2 0.0002191 2093.88501 4595.63135
24.6100 24.6144 4815.5 0.0002077 2092.97632 4789.47070
24.6200 24.6244 5042.0 0.0001983 2092.06494 4967.42236
24.6300 24.6344 5153.6 0.0001940 2091.15234 5116.22559
24.6400 24.6444 5291.8 0.0001890 2090.23755 5223.44971
24.6500 24.6544 5378.0 0.0001859 2089.32129 5280.04297
24.6600 24.6644 5385.1 0.0001857 2088.40430 5282.63281
24.6700 24.6744 5274.1 0.0001896 2087.48486 5234.36719
24.6800 24.6844 5210.9 0.0001919 2086.56470 5142.48291
24.6900 24.6944 5130.7 0.0001949 2085.64233 5021.11377
24.7000 24.7044 5023.3 0.0001991 2084.71924 4880.53662
24.7100 24.7144 4820.1 0.0002075 2083.79565 4730.36426
24.7200 24.7244 4745.2 0.0002107 2082.86987 4577.16162
24.7300 24.7344 4637.7 0.0002156 2081.94434 4424.36963
24.7400 24.7444 4521.2 0.0002212 2081.01709 4273.00879
24.7500 24.7544 4326.9 0.0002311 2080.08936 4122.78906
24.7600 24.7644 4244.1 0.0002356 2079.16089 3973.32397
24.7700 24.7744 4116.5 0.0002429 2078.23169 3825.01636
24.7800 24.7844 3922.1 0.0002550 2077.30151 3679.33130
24.7900 24.7944 3769.7 0.0002653 2076.37158 3538.47803
24.8000 24.8044 3631.8 0.0002753 2075.44043 3404.80737
24.8100 24.8144 3492.1 0.0002864 2074.50977 3280.27930
24.8200 24.8244 3296.1 0.0003034 2073.57861 3166.17944
24.8300 24.8344 3196.4 0.0003129 2072.64697 3063.17041
24.8400 24.8444 3089.2 0.0003237 2071.71533 2971.11475
24.8500 24.8544 2982.8 0.0003353 2070.78418 2889.68848
24.8600 24.8644 2847.4 0.000351 2069.85254 2818.20874
24.8700 24.8744 2800.4 0.000357 2068.92090 2755.88867
24.8800 24.8844 2741.4 0.000365 2067.98999 2701.86621
24.8900 24.8944 2686.7 0.000372 2067.05884 2655.28589
24.9000 24.9044 2595.6 0.000385 2066.12866 2615.31250
24.9100 24.9144 2592.7 0.000386 2065.19873 2581.16284
24.9200 24.9244 2560.7 0.000391 2064.26904 2552.11670
24.9300 24.9344 2501.6 0.000400 2063.34058 2527.51831
24.9400 24.9444 2496.7 0.000401 2062.41260 2506.78418
24.9500 24.9544 2483.1 0.000403 2061.48511 2489.40356
24.9600 24.9644 2472.4 0.000404 2060.55957 2474.93823
24.9700 24.9744 2433.9 0.000411 2059.63354 2463.01514
24.9800 24.9844 2427.7 0.000412 2058.70947 2453.32642
24.9900 24.9944 2432.0 0.000411 2057.78638 2445.62280
25.0000 25.0044 2432.6 0.000411 2056.86426 2439.70435
25.0100 25.0144 2388.2 0.000419 2055.94312 2435.41846
25.0200 25.0244 2406.5 0.000416 2055.02441 2432.65430
25.0300 25.0344 2415.5 0.000414 2054.10645 2431.33496
25.0400 25.0444 2413.7 0.000414 2053.19019 2431.41431
25.0500 25.0544 2381.8 0.000420 2052.27588 2432.87646
25.0600 25.0644 2418.0 0.000414 2051.36279 2435.73071
25.0700 25.0744 2436.5 0.000410 2050.45190 2440.01538
25.0800 25.0844 2414.7 0.000414 2049.54248 2445.79980
25.0900 25.0944 2428.0 0.000412 2048.63477 2453.17798
25.1000 25.1044 2454.5 0.000407 2047.72913 2462.29126
25.1100 25.1144 2473.9 0.000404 2046.82605 2473.32178
25.1200 25.1244 2448.3 0.000408 2045.92554 2486.50391
25.1300 25.1344 2477.2 0.000404 2045.02600 2502.14160
25.1400 25.1444 2513.2 0.000398 2044.13000 2520.61499
25.1500 25.1544 2541.6 0.000393 2043.23621 2542.40063
25.1600 25.1644 2533.4 0.000395 2042.34509 2568.08032
25.1700 25.1744 2587.6 0.000386 2041.45544 2598.36157
25.1800 25.1844 2625.7 0.000381 2040.56897 2634.08325
25.1900 25.1944 2648.1 0.000378 2039.68579 2676.22974
25.2000 25.2044 2685.9 0.000372 2038.80530 2725.92944
25.2100 25.2144 2750.1 0.000364 2037.92749 2784.44849
25.2200 25.2244 2813.6 0.000355 2037.05237 2853.18335
25.2300 25.2344 2854.7 0.0003503 2036.18042 2933.62451
25.2400 25.2444 2946.5 0.0003394 2035.31152 3027.32861
25.2500 25.2544 3045.9 0.0003283 2034.44653 3135.86353
25.2600 25.2644 3162.4 0.0003162 2033.58423 3261.93750
25.2700 25.2744 3231.3 0.0003095 2032.72546 3404.53955
25.2800 25.2844 3402.3 0.0002939 2031.86987 3565.96167
25.2900 25.2944 3564.8 0.0002805 2031.01843 3746.87939
25.3000 25.3044 3761.3 0.0002659 2030.17029 3947.30591
25.3100 25.3144 3897.0 0.0002566 2029.32568 4166.26953
25.3200 25.3244 4143.2 0.0002414 2028.48486 4401.42188
25.3300 25.3344 4378.2 0.0002284 2027.64783 4648.60400
25.3400 25.3444 4558.4 0.0002194 2026.81433 4901.55908
25.3500 25.3544 4763.6 0.0002099 2025.98511 5152.01563
25.3600 25.3644 4971.8 0.0002011 2025.16003 5390.46289
25.3700 25.3744 5138.5 0.0001946 2024.33923 5607.71191
25.3800 25.3844 5218.4 0.0001916 2023.52197 5796.89453
25.3900 25.3944 5359.9 0.0001866 2022.70972 5955.04834
25.4000 25.4044 5458.0 0.0001832 2021.90186 6083.36816
25.4100 25.4144 5536.2 0.0001806 2021.09778 6185.85791
25.4200 25.4244 5511.8 0.0001814 2020.29846 6266.92334
25.4300 25.4344 5570.5 0.0001795 2019.50293 6328.96582
25.4400 25.4444 5603.6 0.0001785 2018.71301 6370.84766
25.4500 25.4544 5570.8 0.0001795 2017.92725 6387.61133
25.4600 25.4644 5481.3 0.0001824 2017.14648 6371.50879
25.4700 25.4744 5463.9 0.0001830 2016.37109 6314.05078
25.4800 25.4844 5390.6 0.0001855 2015.59961 6204.81055
25.4900 25.4944 5230.1 0.0001912 2014.83350 6049.14990
25.5000 25.5044 5103.6 0.0001959 2014.07300 5846.64111
25.5100 25.5144 4961.7 0.0002015 2013.31616 5605.99707
25.5200 25.5244 4800.8 0.0002083 2012.56519 5339.31689
25.5300 25.5344 4553.0 0.0002196 2011.81946 5059.55811
25.5400 25.5444 4398.5 0.0002273 2011.07947 4778.41455
25.5500 25.5544 4219.1 0.0002370 2010.34424 4505.15479
25.5600 25.5644 4033.4 0.0002479 2009.61511 4246.35156
25.5700 25.5744 3816.0 0.0002621 2008.89063 4006.65308
25.5800 25.5844 3682.2 0.0002716 2008.17249 3787.33838
25.5900 25.5944 3530.9 0.0002832 2007.45874 3589.73193
25.6000 25.6044 3379.1 0.0002959 2006.75208 3413.67896
25.6100 25.6144 3255.6 0.0003072 2006.04968 3258.34058
25.6200 25.6244 3158.1 0.0003166 2005.35413 3122.42505
25.6300 25.6344 3052.8 0.0003276 2004.66467 3004.35864
25.6400 25.6444 2923.2 0.0003421 2003.98035 2902.40869
25.6500 25.6544 2863.0 0.0003493 2003.30200 2814.78833
25.6600 25.6644 2804.0 0.000357 2002.62976 2739.73389
25.6700 25.6744 2742.5 0.000365 2001.96448 2675.55835
25.6800 25.6844 2654.2 0.000377 2001.30396 2620.70337
25.6900 25.6944 2619.5 0.000382 2000.65137 2573.76367
25.7000 25.7044 2583.6 0.000387 2000.00354 2533.49536
25.7100 25.7144 2565.3 0.000390 1999.36230 2498.82959
25.7200 25.7244 2484.2 0.000403 1998.72803 2468.85840
25.7300 25.7344 2480.5 0.000403 1998.09924 2442.82593
25.7400 25.7444 2449.4 0.000408 1997.47791 2420.11230
25.7500 25.7544 2403.3 0.000416 1996.86243 2400.21387
25.7600 25.7644 2400.1 0.000417 1996.25366 2382.72876
25.7700 25.7744 2384.4 0.000419 1995.65173 2367.33765
25.7800 25.7844 2376.3 0.000421 1995.05566 2353.78589
25.7900 25.7944 2333.7 0.000428 1994.46741 2341.87769
25.8000 25.8044 2328.5 0.000429 1993.88574 2331.45679
25.8100 25.8144 2337.8 0.000428 1993.31055 2322.40894
25.8200 25.8244 2319.8 0.000431 1992.74280 2314.64551
25.8300 25.8344 2306.7 0.000434 1992.18042 2308.10669
25.8400 25.8444 2313.9 0.000432 1991.62659 2302.75366
25.8500 25.8544 2309.2 0.000433 1991.07898 2298.57202
25.8600 25.8644 2299.9 0.000435 1990.53833 2295.56982
25.8700 25.8744 2299.2 0.000435 1990.00549 2293.77881
25.8800 25.8844 2304.5 0.000434 1989.47949 2293.25952
25.8900 25.8944 2316.6 0.000432 1988.96045 2294.10303
25.9000 25.9044 2284.8 0.000438 1988.44849 2296.43481
25.9100 25.9144 2304.4 0.000434 1987.94446 2300.42603
25.9200 25.9244 2313.1 0.000432 1987.44739 2306.29370
25.9300 25.9344 2334.2 0.000428 1986.95740 2314.30981
25.9400 25.9444 2308.3 0.000433 1986.47510 2324.80884
25.9500 25.9544 2343.7 0.000427 1985.99976 2338.18921
25.9600 25.9644 2359.9 0.000424 1985.53235 2354.91650
25.9700 25.9744 2359.0 0.000424 1985.07227 2375.52539
25.9800 25.9844 2384.6 0.000419 1984.61963 2400.60522
25.9900 25.9944 2422.5 0.000413 1984.17517 2430.79956
26.0000 26.0044 2441.6 0.000410 1983.73694 2466.77832
26.0100 26.0144 2457.3 0.000407 1983.30725 2509.21191
26.0200 26.0244 2507.7 0.000399 1982.88525 2558.73535
26.0300 26.0344 2549.7 0.000392 1982.47083 2615.90234
26.0400 26.0444 2611.7 0.000383 1982.06445 2681.12134
26.0500 26.0544 2628.1 0.000380 1981.66516 2754.58594
26.0600 26.0644 2723.6 0.000367 1981.27380 2836.19189
26.0700 26.0744 2805.6 0.000356 1980.89001 2925.44678
26.0800 26.0844 2880.9 0.0003471 1980.51465 3021.36084
26.0900 26.0944 2976.8 0.0003359 1980.14734 3122.35669
26.1000 26.1044 3093.7 0.0003232 1979.78723 3226.13696
26.1100 26.1144 3185.5 0.0003139 1979.43518 3329.56030
26.1200 26.1244 3251.0 0.0003076 1979.09082 3428.51343
26.1300 26.1344 3323.9 0.0003009 1978.75464 3517.77222
26.1400 26.1444 3392.1 0.0002948 1978.42639 3591.32349
26.1500 26.1544 3412.7 0.0002930 1978.10608 3642.92017
26.1600 26.1644 3366.2 0.0002971 1977.79468 3667.22485
26.1700 26.1744 3368.8 0.0002968 1977.48999 3661.11450
26.1800 26.1844 3320.1 0.0003012 1977.19348 3624.95996
26.1900 26.1944 3229.1 0.0003097 1976.90552 3561.43750
26.2000 26.2044 3156.2 0.0003168 1976.62549 3476.52759
26.2100 26.2144 3072.6 0.0003255 1976.35327 3376.98120
26.2200 26.2244 2991.4 0.0003343 1976.08972 3269.93579
26.2300 26.2344 2872.7 0.0003481 1975.83411 3159.84229
26.2400 26.2444 2814.2 0.000355 1975.58643 3051.57031
26.2500 26.2544 2744.8 0.000364 1975.34692 2945.06519
26.2600 26.2644 2682.4 0.000373 1975.11536 2848.57153
26.2700 26.2744 2588.5 0.000386 1974.89221 2760.14209
26.2800 26.2844 2559.7 0.000391 1974.67712 2680.37207
26.2900 26.2944 2517.4 0.000397 1974.47021 2608.60498
26.3000 26.3044 2457.7 0.000407 1974.27161 2546.32300
26.3100 26.3144 2436.5 0.000410 1974.08093 2492.34570
26.3200 26.3244 2416.7 0.000414 1973.89880 2446.17212
26.3300 26.3344 2389.2 0.000419 1973.72449 2407.21948
26.3400 26.3444 2340.6 0.000427 1973.55847 2374.87305
26.3500 26.3544 2349.6 0.000426 1973.40100 2348.52075
26.3600 26.3644 2327.4 0.000430 1973.25110 2327.58350
26.3700 26.3744 2330.9 0.000429 1973.10974 2311.53149
26.3800 26.3844 2316.6 0.000432 1972.97668 2299.90015
26.3900 26.3944 2305.1 0.000434 1972.85205 2292.28711
26.4000 26.4044 2305.4 0.000434 1972.73486 2288.35229
26.4100 26.4144 2294.7 0.000436 1972.62622 2288.33521
26.4200 26.4244 2314.9 0.000432 1972.52588 2290.93701
26.4300 26.4344 2327.6 0.000430 1972.43359 2296.45044
26.4400 26.4444 2356.4 0.000424 1972.34985 2304.63794
26.4500 26.4544 2347.0 0.000426 1972.27393 2315.23120
26.4600 26.4644 2395.2 0.000417 1972.20581 2327.89209
26.4700 26.4744 2429.1 0.000412 1972.14636 2342.17188
26.4800 26.4844 2476.3 0.000404 1972.09485 2358.61035
26.4900 26.4944 2485.5 0.000402 1972.05176 2374.11108
26.5000 26.5044 2555.4 0.000391 1972.01599 2388.78711
26.5100 26.5144 2577.6 0.000388 1971.98914 2401.43359
26.5200 26.5244 2587.5 0.000386 1971.97034 2410.79077
26.5300 26.5344 2619.6 0.000382 1971.95935 2415.75562
26.5400 26.5444 2628.2 0.000380 1971.95593 2415.62451
26.5500 26.5544 2623.1 0.000381 1971.96143 2410.28467
26.5600 26.5644 2581.5 0.000387 1971.97424 2400.23535
26.5700 26.5744 2574.9 0.000388 1971.99573 2386.46094
26.5800 26.5844 2543.4 0.000393 1972.02515 2370.18823
26.5900 26.5944 2499.7 0.000400 1972.06177 2352.66040
26.6000 26.6044 2469.9 0.000405 1972.10657 2334.97461
26.6100 26.6144 2441.5 0.000410 1972.16016 2318.01855
26.6200 26.6244 2413.0 0.000414 1972.22083 2302.46875
26.6300 26.6344 2375.2 0.000421 1972.28979 2288.82788
26.6400 26.6444 2362.2 0.000423 1972.36621 2277.47046
26.6500 26.6544 2355.7 0.000424 1972.45044 2268.68408
26.6600 26.6644 2345.7 0.000426 1972.54260 2261.25269
26.6700 26.6744 2311.0 0.000433 1972.64294 2258.31055
26.6800 26.6844 2331.6 0.000429 1972.75061 2258.60205
26.6900 26.6944 2338.6 0.000428 1972.86609 2262.34399
26.7000 26.7044 2330.5 0.000429 1972.98938 2269.77832
26.7100 26.7144 2347.6 0.000426 1973.12012 2281.16504
26.7200 26.7244 2366.2 0.000423 1973.25830 2296.78589
26.7300 26.7344 2389.2 0.000419 1973.40417 2316.93726
26.7400 26.7444 2392.1 0.000418 1973.55823 2341.91455
26.7500 26.7544 2438.1 0.000410 1973.71912 2371.99878
26.7600 26.7644 2472.8 0.000404 1973.88745 2407.42456
26.7700 26.7744 2520.0 0.000397 1974.06348 2448.35815
26.7800 26.7844 2530.2 0.000395 1974.24670 2494.84546
26.7900 26.7944 2624.9 0.000381 1974.43823 2546.77148
26.8000 26.8044 2669.5 0.000375 1974.63635 2603.78394
26.8100 26.8144 2720.3 0.000368 1974.84094 2665.20435
26.8200 26.8244 2809.0 0.000356 1975.05396 2729.90723
26.8300 26.8344 2888.7 0.0003462 1975.27405 2796.18091
26.8400 26.8444 2951.3 0.0003388 1975.50159 2861.60742
26.8500 26.8544 2994.2 0.0003340 1975.73523 2922.98926
26.8600 26.8644 3067.2 0.0003260 1975.97668 2976.46387
26.8700 26.8744 3107.9 0.0003218 1976.22485 3017.87769
26.8800 26.8844 3130.2 0.0003195 1976.48022 3043.44604
26.8900 26.8944 3128.6 0.0003196 1976.74292 3050.56689
26.9000 26.9044 3130.7 0.0003194 1977.01123 3038.48901
26.9100 26.9144 3109.0 0.0003217 1977.28772 3008.52002
26.9200 26.9244 3034.9 0.0003295 1977.57056 2963.67480
26.9300 26.9344 3000.4 0.0003333 1977.86060 2907.92505
26.9400 26.9444 2950.3 0.0003389 1978.15662 2845.41284
26.9500 26.9544 2886.1 0.0003465 1978.45959 2779.85376
26.9600 26.9644 2783.2 0.000359 1978.76880 2714.25122
26.9700 26.9744 2744.9 0.000364 1979.08508 2650.84253
26.9800 26.9844 2674.7 0.000374 1979.40796 2591.18433
26.9900 26.9944 2601.0 0.000384 1979.73694 2536.29492
27.0000 27.0044 2558.3 0.000391 1980.07312 2486.78198
27.0100 27.0144 2522.0 0.000397 1980.41418 2442.95654
27.0200 27.0244 2489.0 0.000402 1980.76282 2404.92041
27.0300 27.0344 2425.2 0.000412 1981.11658 2373.25928
27.0400 27.0444 2422.1 0.000413 1981.47778 2346.55298
27.0500 27.0544 2388.5 0.000419 1981.84424 2325.21240
27.0600 27.0644 2376.5 0.000421 1982.21704 2308.97412
27.0700 27.0744 2335.6 0.000428 1982.59570 2297.55493
27.0800 27.0844 2349.1 0.000426 1982.98022 2290.66357
27.0900 27.0944 2349.9 0.000426 1983.37061 2288.00903
27.1000 27.1044 2334.3 0.000428 1983.76660 2289.30249
27.1100 27.1144 2349.0 0.000426 1984.16895 2294.25098
27.1200 27.1244 2374.0 0.000421 1984.57666 2302.54614
27.1300 27.1344 2389.8 0.000418 1984.98975 2315.40234
27.1400 27.1444 2404.0 0.000416 1985.40869 2329.32690
27.1500 27.1544 2443.6 0.000409 1985.83337 2345.35522
27.1600 27.1644 2485.3 0.000402 1986.26270 2362.83984
27.1700 27.1744 2499.2 0.000400 1986.69812 2380.93579
27.1800 27.1844 2547.9 0.000392 1987.13904 2398.57397
27.1900 27.1944 2586.3 0.000387 1987.58423 2414.46704
27.2000 27.2044 2611.9 0.000383 1988.03540 2427.20703
27.2100 27.2144 2617.1 0.000382 1988.49133 2435.44312
27.2200 27.2244 2632.8 0.000380 1988.95203 2438.14111
27.2300 27.2344 2628.2 0.000380 1989.41797 2434.81909
27.2400 27.2444 2610.7 0.000383 1989.88892 2425.66968
27.2500 27.2544 2563.6 0.000390 1990.36499 2411.50757
27.2600 27.2644 2554.0 0.000392 1990.84534 2393.55396
27.2700 27.2744 2516.5 0.000397 1991.33008 2373.18384
27.2800 27.2844 2463.0 0.000406 1991.82031 2351.69165
27.2900 27.2944 2438.3 0.000410 1992.31384 2330.17090
27.3000 27.3044 2404.1 0.000416 1992.81274 2309.46094
27.3100 27.3144 2372.4 0.000422 1993.31567 2290.17065
27.3200 27.3244 2324.1 0.000430 1993.82300 2272.70703
27.3300 27.3344 2307.7 0.000433 1994.33459 2257.32251
27.3400 27.3444 2290.8 0.000437 1994.85022 2244.15137
27.3500 27.3544 2256.4 0.000443 1995.37000 2233.23706
27.3600 27.3644 2242.4 0.000446 1995.89404 2224.54907
27.3700 27.3744 2239.5 0.000447 1996.42151 2218.00171
27.3800 27.3844 2218.9 0.000451 1996.95337 2213.45557
27.3900 27.3944 2195.8 0.000455 1997.48865 2208.24146
27.4000 27.4044 2204.4 0.000454 1998.02783 2207.10498
27.4100 27.4144 2198.2 0.000455 1998.57080 2207.25293
27.4200 27.4244 2189.2 0.000457 1999.11682 2208.34277
27.4300 27.4344 2166.3 0.000462 1999.66626 2209.96753
27.4400 27.4444 2179.7 0.000459 2000.21948 2211.68994
27.4500 27.4544 2179.6 0.000459 2000.77588 2213.06787
27.4600 27.4644 2156.1 0.000464 2001.33557 2213.71558
27.4700 27.4744 2170.4 0.000461 2001.89771 2213.36426
27.4800 27.4844 2168.7 0.000461 2002.46387 2211.91284
27.4900 27.4944 2167.7 0.000461 2003.03271 2209.43652
27.5000 27.5044 2153.6 0.000464 2003.60400 2206.15088
27.5100 27.5144 2169.5 0.000461 2004.17896 2202.35986
27.5200 27.5244 2170.1 0.000461 2004.75623 2198.38696
27.5300 27.5344 2157.3 0.000464 2005.33569 2194.52783
27.5400 27.5444 2171.8 0.000460 2005.91858 2191.03223
27.5500 27.5544 2172.8 0.000460 2006.50354 2188.09692
27.5600 27.5644 2174.9 0.000460 2007.09021 2185.86768
27.5700 27.5744 2164.6 0.000462 2007.68042 2184.45752
27.5800 27.5844 2187.4 0.000457 2008.27246 2183.95239
27.5900 27.5944 2188.5 0.000457 2008.86633 2184.42798
27.6000 27.6044 2186.8 0.000457 2009.46265 2185.95264
27.6100 27.6144 2203.9 0.000454 2010.06042 2188.60010
27.6200 27.6244 2212.7 0.000452 2010.66101 2192.57422
27.6300 27.6344 2231.6 0.000448 2011.26233 2197.75073
27.6400 27.6444 2224.0 0.000450 2011.86584 2204.37646
27.6500 27.6544 2259.6 0.000443 2012.47144 2212.67798
27.6600 27.6644 2273.3 0.000440 2013.07837 2222.89819
27.6700 27.6744 2296.5 0.000435 2013.68665 2235.02368
27.6800 27.6844 2292.8 0.000436 2014.29651 2249.51050
27.6900 27.6944 2335.0 0.000428 2014.90723 2266.69775
27.7000 27.7044 2360.3 0.000424 2015.51929 2286.96997
27.7100 27.7144 2367.2 0.000422 2016.13293 2310.74658
27.7200 27.7244 2428.3 0.000412 2016.74756 2338.48022
27.7300 27.7344 2455.5 0.000407 2017.36304 2370.63110
27.7400 27.7444 2509.7 0.000398 2017.97900 2408.22168
27.7500 27.7544 2523.2 0.000396 2018.59607 2450.54639
27.7600 27.7644 2605.2 0.000384 2019.21423 2498.53247
27.7700 27.7744 2659.3 0.000376 2019.83215 2552.45044
27.7800 27.7844 2696.3 0.000371 2020.45178 2612.42993
27.7900 27.7944 2794.9 0.000358 2021.07104 2678.40674
27.8000 27.8044 2871.3 0.0003483 2021.69055 2750.04297
27.8100 27.8144 2939.7 0.0003402 2022.31079 2826.63525
27.8200 27.8244 2998.1 0.0003335 2022.93127 2906.98022
27.8300 27.8344 3106.7 0.0003219 2023.55200 2989.23975
27.8400 27.8444 3172.2 0.0003152 2024.17200 3070.78076
27.8500 27.8544 3220.5 0.0003105 2024.79297 3148.12012
27.8600 27.8644 3306.1 0.0003025 2025.41309 3216.98779
27.8700 27.8744 3335.4 0.0002998 2026.03271 3272.69604
27.8800 27.8844 3371.5 0.0002966 2026.65308 3310.78760
27.8900 27.8944 3342.0 0.0002992 2027.27185 3327.90869
27.9000 27.9044 3372.2 0.0002965 2027.89075 3322.59839
27.9100 27.9144 3337.0 0.0002997 2028.50916 3295.68213
27.9200 27.9244 3273.7 0.0003055 2029.12683 3250.05493
27.9300 27.9344 3242.3 0.0003084 2029.74365 3189.99316
27.9400 27.9444 3179.5 0.0003145 2030.35950 3120.27515
27.9500 27.9544 3119.4 0.0003206 2030.97522 3045.43262
27.9600 27.9644 3023.6 0.0003307 2031.58923 2969.31177
27.9700 27.9744 2986.8 0.0003348 2032.20203 2894.91455
27.9800 27.9844 2921.4 0.0003423 2032.81396 2824.43872
27.9900 27.9944 2863.2 0.0003493 2033.42505 2759.40308
28.0000 28.0044 2773.2 0.000361 2034.03442 2700.80420
28.0100 28.0144 2744.7 0.000364 2034.64246 2647.59766
28.0200 28.0244 2715.3 0.000368 2035.24878 2603.21729
28.0300 28.0344 2633.8 0.000380 2035.85413 2566.46802
28.0400 28.0444 2635.8 0.000379 2036.45752 2537.10425
28.0500 28.0544 2604.1 0.000384 2037.05859 2514.94360
28.0600 28.0644 2579.6 0.000388 2037.65857 2499.71362
28.0700 28.0744 2542.3 0.000393 2038.25671 2491.06445
28.0800 28.0844 2550.8 0.000392 2038.85229 2488.08960
28.0900 28.0944 2551.4 0.000392 2039.44617 2491.32886
28.1000 28.1044 2522.5 0.000396 2040.03870 2499.76001
28.1100 28.1144 2559.7 0.000391 2040.62781 2512.79077
28.1200 28.1244 2560.2 0.000391 2041.21460 2527.62109
28.1300 28.1344 2577.2 0.000388 2041.79993 2547.64307
28.1400 28.1444 2562.1 0.000390 2042.38220 2569.68237
28.1500 28.1544 2614.0 0.000383 2042.96204 2592.42285
28.1600 28.1644 2610.6 0.000383 2043.53979 2614.25708
28.1700 28.1744 2592.4 0.000386 2044.11414 2633.32520
28.1800 28.1844 2629.2 0.000380 2044.68628 2647.66675
28.1900 28.1944 2610.5 0.000383 2045.25549 2655.48804
28.2000 28.2044 2601.1 0.000384 2045.82080 2655.48730
28.2100 28.2144 2563.6 0.000390 2046.38379 2647.14331
28.2200 28.2244 2565.4 0.000390 2046.94446 2630.85278
28.2300 28.2344 2539.1 0.000394 2047.50085 2607.70557
28.2400 28.2444 2485.2 0.000402 2048.05518 2579.36694
28.2500 28.2544 2475.6 0.000404 2048.60474 2547.63281
28.2600 28.2644 2441.4 0.000410 2049.15259 2514.19678
28.2700 28.2744 2407.8 0.000415 2049.69556 2480.41650
28.2800 28.2844 2359.1 0.000424 2050.23608 2447.38501
28.2900 28.2944 2362.1 0.000423 2050.77246 2415.86060
28.3000 28.3044 2329.4 0.000429 2051.30542 2386.34863
28.3100 28.3144 2294.9 0.000436 2051.83423 2360.43042
28.3200 28.3244 2296.1 0.000436 2052.35986 2335.70068
28.3300 28.3344 2278.3 0.000439 2052.88184 2313.47070
28.3400 28.3444 2262.6 0.000442 2053.39941 2293.69775
28.3500 28.3544 2222.8 0.000450 2053.91260 2276.27832
28.3600 28.3644 2242.6 0.000446 2054.42236 2261.07275
28.3700 28.3744 2227.6 0.000449 2054.92822 2247.91284
28.3800 28.3844 2203.0 0.000454 2055.42920 2236.61499
28.3900 28.3944 2203.3 0.000454 2055.92578 2226.99512
28.4000 28.4044 2201.8 0.000454 2056.41895 2218.86475
28.4100 28.4144 2194.7 0.000456 2056.90674 2212.04810
28.4200 28.4244 2176.3 0.000459 2057.39087 2206.38306
28.4300 28.4344 2190.8 0.000456 2057.87012 2201.72119
28.4400 28.4444 2178.0 0.000459 2058.34448 2197.93286
28.4500 28.4544 2172.2 0.000460 2058.81494 2194.90430
28.4600 28.4644 2173.2 0.000460 2059.27979 2192.54346
28.4700 28.4744 2178.4 0.000459 2059.74072 2190.77173
28.4800 28.4844 2183.4 0.000458 2060.19678 2189.52905
28.4900 28.4944 2157.1 0.000464 2060.64771 2188.76758
28.5000 28.5044 2183.9 0.000458 2061.09375 2188.45264
28.5100 28.5144 2177.8 0.000459 2061.53491 2188.56250
28.5200 28.5244 2179.3 0.000459 2061.97046 2189.08569
28.5300 28.5344 2167.2 0.000461 2062.40186 2190.02148
28.5400 28.5444 2182.6 0.000458 2062.82739 2191.38013
28.5500 28.5544 2178.1 0.000459 2063.24780 2193.17969
28.5600 28.5644 2165.5 0.000462 2063.66260 2195.45117
28.5700 28.5744 2191.5 0.000456 2064.07324 2198.23755
28.5800 28.5844 2181.3 0.000458 2064.47729 2201.59058
28.5900 28.5944 2209.1 0.000453 2064.87646 2205.58447
28.6000 28.6044 2173.5 0.000460 2065.27026 2210.29565
28.6100 28.6144 2196.5 0.000455 2065.65869 2215.82715
28.6200 28.6244 2194.9 0.000456 2066.04077 2222.29443
28.6300 28.6344 2169.3 0.000461 2066.41748 2229.82935
28.6400 28.6444 2211.4 0.000452 2066.78906 2238.57959
28.6500 28.6544 2204.6 0.000454 2067.15430 2248.70850
28.6600 28.6644 2203.1 0.000454 2067.51416 2260.38721
28.6700 28.6744 2204.3 0.000454 2067.86816 2273.79272
28.6800 28.6844 2222.4 0.000450 2068.21606 2289.10352
28.6900 28.6944 2237.8 0.000447 2068.55811 2306.48242
28.7000 28.7044 2222.7 0.000450 2068.89502 2326.07275
28.7100 28.7144 2263.9 0.000442 2069.22437 2347.98096
28.7200 28.7244 2279.3 0.000439 2069.54883 2372.27417
28.7300 28.7344 2297.5 0.000435 2069.86719 2398.95776
28.7400 28.7444 2303.1 0.000434 2070.17993 2427.88379
28.7500 28.7544 2349.4 0.000426 2070.48608 2459.09229
28.7600 28.7644 2373.2 0.000421 2070.78516 2492.25513
28.7700 28.7744 2375.9 0.000421 2071.07886 2526.99121
28.7800 28.7844 2458.8 0.000407 2071.36670 2562.72314
28.7900 28.7944 2471.3 0.000405 2071.64746 2598.61206
28.8000 28.8044 2509.8 0.000398 2071.92163 2632.18408
28.8100 28.8144 2525.5 0.000396 2072.19092 2664.54395
28.8200 28.8244 2562.2 0.000390 2072.45361 2692.58301
28.8300 28.8344 2574.5 0.000388 2072.70850 2714.40625
28.8400 28.8444 2563.5 0.000390 2072.95801 2728.45996
28.8500 28.8544 2589.7 0.000386 2073.20068 2733.31885
28.8600 28.8644 2571.4 0.000389 2073.43701 2728.79907
28.8700 28.8744 2555.2 0.000391 2073.66675 2715.49585
28.8800 28.8844 2526.2 0.000396 2073.89014 2694.78467
28.8900 28.8944 2519.3 0.000397 2074.10669 2668.51367
28.9000 28.9044 2498.0 0.000400 2074.31714 2638.66895
28.9100 28.9144 2439.3 0.000410 2074.52051 2607.09644
28.9200 28.9244 2467.2 0.000405 2074.71704 2575.34814
28.9300 28.9344 2433.9 0.000411 2074.90723 2544.63452
28.9400 28.9444 2410.5 0.000415 2075.09131 2515.84888
28.9500 28.9544 2403.8 0.000416 2075.26831 2489.61792
28.9600 28.9644 2392.4 0.000418 2075.43872 2466.36401
28.9700 28.9744 2385.0 0.000419 2075.60205 2446.35864
28.9800 28.9844 2355.2 0.000425 2075.75928 2429.76733
28.9900 28.9944 2394.7 0.000418 2075.90869 2416.67236
29.0000 29.0044 2384.5 0.000419 2076.05200 2407.11060
29.0100 29.0144 2378.6 0.000420 2076.18823 2401.07373
29.0200 29.0244 2394.7 0.000418 2076.31836 2398.53467
29.0300 29.0344 2413.6 0.000414 2076.44043 2399.44434
29.0400 29.0444 2424.2 0.000413 2076.55688 2403.73999
29.0500 29.0544 2406.2 0.000416 2076.66626 2411.35205
29.0600 29.0644 2473.6 0.000404 2076.76831 2422.19189
29.0700 29.0744 2476.6 0.000404 2076.86401 2436.15674
29.0800 29.0844 2488.5 0.000402 2076.95288 2453.11523
29.0900 29.0944 2547.1 0.000393 2077.03491 2472.89209
29.1000 29.1044 2573.1 0.000389 2077.10986 2495.25146
29.1100 29.1144 2606.6 0.000384 2077.17749 2519.86548
29.1200 29.1244 2633.3 0.000380 2077.23853 2546.27856
29.1300 29.1344 2706.0 0.000370 2077.29346 2573.87256
29.1400 29.1444 2745.4 0.000364 2077.34106 2601.83911
29.1500 29.1544 2747.4 0.000364 2077.38208 2629.17749
29.1600 29.1644 2813.9 0.000355 2077.41553 2654.75342
29.1700 29.1744 2841.8 0.000352 2077.44214 2677.16577
29.1800 29.1844 2858.4 0.0003498 2077.46313 2695.97266
29.1900 29.1944 2847.9 0.000351 2077.47632 2710.37427
29.2000 29.2044 2892.1 0.0003458 2077.48242 2720.41968
29.2100 29.2144 2888.3 0.0003462 2077.48242 2727.63574
29.2200 29.2244 2852.1 0.0003506 2077.47559 2731.58081
29.2300 29.2344 2888.5 0.0003462 2077.46118 2734.67041
29.2400 29.2444 2868.5 0.0003486 2077.44092 2738.61353
29.2500 29.2544 2869.4 0.0003485 2077.41260 2745.07031
29.2600 29.2644 2835.1 0.000353 2077.37915 2755.53931
29.2700 29.2744 2868.2 0.0003487 2077.33789 2771.32031
29.2800 29.2844 2880.2 0.0003472 2077.29004 2793.51587
29.2900 29.2944 2860.2 0.0003496 2077.23584 2823.03564
29.3000 29.3044 2929.3 0.0003414 2077.17480 2860.62012
29.3100 29.3144 2953.0 0.0003386 2077.10669 2906.82861
29.3200 29.3244 3018.3 0.0003313 2077.03223 2962.03223
29.3300 29.3344 3037.8 0.0003292 2076.95068 3026.36499
29.3400 29.3444 3166.7 0.0003158 2076.86255 3099.67627
29.3500 29.3544 3233.5 0.0003093 2076.76807 3181.44214
29.3600 29.3644 3303.6 0.0003027 2076.66748 3270.69189
29.3700 29.3744 3473.1 0.0002879 2076.55957 3365.91577
29.3800 29.3844 3549.5 0.0002817 2076.44556 3465.03662
29.3900 29.3944 3676.0 0.0002720 2076.32397 3565.44141
29.4000 29.4044 3744.5 0.0002671 2076.19800 3664.12207
29.4100 29.4144 3872.2 0.0002583 2076.06396 3757.89404
29.4200 29.4244 3946.4 0.0002534 2075.92407 3843.62988
29.4300 29.4344 3958.0 0.0002527 2075.77759 3918.40356
29.4400 29.4444 4060.9 0.0002463 2075.62378 3979.47534
29.4500 29.4544 4046.1 0.0002471 2075.46533 4024.18066
29.4600 29.4644 4023.5 0.0002485 2075.29980 4049.89087
29.4700 29.4744 3993.9 0.0002504 2075.12793 4054.20264
29.4800 29.4844 3942.9 0.0002536 2074.94946 4035.43481
29.4900 29.4944 3867.0 0.0002586 2074.76538 3993.21460
29.5000 29.5044 3734.2 0.0002678 2074.57471 3928.90747
29.5100 29.5144 3690.0 0.0002710 2074.37817 3845.90381
29.5200 29.5244 3560.2 0.0002809 2074.17554 3747.05640
29.5300 29.5344 3421.5 0.0002923 2073.96704 3639.39795
29.5400 29.5444 3343.4 0.0002991 2073.75220 3526.80420
29.5500 29.5544 3236.8 0.0003089 2073.53101 3413.43066
29.5600 29.5644 3143.1 0.0003182 2073.30469 3302.57373
29.5700 29.5744 3025.7 0.0003305 2073.07202 3196.64307
29.5800 29.5844 2973.5 0.0003363 2072.83301 3097.26685
29.5900 29.5944 2894.8 0.0003454 2072.58887 3005.43140
29.6000 29.6044 2812.6 0.000356 2072.33911 2921.64185
29.6100 29.6144 2778.9 0.000360 2072.08350 2846.03442
29.6200 29.6244 2724.2 0.000367 2071.82153 2778.48779
29.6300 29.6344 2685.4 0.000372 2071.55444 2718.69556
29.6400 29.6444 2602.9 0.000384 2071.28149 2666.22290
29.6500 29.6544 2608.1 0.000383 2071.00342 2620.55957
29.6600 29.6644 2576.1 0.000388 2070.71997 2581.14722
29.6700 29.6744 2519.5 0.000397 2070.43115 2547.41431
29.6800 29.6844 2535.1 0.000394 2070.13672 2518.79102
29.6900 29.6944 2503.5 0.000399 2069.83618 2494.73633
29.7000 29.7044 2475.8 0.000404 2069.53149 2474.74512
29.7100 29.7144 2451.7 0.000408 2069.22144 2458.36255
29.7200 29.7244 2460.6 0.000406 2068.90576 2445.18726
29.7300 29.7344 2445.0 0.000409 2068.58496 2434.87817
29.7400 29.7444 2417.2 0.000414 2068.25928 2427.15405
29.7500 29.7544 2443.8 0.000409 2067.92847 2421.79346
29.7600 29.7644 2417.6 0.000414 2067.59277 2418.63794
29.7700 29.7744 2400.1 0.000417 2067.25244 2417.58423
29.7800 29.7844 2419.8 0.000413 2066.90674 2418.58691
29.7900 29.7944 2423.9 0.000413 2066.55688 2421.73486
29.8000 29.8044 2428.3 0.000412 2066.20264 2426.93677
29.8100 29.8144 2398.3 0.000417 2065.84302 2434.39111
29.8200 29.8244 2441.6 0.000410 2065.47925 2444.26660
29.8300 29.8344 2439.0 0.000410 2065.11035 2456.78857
29.8400 29.8444 2424.0 0.000413 2064.73779 2472.23267
29.8500 29.8544 2471.0 0.000405 2064.35986 2490.61499
29.8600 29.8644 2476.4 0.000404 2063.97852 2512.93579
29.8700 29.8744 2493.9 0.000401 2063.59229 2539.30737
29.8800 29.8844 2494.7 0.000401 2063.20239 2570.18726
29.8900 29.8944 2560.0 0.000391 2062.80835 2606.07764
29.9000 29.9044 2575.9 0.000388 2062.40991 2647.49707
29.9100 29.9144 2586.1 0.000387 2062.00732 2694.97852
29.9200 29.9244 2672.7 0.000374 2061.60107 2749.04126
29.9300 29.9344 2681.2 0.000373 2061.19189 2810.16797
29.9400 29.9444 2751.3 0.000363 2060.77832 2878.76782
29.9500 29.9544 2808.8 0.000356 2060.36060 2955.12109
29.9600 29.9644 2899.8 0.0003449 2059.93872 3039.31738
29.9700 29.9744 2982.3 0.0003353 2059.51440 3131.17017
29.9800 29.9844 3020.4 0.0003311 2059.08618 3230.12158
29.9900 29.9944 3161.4 0.0003163 2058.65454 3335.16675
30.0000 30.0044 3242.5 0.0003084 2058.21899 3444.79272
30.0100 30.0144 3309.4 0.0003022 2057.78174 3557.05566
30.0200 30.0244 3438.6 0.0002908 2057.33936 3669.52026
30.0300 30.0344 3541.3 0.0002824 2056.89478 3779.80005
30.0400 30.0444 3637.9 0.0002749 2056.44751 3885.66821
30.0500 30.0544 3701.5 0.0002702 2055.99707 3985.33301
30.0600 30.0644 3870.9 0.0002583 2055.54321 4077.96460
30.0700 30.0744 3957.7 0.0002527 2055.08643 4161.48193
30.0800 30.0844 4033.5 0.0002479 2054.62793 4235.05859
30.0900 30.0944 4214.8 0.0002373 2054.16602 4296.71729
30.1000 30.1044 4296.5 0.0002327 2053.70117 4343.48486
30.1100 30.1144 4355.4 0.0002296 2053.23486 4371.83398
30.1200 30.1244 4405.8 0.0002270 2052.76514 4377.88623
30.1300 30.1344 4453.8 0.0002245 2052.29395 4358.54541
30.1400 30.1444 4420.8 0.0002262 2051.81958 4312.64746
30.1500 30.1544 4318.0 0.0002316 2051.34375 4240.54590
30.1600 30.1644 4266.0 0.0002344 2050.86523 4145.59619
30.1700 30.1744 4139.9 0.0002416 2050.38525 4032.60425
30.1800 30.1844 3957.6 0.0002527 2049.90332 3907.19678
30.1900 30.1944 3838.5 0.0002605 2049.41870 3774.96118
30.2000 30.2044 3683.2 0.0002715 2048.93262 3640.82300
30.2100 30.2144 3523.1 0.0002838 2048.44507 3508.75244
30.2200 30.2244 3333.4 0.0003000 2047.95605 3382.39063
30.2300 30.2344 3251.8 0.0003075 2047.46497 3262.37183
30.2400 30.2444 3130.1 0.0003195 2046.97253 3150.66309
30.2500 30.2544 2983.6 0.0003352 2046.47961 3047.95557
30.2600 30.2644 2929.2 0.0003414 2045.98450 2954.50146
30.2700 30.2744 2839.3 0.000352 2045.48792 2870.24414
30.2800 30.2844 2753.5 0.000363 2044.99084 2794.89673
30.2900 30.2944 2702.5 0.000370 2044.49219 2728.01733
30.3000 30.3044 2659.0 0.000376 2043.99316 2669.06055
30.3100 30.3144 2605.5 0.000384 2043.49292 2617.41748
30.3200 30.3244 2549.6 0.000392 2042.99219 2572.44922
30.3300 30.3344 2537.1 0.000394 2042.49036 2533.51318
30.3400 30.3444 2497.7 0.000400 2041.98730 2499.98584
30.3500 30.3544 2450.2 0.000408 2041.48560 2471.27881
30.3600 30.3644 2452.8 0.000408 2040.98193 2446.84985
30.3700 30.3744 2435.4 0.000411 2040.47778 2426.21240
30.3800 30.3844 2413.4 0.000414 2039.97424 2408.94604
30.3900 30.3944 2370.5 0.000422 2039.46997 2394.69385
30.4000 30.4044 2385.9 0.000419 2038.96570 2383.16113
30.4100 30.4144 2369.5 0.000422 2038.46106 2374.12085
30.4200 30.4244 2344.6 0.000427 2037.95630 2367.40210
30.4300 30.4344 2366.6 0.000423 2037.45251 2362.89624
30.4400 30.4444 2350.8 0.000425 2036.94836 2360.54297
30.4500 30.4544 2338.8 0.000428 2036.44446 2360.32910
30.4600 30.4644 2345.2 0.000426 2035.94153 2362.28516
30.4700 30.4744 2359.3 0.000424 2035.43799 2366.62964
30.4800 30.4844 2351.3 0.000425 2034.93591 2373.15283
30.4900 30.4944 2332.0 0.000429 2034.43396 2382.12671
30.5000 30.5044 2373.2 0.000421 2033.93323 2393.69165
30.5100 30.5144 2370.0 0.000422 2033.43286 2407.99170
30.5200 30.5244 2356.7 0.000424 2032.93335 2423.98071
30.5300 30.5344 2399.2 0.000417 2032.43506 2444.19434
30.5400 30.5444 2417.2 0.000414 2031.93823 2467.53052
30.5500 30.5544 2428.0 0.000412 2031.44104 2494.04834
30.5600 30.5644 2443.7 0.000409 2030.94653 2523.73096
30.5700 30.5744 2489.7 0.000402 2030.45264 2556.45923
30.5800 30.5844 2498.6 0.000400 2029.96057 2591.98267
30.5900 30.5944 2515.3 0.000398 2029.46924 2629.89136
30.6000 30.6044 2579.2 0.000388 2028.98047 2669.60425
30.6100 30.6144 2603.1 0.000384 2028.49268 2710.37891
30.6200 30.6244 2622.2 0.000381 2028.00659 2751.34448
30.6300 30.6344 2692.0 0.000371 2027.52234 2791.57129
30.6400 30.6444 2760.1 0.000362 2027.03943 2830.15039
30.6500 30.6544 2816.4 0.000355 2026.55957 2866.26636
30.6600 30.6644 2863.2 0.0003493 2026.08130 2899.25659
30.6700 30.6744 2980.9 0.0003355 2025.60425 2928.61621
30.6800 30.6844 3061.1 0.0003267 2025.13062 2953.94336
30.6900 30.6944 3129.1 0.0003196 2024.65894 2974.99414
30.7000 30.7044 3258.6 0.0003069 2024.18909 2990.92773
30.7100 30.7144 3322.2 0.0003010 2023.72241 3001.14893
30.7200 30.7244 3364.0 0.0002973 2023.25757 3004.69043
30.7300 30.7344 3455.1 0.0002894 2022.79578 3000.51245
30.7400 30.7444 3484.0 0.0002870 2022.33655 2987.77808
30.7500 30.7544 3466.2 0.0002885 2021.87915 2966.11426
30.7600 30.7644 3422.7 0.0002922 2021.42505 2935.83301
30.7700 30.7744 3402.8 0.0002939 2020.97510 2897.96436
30.7800 30.7844 3316.8 0.0003015 2020.52649 2854.81104
30.7900 30.7944 3199.9 0.0003125 2020.08154 2806.86206
30.8000 30.8044 3137.0 0.0003188 2019.63928 2756.89209
30.8100 30.8144 3026.2 0.0003305 2019.20105 2706.29517
30.8200 30.8244 2907.7 0.0003439 2018.76563 2656.63574
30.8300 30.8344 2829.2 0.000353 2018.33350 2608.48218
30.8400 30.8444 2750.8 0.000364 2017.90466 2563.55103
30.8500 30.8544 2674.5 0.000374 2017.47913 2521.81616
30.8600 30.8644 2580.7 0.000387 2017.05737 2483.54004
30.8700 30.8744 2550.4 0.000392 2016.63928 2448.82300
30.8800 30.8844 2490.3 0.000402 2016.22559 2417.65454
30.8900 30.8944 2430.2 0.000411 2015.81445 2389.93970
30.9000 30.9044 2412.8 0.000414 2015.40771 2365.53027
30.9100 30.9144 2389.6 0.000418 2015.00439 2344.24170
30.9200 30.9244 2345.8 0.000426 2014.60535 2325.86572
30.9300 30.9344 2334.1 0.000428 2014.20996 2310.18799
30.9400 30.9444 2324.5 0.000430 2013.81934 2296.99365
30.9500 30.9544 2315.0 0.000432 2013.43262 2286.07520
30.9600 30.9644 2275.1 0.000440 2013.04980 2277.24170
30.9700 30.9744 2295.6 0.000436 2012.67126 2270.32349
30.9800 30.9844 2278.6 0.000439 2012.29724 2265.17627
30.9900 30.9944 2264.0 0.000442 2011.92761 2261.68140
31.0000 31.0044 2278.5 0.000439 2011.56238 2259.75708
31.0100 31.0144 2281.0 0.000438 2011.20154 2259.34692
31.0200 31.0244 2264.4 0.000442 2010.84546 2260.62549
31.0300 31.0344 2276.4 0.000439 2010.49426 2263.23755
31.0400 31.0444 2294.2 0.000436 2010.14709 2267.43066
31.0500 31.0544 2285.1 0.000438 2009.80518 2273.30249
31.0600 31.0644 2287.8 0.000437 2009.46777 2280.98901
31.0700 31.0744 2317.1 0.000432 2009.13562 2290.67358
31.0800 31.0844 2317.3 0.000432 2008.80859 2302.56836
31.0900 31.0944 2313.2 0.000432 2008.48572 2316.93481
31.1000 31.1044 2352.2 0.000425 2008.16809 2334.06592
31.1100 31.1144 2371.8 0.000422 2007.85571 2354.28833
31.1200 31.1244 2376.0 0.000421 2007.54810 2377.95117
31.1300 31.1344 2406.5 0.000416 2007.24597 2405.42334
31.1400 31.1444 2442.4 0.000409 2006.94934 2437.07495
31.1500 31.1544 2471.7 0.000405 2006.65796 2473.26782
31.1600 31.1644 2490.2 0.000402 2006.37158 2514.33350
31.1700 31.1744 2555.7 0.000391 2006.09045 2560.55469
31.1800 31.1844 2603.8 0.000384 2005.81494 2612.13916
31.1900 31.1944 2627.2 0.000381 2005.54456 2669.18726
31.2000 31.2044 2715.7 0.000368 2005.27979 2731.66992
31.2100 31.2144 2793.4 0.000358 2005.02051 2799.37817
31.2200 31.2244 2849.9 0.000351 2004.76721 2871.88794
31.2300 31.2344 2931.7 0.0003411 2004.51929 2948.48926
31.2400 31.2444 3027.2 0.0003303 2004.27686 3028.12598
31.2500 31.2544 3102.0 0.0003224 2004.04041 3109.28467
31.2600 31.2644 3169.2 0.0003155 2003.80957 3189.90918
31.2700 31.2744 3266.9 0.0003061 2003.58423 3267.50415
31.2800 31.2844 3325.6 0.0003007 2003.36523 3338.43066
31.2900 31.2944 3356.3 0.0002979 2003.15198 3399.06372
31.3000 31.3044 3393.4 0.0002947 2002.94434 3445.54175
31.3100 31.3144 3422.7 0.0002922 2002.74243 3474.37769
31.3200 31.3244 3385.8 0.0002954 2002.54700 3483.10278
31.3300 31.3344 3370.7 0.0002967 2002.35706 3470.77515
31.3400 31.3444 3341.5 0.0002993 2002.17346 3438.20264
31.3500 31.3544 3283.0 0.0003046 2001.99548 3387.78589
31.3600 31.3644 3175.9 0.0003149 2001.82397 3323.03247
31.3700 31.3744 3144.3 0.0003180 2001.65808 3247.94434
31.3800 31.3844 3062.1 0.0003266 2001.49829 3166.42920
31.3900 31.3944 2957.9 0.0003381 2001.34521 3082.00146
31.4000 31.4044 2908.7 0.0003438 2001.19788 2997.46631
31.4100 31.4144 2842.7 0.000352 2001.05688 2914.97290
31.4200 31.4244 2757.5 0.000363 2000.92188 2836.06372
31.4300 31.4344 2717.7 0.000368 2000.79358 2761.76929
31.4400 31.4444 2655.2 0.000377 2000.67053 2692.72339
31.4500 31.4544 2603.3 0.000384 2000.55457 2629.25708
31.4600 31.4644 2538.0 0.000394 2000.44409 2571.47217
31.4700 31.4744 2519.2 0.000397 2000.34033 2519.30103
31.4800 31.4844 2472.0 0.000405 2000.24243 2472.55493
31.4900 31.4944 2423.5 0.000413 2000.15125 2430.95605
31.5000 31.5044 2417.3 0.000414 2000.06641 2394.16699
31.5100 31.5144 2378.9 0.000420 1999.98755 2361.81274
31.5200 31.5244 2337.9 0.000428 1999.91541 2333.50000
31.5300 31.5344 2337.0 0.000428 1999.84888 2308.83057
31.5400 31.5444 2316.8 0.000432 1999.78918 2287.41992
31.5500 31.5544 2286.3 0.000437 1999.73608 2268.90063
31.5600 31.5644 2267.6 0.000441 1999.68933 2252.93384
31.5700 31.5744 2268.2 0.000441 1999.64844 2239.23462
31.5800 31.5844 2243.3 0.000446 1999.61414 2227.48462
31.5900 31.5944 2218.4 0.000451 1999.58594 2217.47144
31.6000 31.6044 2226.3 0.000449 1999.56470 2208.99365
31.6100 31.6144 2220.2 0.000450 1999.54871 2201.88623
31.6200 31.6244 2191.9 0.000456 1999.53931 2196.01392
31.6300 31.6344 2197.6 0.000455 1999.53687 2191.27393
31.6400 31.6444 2200.0 0.000455 1999.54016 2187.58398
31.6500 31.6544 2173.0 0.000460 1999.55066 2184.88672
31.6600 31.6644 2177.8 0.000459 1999.56616 2183.14185
31.6700 31.6744 2174.7 0.000460 1999.58899 2182.32568
31.6800 31.6844 2167.9 0.000461 1999.61719 2182.42065
31.6900 31.6944 2146.0 0.000466 1999.65161 2183.42139
31.7000 31.7044 2165.5 0.000462 1999.69299 2185.32275
31.7100 31.7144 2166.0 0.000462 1999.74048 2188.12183
31.7200 31.7244 2153.2 0.000464 1999.79395 2191.80981
31.7300 31.7344 2167.3 0.000461 1999.85339 2196.36890
31.7400 31.7444 2178.4 0.000459 1999.91956 2201.76953
31.7500 31.7544 2156.4 0.000464 1999.99146 2207.96069
31.7600 31.7644 2170.3 0.000461 2000.06982 2214.86108
31.7700 31.7744 2171.7 0.000460 2000.15405 2222.35327
31.7800 31.7844 2179.2 0.000459 2000.24451 2230.26953
31.7900 31.7944 2167.4 0.000461 2000.34058 2238.38306
31.8000 31.8044 2196.8 0.000455 2000.44312 2246.40063
31.8100 31.8144 2189.0 0.000457 2000.55139 2253.97119
31.8200 31.8244 2174.3 0.000460 2000.66602 2260.69409
31.8300 31.8344 2190.5 0.000457 2000.78601 2266.17896
31.8400 31.8444 2200.8 0.000454 2000.91260 2270.08008
31.8500 31.8544 2181.5 0.000458 2001.04456 2272.17334
31.8600 31.8644 2197.2 0.000455 2001.18237 2272.98950
31.8700 31.8744 2203.1 0.000454 2001.32642 2271.46313
31.8800 31.8844 2185.5 0.000458 2001.47546 2268.46802
31.8900 31.8944 2200.5 0.000454 2001.63049 2264.65186
31.9000 31.9044 2205.7 0.000453 2001.79114 2259.94775
31.9100 31.9144 2199.4 0.000455 2001.95728 2255.05249
31.9200 31.9244 2184.6 0.000458 2002.12952 2250.37109
31.9300 31.9344 2206.4 0.000453 2002.30786 2246.25806
31.9400 31.9444 2210.0 0.000452 2002.49097 2243.00659
31.9500 31.9544 2202.4 0.000454 2002.67920 2240.87451
31.9600 31.9644 2219.2 0.000451 2002.87341 2240.07983
31.9700 31.9744 2226.4 0.000449 2003.07263 2240.81982
31.9800 31.9844 2218.2 0.000451 2003.27783 2243.28076
31.9900 31.9944 2242.2 0.000446 2003.48657 2247.64404
32.0000 32.0044 2256.9 0.000443 2003.70239 2254.09033
32.0100 32.0144 2259.2 0.000443 2003.92285 2262.80542
32.0200 32.0244 2274.7 0.000440 2004.14807 2273.97974
32.0300 32.0344 2311.1 0.000433 2004.37927 2287.80225
32.0400 32.0444 2320.4 0.000431 2004.61414 2304.46729
32.0500 32.0544 2325.9 0.000430 2004.85486 2324.15796
32.0600 32.0644 2374.9 0.000421 2005.09985 2347.04492
32.0700 32.0744 2399.5 0.000417 2005.35022 2373.27930
32.0800 32.0844 2429.3 0.000412 2005.60486 2402.97632
32.0900 32.0944 2473.6 0.000404 2005.86511 2436.20313
32.1000 32.1044 2521.3 0.000397 2006.12842 2472.96265
32.1100 32.1144 2544.4 0.000393 2006.39795 2513.15991
32.1200 32.1244 2617.7 0.000382 2006.67090 2556.58203
32.1300 32.1344 2680.6 0.000373 2006.94812 2602.84937
32.1400 32.1444 2729.4 0.000366 2007.23035 2651.36353
32.1500 32.1544 2789.7 0.000358 2007.51660 2701.24829
32.1600 32.1644 2879.4 0.0003473 2007.80786 2751.29688
32.1700 32.1744 2948.9 0.0003391 2008.10205 2799.92822
32.1800 32.1844 2986.9 0.0003348 2008.40125 2845.19653
32.1900 32.1944 3059.1 0.0003269 2008.70386 2884.22168
32.2000 32.2044 3105.6 0.0003220 2009.01013 2916.01855
32.2100 32.2144 3099.1 0.0003227 2009.32092 2937.83325
32.2200 32.2244 3141.4 0.0003183 2009.63562 2948.13550
32.2300 32.2344 3140.7 0.0003184 2009.95337 2946.24927
32.2400 32.2444 3098.3 0.0003228 2010.27466 2932.50073
32.2500 32.2544 3082.1 0.0003245 2010.60046 2908.15332
32.2600 32.2644 3048.8 0.0003280 2010.92859 2875.16675
32.2700 32.2744 2984.2 0.0003351 2011.26111 2835.85815
32.2800 32.2844 2918.9 0.0003426 2011.59680 2792.57471
32.2900 32.2944 2872.3 0.0003482 2011.93542 2747.45654
32.3000 32.3044 2818.5 0.000355 2012.27710 2702.30811
32.3100 32.3144 2744.4 0.000364 2012.62158 2658.55493
32.3200 32.3244 2709.7 0.000369 2012.96899 2617.28149
32.3300 32.3344 2661.9 0.000376 2013.31958 2579.23218
32.3400 32.3444 2599.3 0.000385 2013.67310 2544.94653
32.3500 32.3544 2582.8 0.000387 2014.02881 2514.91772
32.3600 32.3644 2552.3 0.000392 2014.38733 2489.00098
32.3700 32.3744 2502.5 0.000400 2014.74866 2467.42407
32.3800 32.3844 2498.5 0.000400 2015.11169 2450.15552
32.3900 32.3944 2478.3 0.000404 2015.47803 2437.08643
32.4000 32.4044 2463.0 0.000406 2015.84607 2428.03540
32.4100 32.4144 2450.1 0.000408 2016.21631 2422.75830
32.4200 32.4244 2451.7 0.000408 2016.58850 2420.41016
32.4300 32.4344 2461.5 0.000406 2016.96204 2421.66333
32.4400 32.4444 2443.4 0.000409 2017.33838 2425.51196
32.4500 32.4544 2458.7 0.000407 2017.71558 2431.37964
32.4600 32.4644 2467.6 0.000405 2018.09534 2438.57861
32.4700 32.4744 2460.8 0.000406 2018.47632 2446.30444
32.4800 32.4844 2475.6 0.000404 2018.85864 2453.65405
32.4900 32.4944 2485.9 0.000402 2019.24182 2458.52808
32.5000 32.5044 2477.0 0.000404 2019.62708 2462.31372
32.5100 32.5144 2483.7 0.000403 2020.01306 2463.08398
32.5200 32.5244 2479.8 0.000403 2020.40015 2460.33203
32.5300 32.5344 2463.5 0.000406 2020.78772 2453.89111
32.5400 32.5444 2472.2 0.000404 2021.17712 2443.95361
32.5500 32.5544 2442.5 0.000409 2021.56641 2431.01099
32.5600 32.5644 2423.3 0.000413 2021.95654 2415.76147
32.5700 32.5744 2382.6 0.000420 2022.34692 2398.97827
32.5800 32.5844 2380.7 0.000420 2022.73779 2381.41650
32.5900 32.5944 2357.5 0.000424 2023.12964 2363.73926
32.6000 32.6044 2324.1 0.000430 2023.52039 2346.49316
32.6100 32.6144 2316.5 0.000432 2023.91235 2330.09595
32.6200 32.6244 2297.0 0.000435 2024.30383 2314.85376
32.6300 32.6344 2271.9 0.000440 2024.69482 2301.06274
32.6400 32.6444 2267.7 0.000441 2025.08606 2288.69287
32.6500 32.6544 2256.9 0.000443 2025.47632 2277.90430
32.6600 32.6644 2236.7 0.000447 2025.86719 2268.73169
32.6700 32.6744 2239.5 0.000447 2026.25671 2261.16846
32.6800 32.6844 2238.0 0.000447 2026.64575 2255.29126
32.6900 32.6944 2240.1 0.000446 2027.03394 2250.82715
32.7000 32.7044 2236.0 0.000447 2027.42065 2247.80591
32.7100 32.7144 2252.3 0.000444 2027.80725 2246.12720
32.7200 32.7244 2256.5 0.000443 2028.19165 2245.66943
32.7300 32.7344 2247.6 0.000445 2028.57544 2246.28833
32.7400 32.7444 2271.1 0.000440 2028.95801 2247.81470
32.7500 32.7544 2292.9 0.000436 2029.33862 2250.06104
32.7600 32.7644 2285.4 0.000438 2029.71716 2252.81372
32.7700 32.7744 2305.6 0.000434 2030.09448 2255.86353
32.7800 32.7844 2317.6 0.000431 2030.47034 2259.01074
32.7900 32.7944 2314.2 0.000432 2030.84375 2262.10449
32.8000 32.8044 2324.9 0.000430 2031.21509 2265.06396
32.8100 32.8144 2331.8 0.000429 2031.58447 2267.89966
32.8200 32.8244 2324.3 0.000430 2031.95129 2270.72192
32.8300 32.8344 2320.3 0.000431 2032.31567 2273.72827
32.8400 32.8444 2317.3 0.000432 2032.67761 2277.17627
32.8500 32.8544 2320.1 0.000431 2033.03662 2281.35376
32.8600 32.8644 2289.1 0.000437 2033.39294 2286.55762
32.8700 32.8744 2298.8 0.000435 2033.74683 2293.06226
32.8800 32.8844 2304.0 0.000434 2034.09680 2301.11597
32.8900 32.8944 2292.3 0.000436 2034.44421 2310.93091
32.9000 32.9044 2305.1 0.000434 2034.78796 2322.68213
32.9100 32.9144 2319.3 0.000431 2035.12842 2336.50024
32.9200 32.9244 2315.5 0.000432 2035.46570 2352.47461
32.9300 32.9344 2338.9 0.000428 2035.79895 2370.64087
32.9400 32.9444 2362.3 0.000423 2036.12830 2390.97437
32.9500 32.9544 2374.3 0.000421 2036.45435 2413.61523
32.9600 32.9644 2407.1 0.000415 2036.77637 2437.90771
32.9700 32.9744 2445.2 0.000409 2037.09375 2463.79126
32.9800 32.9844 2481.4 0.000403 2037.40698 2490.84351
32.9900 32.9944 2513.3 0.000398 2037.71631 2518.49414
33.0000 33.0044 2558.5 0.000391 2038.02087 2546.00757
33.0100 33.0144 2613.6 0.000383 2038.32117 2572.48120
33.0200 33.0244 2628.4 0.000380 2038.61633 2596.85815
33.0300 33.0344 2672.8 0.000374 2038.90686 2617.98242
33.0400 33.0444 2687.6 0.000372 2039.19250 2634.67310
33.0500 33.0544 2685.4 0.000372 2039.47327 2645.22778
33.0600 33.0644 2691.7 0.000372 2039.74829 2650.11694
33.0700 33.0744 2680.1 0.000373 2040.01831 2648.30591
33.0800 33.0844 2651.5 0.000377 2040.28357 2639.89258
33.0900 33.0944 2652.1 0.000377 2040.54236 2625.45630
33.1000 33.1044 2609.5 0.000383 2040.79541 2605.96680
33.1100 33.1144 2563.6 0.000390 2041.04333 2582.62012
33.1200 33.1244 2530.0 0.000395 2041.28577 2556.67383
33.1300 33.1344 2498.4 0.000400 2041.52112 2529.30469
33.1400 33.1444 2455.6 0.000407 2041.75098 2499.98120
33.1500 33.1544 2431.5 0.000411 2041.97473 2472.62427
33.1600 33.1644 2404.3 0.000416 2042.19141 2446.32349
33.1700 33.1744 2369.7 0.000422 2042.40271 2421.47339
33.1800 33.1844 2341.2 0.000427 2042.60669 2398.40308
33.1900 33.1944 2332.6 0.000429 2042.80469 2377.30591
33.2000 33.2044 2319.7 0.000431 2042.99536 2358.28833
33.2100 33.2144 2281.2 0.000438 2043.17920 2341.39233
33.2200 33.2244 2290.5 0.000437 2043.35583 2326.62012
33.2300 33.2344 2279.1 0.000439 2043.52588 2313.93701
33.2400 33.2444 2253.5 0.000444 2043.68835 2303.28760
33.2500 33.2544 2254.5 0.000444 2043.84326 2294.60938
33.2600 33.2644 2252.7 0.000444 2043.99121 2287.83057
33.2700 33.2744 2242.4 0.000446 2044.13123 2282.88550
33.2800 33.2844 2244.2 0.000446 2044.26392 2279.71362
33.2900 33.2944 2235.9 0.000447 2044.38831 2278.27051
33.3000 33.3044 2233.2 0.000448 2044.50500 2278.52637
33.3100 33.3144 2244.8 0.000445 2044.61328 2280.47144
33.3200 33.3244 2246.3 0.000445 2044.71460 2284.12012
33.3300 33.3344 2249.2 0.000445 2044.80676 2289.51123
33.3400 33.3444 2251.6 0.000444 2044.89099 2296.70581
33.3500 33.3544 2261.1 0.000442 2044.96680 2305.79321
33.3600 33.3644 2277.9 0.000439 2045.03357 2316.88428
33.3700 33.3744 2271.5 0.000440 2045.09241 2330.11279
33.3800 33.3844 2306.8 0.000433 2045.14246 2345.63135
33.3900 33.3944 2320.4 0.000431 2045.18335 2363.61694
33.4000 33.4044 2322.6 0.000431 2045.21594 2384.24902
33.4100 33.4144 2353.7 0.000425 2045.23901 2407.67822
33.4200 33.4244 2380.7 0.000420 2045.25330 2434.09790
33.4300 33.4344 2406.2 0.000416 2045.25781 2463.65845
33.4400 33.4444 2439.8 0.000410 2045.25342 2496.48462
33.4500 33.4544 2470.3 0.000405 2045.23962 2532.64453
33.4600 33.4644 2515.9 0.000397 2045.21631 2572.39722
33.4700 33.4744 2554.7 0.000391 2045.18335 2615.10620
33.4800 33.4844 2599.1 0.000385 2045.14075 2660.80151
33.4900 33.4944 2653.9 0.000377 2045.08789 2709.09546
33.5000 33.5044 2709.1 0.000369 2045.02600 2759.43286
33.5100 33.5144 2758.0 0.000363 2044.95325 2811.09009
33.5200 33.5244 2820.0 0.000355 2044.87134 2863.20776
33.5300 33.5344 2870.6 0.0003484 2044.77869 2914.83179
33.5400 33.5444 2928.8 0.0003414 2044.67603 2964.98071
33.5500 33.5544 2977.8 0.0003358 2044.56287 3012.68481
33.5600 33.5644 3030.2 0.0003300 2044.44006 3057.00342
33.5700 33.5744 3079.1 0.0003248 2044.30579 3096.98120
33.5800 33.5844 3125.0 0.0003200 2044.16150 3131.58960
33.5900 33.5944 3141.1 0.0003184 2044.00684 3159.66870
33.6000 33.6044 3172.3 0.0003152 2043.84119 3179.94434
33.6100 33.6144 3178.7 0.0003146 2043.66418 3191.14478
33.6200 33.6244 3170.6 0.0003154 2043.47705 3192.21704
33.6300 33.6344 3156.0 0.0003169 2043.27820 3182.57397
33.6400 33.6444 3120.4 0.0003205 2043.06958 3162.18848
33.6500 33.6544 3082.5 0.0003244 2042.84888 3132.12476
33.6600 33.6644 3046.3 0.0003283 2042.61707 3093.70435
33.6700 33.6744 2991.2 0.0003343 2042.37439 3048.83716
33.6800 33.6844 2936.7 0.0003405 2042.12048 2999.92188
33.6900 33.6944 2884.3 0.0003467 2041.85437 2948.86450
33.7000 33.7044 2830.4 0.000353 2041.57751 2897.50903
33.7100 33.7144 2766.8 0.000361 2041.28918 2847.36792
33.7200 33.7244 2748.9 0.000364 2040.98865 2799.66162
33.7300 33.7344 2698.9 0.000371 2040.67725 2755.15356
33.7400 33.7444 2661.1 0.000376 2040.35364 2714.46753
33.7500 33.7544 2643.5 0.000378 2040.01843 2677.39111
33.7600 33.7644 2632.9 0.000380 2039.67175 2645.23511
33.7700 33.7744 2599.7 0.000385 2039.31213 2617.45850
33.7800 33.7844 2594.9 0.000385 2038.94165 2593.97168
33.7900 33.7944 2597.8 0.000385 2038.55859 2574.58374
33.8000 33.8044 2597.6 0.000385 2038.16394 2559.01318
33.8100 33.8144 2581.4 0.000387 2037.75647 2546.89087
33.8200 33.8244 2594.7 0.000385 2037.33728 2537.77026
33.8300 33.8344 2602.5 0.000384 2036.90540 2531.13086
33.8400 33.8444 2585.0 0.000387 2036.46204 2526.40088
33.8500 33.8544 2594.4 0.000385 2036.00598 2522.98804
33.8600 33.8644 2575.5 0.000388 2035.53760 2520.33447
33.8700 33.8744 2565.9 0.000390 2035.05725 2517.97021
33.8800 33.8844 2568.6 0.000389 2034.56384 2515.67334
33.8900 33.8944 2544.8 0.000393 2034.05786 2513.15234
33.9000 33.9044 2530.6 0.000395 2033.54004 2510.59424
33.9100 33.9144 2527.5 0.000396 2033.00903 2508.30298
33.9200 33.9244 2510.5 0.000398 2032.46582 2506.66479
33.9300 33.9344 2498.4 0.000400 2031.90979 2506.20508
33.9400 33.9444 2503.7 0.000399 2031.34094 2507.44800
33.9500 33.9544 2504.0 0.000399 2030.75928 2510.90015
33.9600 33.9644 2496.1 0.000401 2030.16553 2517.06372
33.9700 33.9744 2517.1 0.000397 2029.55835 2526.27075
33.9800 33.9844 2523.7 0.000396 2028.93884 2538.90601
33.9900 33.9944 2532.4 0.000395 2028.30627 2555.25854
34.0000 34.0044 2557.4 0.000391 2027.66089 2575.55322
34.0100 34.0144 2576.8 0.000388 2027.00281 2599.94287
34.0200 34.0244 2609.6 0.000383 2026.33130 2628.50391
34.0300 34.0344 2631.6 0.000380 2025.64771 2661.21753
34.0400 34.0444 2682.4 0.000373 2024.95044 2698.70630
34.0500 34.0544 2715.2 0.000368 2024.24060 2739.21240
34.0600 34.0644 2743.0 0.000365 2023.51770 2783.09082
34.0700 34.0744 2798.9 0.000357 2022.78174 2829.81104
34.0800 34.0844 2844.0 0.000352 2022.03271 2878.70679
34.0900 34.0944 2878.6 0.0003474 2021.27148 2929.00146
34.1000 34.1044 2940.0 0.0003401 2020.49634 2979.80762
34.1100 34.1144 2972.2 0.0003365 2019.70801 3030.13550
34.1200 34.1244 3013.7 0.0003318 2018.90759 3078.86279
34.1300 34.1344 3061.5 0.0003266 2018.09351 3124.68530
34.1400 34.1444 3096.3 0.0003230 2017.26636 3166.09497
34.1500 34.1544 3104.4 0.0003221 2016.42615 3201.37158
34.1600 34.1644 3129.9 0.0003195 2015.57361 3228.68213
34.1700 34.1744 3141.7 0.0003183 2014.70764 3246.27026
34.1800 34.1844 3115.9 0.0003209 2013.82764 3252.70581
34.1900 34.1944 3129.8 0.0003195 2012.93616 3247.15308
34.2000 34.2044 3098.3 0.0003228 2012.03101 3229.56152
34.2100 34.2144 3053.3 0.0003275 2011.11267 3200.71436
34.2200 34.2244 3027.5 0.0003303 2010.18115 3162.12476
34.2300 34.2344 2987.8 0.0003347 2009.23755 3115.81616
34.2400 34.2444 2931.4 0.0003411 2008.27979 3064.02539
34.2500 34.2544 2900.2 0.0003448 2007.31006 3009.05420
34.2600 34.2644 2862.3 0.0003494 2006.32690 2952.94727
34.2700 34.2744 2810.0 0.000356 2005.33069 2897.37988
34.2800 34.2844 2778.6 0.000360 2004.32190 2843.73608
34.2900 34.2944 2754.6 0.000363 2003.30017 2793.08643
34.3000 34.3044 2717.6 0.000368 2002.26526 2746.13135
34.3100 34.3144 2694.1 0.000371 2001.21777 2703.50098
34.3200 34.3244 2676.7 0.000374 2000.15710 2665.09351
34.3300 34.3344 2662.4 0.000376 1999.08435 2629.85474
34.3400 34.3444 2655.0 0.000377 1997.99854 2600.26489
34.3500 34.3544 2661.8 0.000376 1996.89978 2574.80176
34.3600 34.3644 2650.0 0.000377 1995.78784 2553.10693
34.3700 34.3744 2631.9 0.000380 1994.66418 2534.71216
34.3800 34.3844 2638.7 0.000379 1993.52710 2519.04175
34.3900 34.3944 2629.9 0.000380 1992.37805 2505.44019
34.4000 34.4044 2605.8 0.000384 1991.21606 2493.20166
34.4100 34.4144 2608.1 0.000383 1990.04199 2481.63232
34.4200 34.4244 2590.2 0.000386 1988.85559 2470.10742
34.4300 34.4344 2555.0 0.000391 1987.65576 2458.14771
34.4400 34.4444 2539.3 0.000394 1986.44446 2445.47168
34.4500 34.4544 2513.9 0.000398 1985.22021 2432.01221
34.4600 34.4644 2471.4 0.000405 1983.98413 2417.90527
34.4700 34.4744 2446.1 0.000409 1982.73523 2403.45483
34.4800 34.4844 2432.8 0.000411 1981.47449 2389.00269
34.4900 34.4944 2388.2 0.000419 1980.20081 2375.02393
34.5000 34.5044 2382.9 0.000420 1978.91626 2361.78760
34.5100 34.5144 2351.2 0.000425 1977.61914 2349.67285
34.5200 34.5244 2329.8 0.000429 1976.30945 2338.94458
34.5300 34.5344 2322.0 0.000431 1974.98926 2329.79077
34.5400 34.5444 2309.1 0.000433 1973.65564 2322.50513
34.5500 34.5544 2283.6 0.000438 1972.31152 2316.81250
34.5600 34.5644 2280.1 0.000439 1970.95435 2312.97339
34.5700 34.5744 2276.0 0.000439 1969.58643 2310.76025
34.5800 34.5844 2252.7 0.000444 1968.20605 2310.14404
34.5900 34.5944 2257.9 0.000443 1966.81506 2310.94580
34.6000 34.6044 2264.1 0.000442 1965.41248 2312.91187
34.6100 34.6144 2238.4 0.000447 1963.99792 2315.70386
34.6200 34.6244 2240.9 0.000446 1962.57214 2318.90137
34.6300 34.6344 2246.4 0.000445 1961.13489 2322.00171
34.6400 34.6444 2229.9 0.000448 1959.68750 2324.44678
34.6500 34.6544 2238.9 0.000447 1958.22754 2325.65625
34.6600 34.6644 2241.5 0.000446 1956.75720 2325.09790
34.6700 34.6744 2220.5 0.000450 1955.27588 2322.34131
34.6800 34.6844 2226.2 0.000449 1953.78345 2317.13525
34.6900 34.6944 2218.2 0.000451 1952.28015 2309.43530
34.7000 34.7044 2205.1 0.000453 1950.76624 2299.40942
34.7100 34.7144 2198.6 0.000455 1949.24158 2287.39819
34.7200 34.7244 2188.8 0.000457 1947.70630 2273.84961
34.7300 34.7344 2192.6 0.000456 1946.16101 2259.26172
34.7400 34.7444 2161.5 0.000463 1944.60400 2244.11328
34.7500 34.7544 2173.3 0.000460 1943.03809 2228.83521
34.7600 34.7644 2161.0 0.000463 1941.46143 2213.85303
34.7700 34.7744 2145.5 0.000466 1939.87415 2199.30151
34.7800 34.7844 2147.6 0.000466 1938.27771 2185.46069
34.7900 34.7944 2143.7 0.000466 1936.67004 2172.47607
34.8000 34.8044 2117.2 0.000472 1935.05310 2160.44556
34.8100 34.8144 2131.7 0.000469 1933.42639 2149.56372
34.8200 34.8244 2128.5 0.000470 1931.79041 2139.59009
34.8300 34.8344 2115.4 0.000473 1930.14380 2130.66748
34.8400 34.8444 2119.7 0.000472 1928.48828 2122.78320
34.8500 34.8544 2124.1 0.000471 1926.82385 2115.77808
34.8600 34.8644 2122.0 0.000471 1925.14893 2109.89844
34.8700 34.8744 2125.3 0.000471 1923.46582 2104.96436
34.8800 34.8844 2133.5 0.000469 1921.77246 2100.93018
34.8900 34.8944 2119.8 0.000472 1920.07104 2097.74438
34.9000 34.9044 2147.2 0.000466 1918.35950 2095.35229
34.9100 34.9144 2141.7 0.000467 1916.64063 2093.69946
34.9200 34.9244 2133.8 0.000469 1914.91248 2092.72339
34.9300 34.9344 2151.8 0.000465 1913.17554 2092.36841
34.9400 34.9444 2157.2 0.000464 1911.43018 2092.58032
34.9500 34.9544 2136.5 0.000468 1909.67566 2093.31421
34.9600 34.9644 2156.7 0.000464 1907.91406 2094.54614
34.9700 34.9744 2163.6 0.000462 1906.14331 2096.27344
34.9800 34.9844 2160.5 0.000463 1904.36523 2098.53296
34.9900 34.9944 2159.9 0.000463 1902.57837 2101.44360
35.0000 35.0044 2177.0 0.000459 1900.78442 2105.01440
35.0100 35.0144 2155.8 0.000464 1898.98267 2109.43970
35.0200 35.0244 2182.8 0.000458 1897.17224 2114.88794
35.0300 35.0344 2186.6 0.000457 1895.35522 2121.54956
35.0400 35.0444 2171.7 0.000460 1893.52991 2129.62671
35.0500 35.0544 2201.9 0.000454 1891.69836 2139.33105
35.0600 35.0644 2218.0 0.000451 1889.85852 2150.98730
35.0700 35.0744 2206.1 0.000453 1888.01233 2164.57715
35.0800 35.0844 2246.6 0.000445 1886.15833 2180.42212
35.0900 35.0944 2267.5 0.000441 1884.29858 2198.71802
35.1000 35.1044 2263.1 0.000442 1882.43164 2219.64795
35.1100 35.1144 2314.5 0.000432 1880.55725 2243.37598
35.1200 35.1244 2348.6 0.000426 1878.67712 2270.03540
35.1300 35.1344 2359.3 0.000424 1876.79016 2299.72534
35.1400 35.1444 2415.6 0.000414 1874.89771 2332.49048
35.1500 35.1544 2452.0 0.000408 1872.99780 2368.31177
35.1600 35.1644 2483.8 0.000403 1871.09277 2407.07788
35.1700 35.1744 2553.4 0.000392 1869.18225 2448.56421
35.1800 35.1844 2589.4 0.000386 1867.26440 2492.39893
35.1900 35.1944 2631.9 0.000380 1865.34167 2538.02368
35.2000 35.2044 2697.9 0.000371 1863.41309 2584.65234
35.2100 35.2144 2754.8 0.000363 1861.47937 2631.23608
35.2200 35.2244 2777.8 0.000360 1859.53967 2676.44214
35.2300 35.2344 2837.6 0.000352 1857.59558 2717.82324
35.2400 35.2444 2871.7 0.0003482 1855.64539 2755.25952
35.2500 35.2544 2873.2 0.0003480 1853.69104 2786.00952
35.2600 35.2644 2890.0 0.0003460 1851.73193 2808.35205
35.2700 35.2744 2902.2 0.0003446 1849.76733 2820.70898
35.2800 35.2844 2876.5 0.0003476 1847.79858 2822.23047
35.2900 35.2944 2863.7 0.0003492 1845.82458 2812.68335
35.3000 35.3044 2817.6 0.000355 1843.84692 2792.55591
35.3100 35.3144 2777.0 0.000360 1841.86426 2762.96875
35.3200 35.3244 2739.8 0.000365 1839.87793 2725.50586
35.3300 35.3344 2689.9 0.000372 1837.88696 2681.99536
35.3400 35.3444 2627.6 0.000381 1835.89270 2634.30225
35.3500 35.3544 2586.8 0.000387 1833.89539 2584.16284
35.3600 35.3644 2539.0 0.000394 1831.89246 2533.08740
35.3700 35.3744 2478.5 0.000403 1829.88733 2482.30737
35.3800 35.3844 2444.0 0.000409 1827.87781 2432.78296
35.3900 35.3944 2398.3 0.000417 1825.86584 2385.22095
35.4000 35.4044 2357.0 0.000424 1823.84949 2340.11450
35.4100 35.4144 2311.8 0.000433 1821.83142 2297.79053
35.4200 35.4244 2289.6 0.000437 1819.80994 2258.43481
35.4300 35.4344 2253.0 0.000444 1817.78418 2222.13037
35.4400 35.4444 2224.2 0.000450 1815.75757 2188.88525
35.4500 35.4544 2199.8 0.000455 1813.72693 2158.64502
35.4600 35.4644 2178.9 0.000459 1811.69458 2131.32104
35.4700 35.4744 2156.9 0.000464 1809.65906 2106.77490
35.4800 35.4844 2134.8 0.000468 1807.62183 2084.93823
35.4900 35.4944 2118.0 0.000472 1805.58191 2065.55444
35.5000 35.5044 2103.5 0.000475 1803.54114 2048.45483
35.5100 35.5144 2096.2 0.000477 1801.49731 2033.52161
35.5200 35.5244 2072.7 0.000482 1799.45129 2020.29138
35.5300 35.5344 2063.5 0.000485 1797.40430 2009.23755
35.5400 35.5444 2067.3 0.000484 1795.35510 1999.91528
35.5500 35.5544 2046.3 0.000489 1793.30469 1992.20850
35.5600 35.5644 2030.4 0.000493 1791.25269 1986.00696
35.5700 35.5744 2037.9 0.000491 1789.20007 1981.22009
35.5800 35.5844 2019.8 0.000495 1787.14526 1977.76367
35.5900 35.5944 2010.2 0.000497 1785.08997 1975.56787
35.6000 35.6044 2017.4 0.000496 1783.03406 1974.56580
35.6100 35.6144 2001.2 0.000500 1780.97644 1974.69836
35.6200 35.6244 2006.4 0.000498 1778.91895 1975.90894
35.6300 35.6344 2001.1 0.000500 1776.85986 1978.13159
35.6400 35.6444 1993.8 0.000502 1774.80103 1981.29614
35.6500 35.6544 1995.0 0.000501 1772.74072 1985.31506
35.6600 35.6644 2002.5 0.000499 1770.68091 1990.07837
35.6700 35.6744 1993.4 0.000502 1768.62134 1995.44531
35.6800 35.6844 1987.6 0.000503 1766.56042 2001.23218
35.6900 35.6944 1992.4 0.000502 1764.50000 2007.21484
35.7000 35.7044 1998.4 0.000500 1762.43921 2013.11304
35.7100 35.7144 1985.8 0.000504 1760.37915 2018.60229
35.7200 35.7244 1999.3 0.000500 1758.31885 2023.31995
35.7300 35.7344 1992.9 0.000502 1756.25952 2026.89478
35.7400 35.7444 1995.4 0.000501 1754.20020 2028.97742
35.7500 35.7544 2001.9 0.000500 1752.14160 2029.29175
35.7600 35.7644 1983.9 0.000504 1750.08386 2027.66589
35.7700 35.7744 1980.6 0.000505 1748.02625 2024.07483
35.7800 35.7844 1990.3 0.000502 1745.97009 2018.63818
35.7900 35.7944 1963.1 0.000509 1743.91431 2011.60767
35.8000 35.8044 1966.9 0.000508 1741.85986 2003.25574
35.8100 35.8144 1967.8 0.000508 1739.80579 1994.13318
35.8200 35.8244 1949.9 0.000513 1737.75415 1984.56653
35.8300 35.8344 1947.6 0.000513 1735.70264 1974.93066
35.8400 35.8444 1938.3 0.000516 1733.65308 1965.55652
35.8500 35.8544 1925.8 0.000519 1731.60510 1956.71729
35.8600 35.8644 1931.9 0.000518 1729.55798 1948.63098
35.8700 35.8744 1932.0 0.000518 1727.51294 1941.46802
35.8800 35.8844 1908.5 0.000524 1725.46912 1935.35327
35.8900 35.8944 1931.1 0.000518 1723.42798 1930.37891
35.9000 35.9044 1921.7 0.000520 1721.38745 1926.60254
35.9100 35.9144 1919.1 0.000521 1719.34924 1924.09106
35.9200 35.9244 1925.5 0.000519 1717.31384 1922.78735
35.9300 35.9344 1929.4 0.000518 1715.27954 1922.70789
35.9400 35.9444 1929.1 0.000518 1713.24780 1923.81384
35.9500 35.9544 1933.1 0.000517 1711.21777 1926.03479
35.9600 35.9644 1949.6 0.000513 1709.19055 1929.27393
35.9700 35.9744 1948.5 0.000513 1707.16479 1933.39246
35.9800 35.9844 1952.6 0.000512 1705.14294 1938.21838
35.9900 35.9944 1974.8 0.000506 1703.12183 1943.52625
36.0000 36.0044 1952.7 0.000512 1701.10449 1949.05908
36.0100 36.0144 1965.3 0.000509 1699.08972 1954.59485
36.0200 36.0244 1975.8 0.000506 1697.07715 1959.59558
36.0300 36.0344 1958.5 0.000511 1695.06799 1963.91382
36.0400 36.0444 1964.3 0.000509 1693.06018 1967.18408
36.0500 36.0544 1966.8 0.000508 1691.05640 1969.14172
36.0600 36.0644 1944.1 0.000514 1689.05457 1969.58533
36.0700 36.0744 1947.5 0.000513 1687.05664 1967.91321
36.0800 36.0844 1950.4 0.000513 1685.06079 1965.10657
36.0900 36.0944 1918.3 0.000521 1683.06909 1960.76587
36.1000 36.1044 1927.5 0.000519 1681.07983 1955.08533
36.1100 36.1144 1924.2 0.000520 1679.09338 1948.34131
36.1200 36.1244 1893.6 0.000528 1677.11060 1940.87012
36.1300 36.1344 1902.3 0.000526 1675.13074 1933.02844
36.1400 36.1444 1897.8 0.000527 1673.15466 1925.17712
36.1500 36.1544 1867.7 0.000535 1671.18091 1917.64502
36.1600 36.1644 1880.6 0.000532 1669.21130 1910.72168
36.1700 36.1744 1876.7 0.000533 1667.24548 1904.64819
36.1800 36.1844 1849.2 0.000541 1665.28186 1899.61267
36.1900 36.1944 1854.1 0.000539 1663.32275 1895.76160
36.2000 36.2044 1862.6 0.000537 1661.36621 1893.19214
36.2100 36.2144 1835.7 0.000545 1659.41394 1891.96594
36.2200 36.2244 1856.4 0.000539 1657.46460 1892.10571
36.2300 36.2344 1862.1 0.000537 1655.51941 1893.59912
36.2400 36.2444 1843.0 0.000543 1653.57776 1896.39661
36.2500 36.2544 1870.6 0.000535 1651.63977 1900.40295
36.2600 36.2644 1887.2 0.000530 1649.70544 1905.48047
36.2700 36.2744 1869.2 0.000535 1647.77429 1911.46362
36.2800 36.2844 1914.4 0.000522 1645.84766 1918.02942
36.2900 36.2944 1947.8 0.000513 1643.92407 1924.87695
36.3000 36.3044 1933.6 0.000517 1642.00464 1931.60901
36.3100 36.3144 1988.3 0.000503 1640.08862 1937.76123
36.3200 36.3244 2005.0 0.000499 1638.17664 1942.83459
36.3300 36.3344 1994.5 0.000501 1636.26819 1946.33008
36.3400 36.3444 2031.7 0.000492 1634.36401 1947.80603
36.3500 36.3544 2038.7 0.000490 1632.46387 1946.93274
36.3600 36.3644 2004.2 0.000499 1630.56616 1943.54077
36.3700 36.3744 2023.3 0.000494 1628.67371 1937.64978
36.3800 36.3844 2012.1 0.000497 1626.78394 1929.45679
36.3900 36.3944 1965.1 0.000509 1624.89929 1919.35388
36.4000 36.4044 1960.8 0.000510 1623.01782 1907.67456
36.4100 36.4144 1938.0 0.000516 1621.13989 1894.93323
36.4200 36.4244 1886.9 0.000530 1619.26660 1881.57849
36.4300 36.4344 1884.3 0.000531 1617.39673 1868.01001
36.4400 36.4444 1851.8 0.000540 1615.53064 1854.61475
36.4500 36.4544 1814.6 0.000551 1613.66809 1841.54590
36.4600 36.4644 1819.9 0.000549 1611.81018 1829.05176
36.4700 36.4744 1791.1 0.000558 1609.95532 1817.26648
36.4800 36.4844 1777.7 0.000563 1608.10449 1806.27417
36.4900 36.4944 1790.7 0.000558 1606.25708 1796.11597
36.5000 36.5044 1761.5 0.000568 1604.41431 1786.80115
36.5100 36.5144 1748.1 0.000572 1602.57507 1778.30811
36.5200 36.5244 1758.5 0.000569 1600.73901 1770.59473
36.5300 36.5344 1747.0 0.000572 1598.90771 1763.60681
36.5400 36.5444 1737.3 0.000576 1597.07898 1757.27893
36.5500 36.5544 1746.2 0.000573 1595.25488 1751.55042
36.5600 36.5644 1722.0 0.000581 1593.43347 1746.36707
36.5700 36.5744 1719.2 0.000582 1591.61682 1741.69617
36.5800 36.5844 1727.3 0.000579 1589.80298 1737.52026
36.5900 36.5944 1702.8 0.000587 1587.99353 1733.84912
36.6000 36.6044 1704.8 0.000587 1586.18774 1730.71265
36.6100 36.6144 1713.1 0.000584 1584.38464 1728.15259
36.6200 36.6244 1694.1 0.000590 1582.58582 1726.22449
36.6300 36.6344 1693.1 0.000591 1580.78979 1724.98413
36.6400 36.6444 1700.8 0.000588 1578.99817 1724.49072
36.6500 36.6544 1669.7 0.000599 1577.20911 1724.79907
36.6600 36.6644 1691.8 0.000591 1575.42383 1725.96082
36.6700 36.6744 1698.1 0.000589 1573.64209 1728.02051
36.6800 36.6844 1681.2 0.000595 1571.86353 1731.01758
36.6900 36.6944 1691.8 0.000591 1570.08826 1734.98450
36.7000 36.7044 1708.3 0.000585 1568.31616 1739.94434
36.7100 36.7144 1687.4 0.000593 1566.54749 1746.03772
36.7200 36.7244 1710.3 0.000585 1564.78198 1753.00244
36.7300 36.7344 1716.9 0.000582 1563.01953 1760.94727
36.7400 36.7444 1697.2 0.000589 1561.26001 1769.82690
36.7500 36.7544 1742.2 0.000574 1559.50403 1779.59131
36.7600 36.7644 1760.1 0.000568 1557.75134 1790.09277
36.7700 36.7744 1742.5 0.000574 1556.00073 1801.20886
36.7800 36.7844 1793.1 0.000558 1554.25366 1812.75317
36.7900 36.7944 1819.6 0.000550 1552.50928 1824.48877
36.8000 36.8044 1828.6 0.000547 1550.76807 1836.12573
36.8100 36.8144 1872.4 0.000534 1549.02881 1847.31787
36.8200 36.8244 1897.9 0.000527 1547.29297 1857.66699
36.8300 36.8344 1904.5 0.000525 1545.55957 1866.72583
36.8400 36.8444 1962.3 0.000510 1543.82910 1874.03015
36.8500 36.8544 1958.9 0.000510 1542.10156 1879.12988
36.8600 36.8644 1964.9 0.000509 1540.37573 1881.63928
36.8700 36.8744 1997.4 0.000501 1538.65283 1881.30225
36.8800 36.8844 1974.6 0.000506 1536.93176 1878.00952
36.8900 36.8944 1953.5 0.000512 1535.21411 1871.86023
36.9000 36.9044 1960.4 0.000510 1533.49780 1863.12048
36.9100 36.9144 1918.5 0.000521 1531.78455 1852.20203
36.9200 36.9244 1900.4 0.000526 1530.07336 1839.67078
36.9300 36.9344 1889.9 0.000529 1528.36353 1825.91187
36.9400 36.9444 1831.8 0.000546 1526.65698 1811.49963
36.9500 36.9544 1811.1 0.000552 1524.95178 1796.63293
36.9600 36.9644 1799.6 0.000556 1523.24890 1782.18445
36.9700 36.9744 1756.3 0.000569 1521.54761 1768.20288
36.9800 36.9844 1751.8 0.000571 1519.84839 1754.91797
36.9900 36.9944 1730.1 0.000578 1518.15076 1742.59546
37.0000 37.0044 1693.7 0.000590 1516.45520 1731.14233
37.0100 37.0144 1698.5 0.000589 1514.76184 1720.72949
37.0200 37.0244 1695.5 0.000590 1513.06909 1711.38721
37.0300 37.0344 1663.1 0.000601 1511.37878 1702.41553
37.0400 37.0444 1673.2 0.000598 1509.68884 1695.20056
37.0500 37.0544 1671.7 0.000598 1508.00146 1688.98816
37.0600 37.0644 1646.2 0.000607 1506.31445 1683.70898
37.0700 37.0744 1657.8 0.000603 1504.63000 1679.27856
37.0800 37.0844 1656.8 0.000604 1502.94580 1675.59216
37.0900 37.0944 1637.3 0.000611 1501.26367 1672.53992
37.1000 37.1044 1653.8 0.000605 1499.58276 1670.00720
37.1100 37.1144 1648.6 0.000607 1497.90210 1667.88574
37.1200 37.1244 1634.6 0.000612 1496.22351 1666.08655
37.1300 37.1344 1648.6 0.000607 1494.54443 1664.54529
37.1400 37.1444 1639.5 0.000610 1492.86755 1663.22595
37.1500 37.1544 1633.6 0.000612 1491.19104 1662.12451
37.1600 37.1644 1654.5 0.000604 1489.51575 1661.25610
37.1700 37.1744 1635.7 0.000611 1487.84119 1660.64856
37.1800 37.1844 1634.6 0.000612 1486.16663 1660.33069
37.1900 37.1944 1656.5 0.000604 1484.49353 1660.32056
37.2000 37.2044 1636.3 0.000611 1482.82043 1660.61169
37.2100 37.2144 1635.5 0.000611 1481.14819 1661.17188
37.2200 37.2244 1657.0 0.000603 1479.47595 1661.93176
37.2300 37.2344 1634.0 0.000612 1477.80493 1662.79382
37.2400 37.2444 1651.5 0.000605 1476.13330 1663.62048
37.2500 37.2544 1664.1 0.000601 1474.46301 1664.24963
37.2600 37.2644 1633.1 0.000612 1472.79260 1664.50122
37.2700 37.2744 1653.1 0.000605 1471.12195 1664.19885
37.2800 37.2844 1640.8 0.000609 1469.45215 1663.03223
37.2900 37.2944 1629.8 0.000614 1467.78125 1661.19507
37.3000 37.3044 1636.7 0.000611 1466.11194 1658.47388
37.3100 37.3144 1634.4 0.000612 1464.44177 1654.87646
37.3200 37.3244 1610.2 0.000621 1462.77161 1650.47156
37.3300 37.3344 1626.4 0.000615 1461.10132 1645.37854
37.3400 37.3444 1611.5 0.000621 1459.43115 1639.75391
37.3500 37.3544 1599.5 0.000625 1457.76086 1633.76733
37.3600 37.3644 1612.5 0.000620 1456.08948 1627.59045
37.3700 37.3744 1590.5 0.000629 1454.41895 1621.38306
37.3800 37.3844 1577.4 0.000634 1452.74707 1615.28259
37.3900 37.3944 1596.5 0.000626 1451.07593 1609.40613
37.4000 37.4044 1574.3 0.000635 1449.40320 1604.00293
37.4100 37.4144 1575.5 0.000635 1447.73083 1598.83044
37.4200 37.4244 1596.6 0.000626 1446.05811 1594.09998
37.4300 37.4344 1561.1 0.000641 1444.38416 1589.84924
37.4400 37.4444 1564.7 0.000639 1442.71057 1586.28259
37.4500 37.4544 1583.6 0.000631 1441.03528 1583.07520
37.4600 37.4644 1563.4 0.000640 1439.36047 1580.41821
37.4700 37.4744 1575.7 0.000635 1437.68396 1578.32239
37.4800 37.4844 1578.7 0.000633 1436.00745 1576.80396
37.4900 37.4944 1562.1 0.000640 1434.32996 1575.87646
37.5000 37.5044 1581.7 0.000632 1432.65173 1575.55811
37.5100 37.5144 1584.5 0.000631 1430.97339 1575.71399
37.5200 37.5244 1572.3 0.000636 1429.29333 1576.68311
37.5300 37.5344 1589.6 0.000629 1427.61292 1578.34705
37.5400 37.5444 1585.8 0.000631 1425.93140 1580.74402
37.5500 37.5544 1585.0 0.000631 1424.24976 1583.92834
37.5600 37.5644 1607.8 0.000622 1422.56604 1587.96033
37.5700 37.5744 1594.3 0.000627 1420.88269 1592.91492
37.5800 37.5844 1598.2 0.000626 1419.19751 1598.87488
37.5900 37.5944 1631.4 0.000613 1417.51196 1605.23352
37.6000 37.6044 1618.5 0.000618 1415.82568 1613.51038
37.6100 37.6144 1631.8 0.000613 1414.13782 1622.95251
37.6200 37.6244 1659.9 0.000602 1412.44971 1634.01917
37.6300 37.6344 1650.5 0.000606 1410.76013 1646.68066
37.6400 37.6444 1671.9 0.000598 1409.06970 1661.08337
37.6500 37.6544 1705.5 0.000586 1407.37805 1677.37341
37.6600 37.6644 1689.2 0.000592 1405.68628 1695.70190
37.6700 37.6744 1726.0 0.000579 1403.99329 1716.21008
37.6800 37.6844 1750.6 0.000571 1402.29907 1739.03345
37.6900 37.6944 1758.9 0.000569 1400.60388 1764.29309
37.7000 37.7044 1803.9 0.000554 1398.90808 1792.08496
37.7100 37.7144 1826.8 0.000547 1397.21179 1822.47449
37.7200 37.7244 1847.9 0.000541 1395.51331 1855.48767
37.7300 37.7344 1899.1 0.000527 1393.81506 1891.09509
37.7400 37.7444 1925.2 0.000519 1392.11511 1929.20007
37.7500 37.7544 1964.3 0.000509 1390.41504 1969.62646
37.7600 37.7644 2027.5 0.000493 1388.71472 2012.09436
37.7700 37.7744 2047.2 0.000488 1387.01233 2056.20557
37.7800 37.7844 2094.6 0.000477 1385.30957 2101.42090
37.7900 37.7944 2173.8 0.000460 1383.60571 2147.03638
37.8000 37.8044 2188.0 0.000457 1381.90259 2192.16284
37.8100 37.8144 2245.4 0.000445 1380.19739 2235.81787
37.8200 37.8244 2305.2 0.000434 1378.49231 2276.53540
37.8300 37.8344 2304.0 0.000434 1376.78601 2312.98901
37.8400 37.8444 2342.3 0.000427 1375.07996 2343.53979
37.8500 37.8544 2367.4 0.000422 1373.37317 2367.05225
37.8600 37.8644 2341.8 0.000427 1371.66516 2382.16333
37.8700 37.8744 2365.1 0.000423 1369.95776 2388.05566
37.8800 37.8844 2331.9 0.000429 1368.24915 2384.43433
37.8900 37.8944 2299.8 0.000435 1366.54053 2371.59961
37.9000 37.9044 2292.9 0.000436 1364.83142 2350.39917
37.9100 37.9144 2240.5 0.000446 1363.12280 2322.12158
37.9200 37.9244 2210.2 0.000452 1361.41382 2288.43115
37.9300 37.9344 2175.3 0.000460 1359.70435 2250.76416
37.9400 37.9444 2124.9 0.000471 1357.99524 2210.82007
37.9500 37.9544 2088.1 0.000479 1356.28613 2170.02637
37.9600 37.9644 2078.9 0.000481 1354.57739 2129.59351
37.9700 37.9744 2019.7 0.000495 1352.86780 2090.48975
37.9800 37.9844 1998.6 0.000500 1351.15991 2053.46216
37.9900 37.9944 1989.3 0.000503 1349.45105 2019.04883
38.0000 38.0044 1946.9 0.000514 1347.74341 1987.61719
38.0100 38.0144 1945.4 0.000514 1346.03638 1959.38672
38.0200 38.0244 1940.4 0.000515 1344.32947 1934.44922
38.0300 38.0344 1921.9 0.000520 1342.62329 1912.79468
38.0400 38.0444 1937.1 0.000516 1340.91760 1894.31482
38.0500 38.0544 1937.5 0.000516 1339.21350 1878.81921
38.0600 38.0644 1937.8 0.000516 1337.50952 1866.03479
38.0700 38.0744 1965.4 0.000509 1335.80774 1855.62183
38.0800 38.0844 1954.0 0.000512 1334.10620 1846.99316
38.0900 38.0944 1974.2 0.000507 1332.40588 1840.05249
38.1000 38.1044 2000.5 0.000500 1330.70764 1834.19202
38.1100 38.1144 1991.7 0.000502 1329.00977 1828.92712
38.1200 38.1244 1994.8 0.000501 1327.31421 1823.88086
38.1300 38.1344 2005.5 0.000499 1325.62000 1818.66528
38.1400 38.1444 1970.5 0.000507 1323.92773 1813.06519
38.1500 38.1544 1968.7 0.000508 1322.23694 1807.01917
38.1600 38.1644 1959.0 0.000510 1320.54846 1800.58777
38.1700 38.1744 1925.2 0.000519 1318.86255 1794.00122
38.1800 38.1844 1900.7 0.000526 1317.17798 1787.43604
38.1900 38.1944 1874.9 0.000533 1315.49646 1781.25635
38.2000 38.2044 1847.5 0.000541 1313.81689 1775.78271
38.2100 38.2144 1827.7 0.000547 1312.14038 1771.30945
38.2200 38.2244 1794.7 0.000557 1310.46582 1768.07104
38.2300 38.2344 1771.8 0.000564 1308.79529 1766.23499
38.2400 38.2444 1776.3 0.000563 1307.12683 1765.88843
38.2500 38.2544 1745.9 0.000573 1305.46240 1767.03809
38.2600 38.2644 1739.1 0.000575 1303.80066 1769.61035
38.2700 38.2744 1741.6 0.000574 1302.14233 1773.45374
38.2800 38.2844 1718.1 0.000582 1300.48767 1778.38684
38.2900 38.2944 1741.7 0.000574 1298.83630 1784.03528
38.3000 38.3044 1735.5 0.000576 1297.18933 1790.09497
38.3100 38.3144 1734.5 0.000577 1295.54578 1796.17163
38.3200 38.3244 1748.2 0.000572 1293.90674 1801.94104
38.3300 38.3344 1741.2 0.000574 1292.27148 1806.78333
38.3400 38.3444 1743.3 0.000574 1290.64148 1810.30542
38.3500 38.3544 1749.4 0.000572 1289.01575 1812.12134
38.3600 38.3644 1743.2 0.000574 1287.39417 1811.87830
38.3700 38.3744 1736.5 0.000576 1285.77869 1809.32263
38.3800 38.3844 1737.6 0.000576 1284.16675 1804.30444
38.3900 38.3944 1720.5 0.000581 1282.56128 1796.90210
38.4000 38.4044 1711.9 0.000584 1280.95996 1787.36157
38.4100 38.4144 1703.6 0.000587 1279.36499 1775.86084
38.4200 38.4244 1682.8 0.000594 1277.77588 1762.92712
38.4300 38.4344 1685.7 0.000593 1276.19177 1749.07227
38.4400 38.4444 1668.4 0.000599 1274.61450 1734.82092
38.4500 38.4544 1659.3 0.000603 1273.04248 1720.67517
38.4600 38.4644 1652.4 0.000605 1271.47729 1707.08081
38.4700 38.4744 1640.2 0.000610 1269.91858 1694.40369
38.4800 38.4844 1629.0 0.000614 1268.36658 1682.93188
38.4900 38.4944 1641.3 0.000609 1266.82092 1672.86438
38.5000 38.5044 1637.9 0.000611 1265.28284 1664.32263
38.5100 38.5144 1632.9 0.000612 1263.75171 1657.35059
38.5200 38.5244 1655.1 0.000604 1262.22766 1651.92017
38.5300 38.5344 1637.3 0.000611 1260.71167 1647.93408
38.5400 38.5444 1661.4 0.000602 1259.20264 1645.23010
38.5500 38.5544 1675.0 0.000597 1257.70178 1643.58154
38.5600 38.5644 1675.0 0.000597 1256.20886 1642.70715
38.5700 38.5744 1696.6 0.000589 1254.72437 1642.28052
38.5800 38.5844 1707.8 0.000586 1253.24768 1641.94336
38.5900 38.5944 1721.0 0.000581 1251.78040 1641.42529
38.6000 38.6044 1723.6 0.000580 1250.32153 1640.19116
38.6100 38.6144 1733.7 0.000577 1248.87097 1638.02979
38.6200 38.6244 1732.5 0.000577 1247.42981 1634.70959
38.6300 38.6344 1727.0 0.000579 1245.99768 1630.09692
38.6400 38.6444 1708.6 0.000585 1244.57483 1624.16150
38.6500 38.6544 1701.7 0.000588 1243.16150 1616.98413
38.6600 38.6644 1692.9 0.000591 1241.75830 1608.74585
38.6700 38.6744 1660.3 0.000602 1240.36438 1599.70972
38.6800 38.6844 1654.0 0.000605 1238.98071 1589.58728
38.6900 38.6944 1632.4 0.000613 1237.60767 1579.90393
38.7000 38.7044 1609.1 0.000621 1236.24475 1570.11621
38.7100 38.7144 1599.1 0.000625 1234.89197 1561.02026
38.7200 38.7244 1579.3 0.000633 1233.54980 1552.58765
38.7300 38.7344 1562.7 0.000640 1232.21912 1544.99463
38.7400 38.7444 1556.4 0.000643 1230.89893 1538.35681
38.7500 38.7544 1526.3 0.000655 1229.59033 1532.73352
38.7600 38.7644 1533.2 0.000652 1228.29333 1528.12842
38.7700 38.7744 1521.2 0.000657 1227.00696 1524.49487
38.7800 38.7844 1512.4 0.000661 1225.73303 1521.74048
38.7900 38.7944 1506.5 0.000664 1224.46985 1519.72852
38.8000 38.8044 1502.1 0.000666 1223.21973 1518.31885
38.8100 38.8144 1490.2 0.000671 1221.98096 1517.25745
38.8200 38.8244 1487.2 0.000672 1220.75500 1516.36267
38.8300 38.8344 1486.1 0.000673 1219.54077 1515.40869
38.8400 38.8444 1481.4 0.000675 1218.33997 1514.37244
38.8500 38.8544 1477.9 0.000677 1217.15149 1512.66736
38.8600 38.8644 1488.0 0.000672 1215.97522 1510.44019
38.8700 38.8744 1463.7 0.000683 1214.81250 1507.25830
38.8800 38.8844 1474.7 0.000678 1213.66272 1503.15747
38.8900 38.8944 1473.1 0.000679 1212.52600 1498.09399
38.9000 38.9044 1457.9 0.000686 1211.40271 1492.08752
38.9100 38.9144 1464.7 0.000683 1210.29297 1485.22876
38.9200 38.9244 1448.7 0.000690 1209.19702 1477.66797
38.9300 38.9344 1445.8 0.000692 1208.11438 1469.60205
38.9400 38.9444 1450.8 0.000689 1207.04590 1461.24976
38.9500 38.9544 1438.1 0.000695 1205.99097 1452.83215
38.9600 38.9644 1430.8 0.000699 1204.95044 1444.55322
38.9700 38.9744 1440.1 0.000694 1203.92371 1436.58789
38.9800 38.9844 1430.1 0.000699 1202.91125 1429.07471
38.9900 38.9944 1436.7 0.000696 1201.91321 1422.11108
39.0000 39.0044 1428.6 0.000700 1200.93005 1415.75537
39.0100 39.0144 1399.4 0.000715 1199.96106 1410.02747
39.0200 39.0244 1416.0 0.000706 1199.00671 1404.91138
39.0300 39.0344 1416.8 0.000706 1198.06702 1400.36169
39.0400 39.0444 1412.8 0.000708 1197.14209 1396.30273
39.0500 39.0544 1420.5 0.000704 1196.23242 1392.64197
39.0600 39.0644 1414.7 0.000707 1195.33704 1389.27539
39.0700 39.0744 1405.1 0.000712 1194.45703 1386.09998
39.0800 39.0844 1418.5 0.000705 1193.59204 1383.02551
39.0900 39.0944 1398.6 0.000715 1192.74255 1379.98877
39.1000 39.1044 1406.2 0.000711 1191.90771 1376.96033
39.1100 39.1144 1400.8 0.000714 1191.08801 1373.94873
39.1200 39.1244 1404.0 0.000712 1190.28406 1370.99731
39.1300 39.1344 1386.2 0.000721 1189.49475 1368.16431
39.1400 39.1444 1377.4 0.000726 1188.72144 1365.56079
39.1500 39.1544 1372.7 0.000728 1187.96301 1363.26367
39.1600 39.1644 1378.3 0.000726 1187.22021 1361.35681
39.1700 39.1744 1367.8 0.000731 1186.49304 1359.74207
39.1800 39.1844 1368.8 0.000731 1185.78101 1358.79785
39.1900 39.1944 1367.2 0.000731 1185.08459 1358.39429
39.2000 39.2044 1360.1 0.000735 1184.40283 1358.50647
39.2100 39.2144 1362.8 0.000734 1183.73718 1359.11731
39.2200 39.2244 1360.6 0.000735 1183.08679 1360.16919
39.2300 39.2344 1362.3 0.000734 1182.45178 1361.57153
39.2400 39.2444 1366.5 0.000732 1181.83203 1363.20593
39.2500 39.2544 1357.7 0.000737 1181.22803 1364.95605
39.2600 39.2644 1362.8 0.000734 1180.63879 1366.57373
39.2700 39.2744 1371.5 0.000729 1180.06494 1367.89380
39.2800 39.2844 1353.0 0.000739 1179.50610 1368.70886
39.2900 39.2944 1371.2 0.000729 1178.96277 1369.04590
39.3000 39.3044 1366.7 0.000732 1178.43445 1368.28992
39.3100 39.3144 1345.5 0.000743 1177.92126 1366.54211
39.3200 39.3244 1355.8 0.000738 1177.42297 1363.74915
39.3300 39.3344 1348.8 0.000741 1176.93958 1359.92371
39.3400 39.3444 1338.1 0.000747 1176.47119 1355.14624
39.3500 39.3544 1320.0 0.000758 1176.01697 1349.55298
39.3600 39.3644 1306.8 0.000765 1175.57800 1343.31335
39.3700 39.3744 1315.9 0.000760 1175.15308 1336.61304
39.3800 39.3844 1313.5 0.000761 1174.74231 1329.63623
39.3900 39.3944 1297.7 0.000771 1174.34668 1322.55237
39.4000 39.4044 1301.4 0.000768 1173.96436 1315.50500
39.4100 39.4144 1294.7 0.000772 1173.59668 1308.61682
39.4200 39.4244 1284.9 0.000778 1173.24292 1301.98071
39.4300 39.4344 1281.9 0.000780 1172.90234 1295.66931
39.4400 39.4444 1276.5 0.000783 1172.57544 1289.73438
39.4500 39.4544 1275.0 0.000784 1172.26221 1284.13110
39.4600 39.4644 1271.8 0.000786 1171.96216 1279.04980
39.4700 39.4744 1248.0 0.000801 1171.67554 1274.42200
39.4800 39.4844 1263.1 0.000792 1171.40161 1270.25403
39.4900 39.4944 1263.3 0.000792 1171.14050 1266.47034
39.5000 39.5044 1243.2 0.000804 1170.89185 1263.22839
39.5100 39.5144 1253.3 0.000798 1170.65552 1260.44629
39.5200 39.5244 1241.6 0.000805 1170.43140 1258.11560
39.5300 39.5344 1234.5 0.000810 1170.21887 1256.23157
39.5400 39.5444 1252.4 0.000798 1170.01855 1254.78638
39.5500 39.5544 1247.3 0.000802 1169.82935 1253.77332
39.5600 39.5644 1253.8 0.000798 1169.65173 1253.18604
39.5700 39.5744 1250.3 0.000800 1169.48511 1253.01819
39.5800 39.5844 1254.8 0.000797 1169.32947 1253.26416
39.5900 39.5944 1249.2 0.000800 1169.18347 1253.91846
39.6000 39.6044 1258.3 0.000795 1169.04846 1254.97473
39.6100 39.6144 1257.1 0.000795 1168.92334 1256.42944
39.6200 39.6244 1257.3 0.000795 1168.80786 1258.27356
39.6300 39.6344 1264.0 0.000791 1168.70166 1260.49927
39.6400 39.6444 1267.5 0.000789 1168.60486 1263.21252
39.6500 39.6544 1276.1 0.000784 1168.51709 1266.15979
39.6600 39.6644 1269.7 0.000788 1168.43811 1269.43677
39.6700 39.6744 1275.2 0.000784 1168.36658 1273.01233
39.6800 39.6844 1281.9 0.000780 1168.30383 1276.84937
39.6900 39.6944 1285.9 0.000778 1168.24780 1280.89746
39.7000 39.7044 1295.9 0.000772 1168.19995 1285.10168
39.7100 39.7144 1285.3 0.000778 1168.15881 1289.39905
39.7200 39.7244 1293.9 0.000773 1168.12427 1293.72119
39.7300 39.7344 1296.8 0.000771 1168.09607 1298.00073
39.7400 39.7444 1306.0 0.000766 1168.07410 1302.17517
39.7500 39.7544 1303.8 0.000767 1168.05750 1306.18542
39.7600 39.7644 1299.1 0.000770 1168.04639 1309.81348
39.7700 39.7744 1318.3 0.000759 1168.04028 1313.34167
39.7800 39.7844 1308.1 0.000764 1168.03870 1316.55444
39.7900 39.7944 1314.9 0.000761 1168.04089 1319.39587
39.8000 39.8044 1316.3 0.000760 1168.04724 1321.79968
39.8100 39.8144 1318.4 0.000758 1168.05725 1323.69214
39.8200 39.8244 1320.3 0.000757 1168.07031 1324.99670
39.8300 39.8344 1317.8 0.000759 1168.08569 1325.64380
39.8400 39.8444 1319.5 0.000758 1168.10364 1325.58423
39.8500 39.8544 1313.5 0.000761 1168.12292 1324.79639
39.8600 39.8644 1317.8 0.000759 1168.14429 1323.30457
39.8700 39.8744 1313.2 0.000761 1168.16711 1321.17090
39.8800 39.8844 1306.9 0.000765 1168.19043 1318.50049
39.8900 39.8944 1306.2 0.000766 1168.21387 1315.41760
39.9000 39.9044 1301.1 0.000769 1168.23706 1312.07031
39.9100 39.9144 1300.3 0.000769 1168.26001 1308.60205
39.9200 39.9244 1293.2 0.000773 1168.28186 1305.15210
39.9300 39.9344 1296.1 0.000772 1168.30249 1301.84351
39.9400 39.9444 1288.8 0.000776 1168.32153 1298.78040
39.9500 39.9544 1295.2 0.000772 1168.33813 1296.04578
39.9600 39.9644 1289.1 0.000776 1168.35254 1293.70789
39.9700 39.9744 1281.6 0.000780 1168.36353 1291.84302
39.9800 39.9844 1281.2 0.000781 1168.37146 1290.42871
39.9900 39.9944 1288.9 0.000776 1168.37512 1289.51135
40.0000 40.0044 1287.9 0.000776 1168.37500 1289.10266
40.0100 40.0144 1288.2 0.000776 1168.36987 1289.19751
40.0200 40.0244 1292.8 0.000774 1168.35999 1289.78381
40.0300 40.0344 1290.1 0.000775 1168.34412 1290.83691
40.0400 40.0444 1299.4 0.000770 1168.32275 1292.32190
40.0500 40.0544 1298.8 0.000770 1168.29468 1294.19531
40.0600 40.0644 1301.5 0.000768 1168.25989 1296.40430
40.0700 40.0744 1303.9 0.000767 1168.21851 1298.89246
40.0800 40.0844 1300.4 0.000769 1168.16858 1301.60010
40.0900 40.0944 1312.6 0.000762 1168.11145 1304.56213
40.1000 40.1044 1314.5 0.000761 1168.04541 1307.55615
40.1100 40.1144 1309.3 0.000764 1167.97070 1310.63416
40.1200 40.1244 1316.3 0.000760 1167.88696 1313.77527
40.1300 40.1344 1320.0 0.000758 1167.79358 1317.11572
40.1400 40.1444 1310.9 0.000763 1167.69043 1320.40320
40.1500 40.1544 1318.1 0.000759 1167.57642 1323.66748
40.1600 40.1644 1324.1 0.000755 1167.45215 1326.94519
40.1700 40.1744 1317.5 0.000759 1167.31665 1330.20251
40.1800 40.1844 1316.7 0.000760 1167.16943 1333.38818
40.1900 40.1944 1320.3 0.000757 1167.01062 1336.43188
40.2000 40.2044 1323.2 0.000756 1166.83948 1339.30640
40.2100 40.2144 1328.8 0.000753 1166.65576 1341.78479
40.2200 40.2244 1333.1 0.000750 1166.45947 1343.86536
40.2300 40.2344 1320.8 0.000757 1166.25000 1345.44641
40.2400 40.2444 1330.3 0.000752 1166.02661 1346.46289
40.2500 40.2544 1332.1 0.000751 1165.78931 1346.87280
40.2600 40.2644 1336.0 0.000749 1165.53821 1346.66968
40.2700 40.2744 1327.3 0.000753 1165.27319 1345.87708
40.2800 40.2844 1326.5 0.000754 1164.99231 1344.28857
40.2900 40.2944 1337.5 0.000748 1164.69739 1342.52722
40.3000 40.3044 1318.1 0.000759 1164.38647 1340.44299
40.3100 40.3144 1337.3 0.000748 1164.06055 1338.17004
40.3200 40.3244 1329.4 0.000752 1163.71875 1335.85364
40.3300 40.3344 1334.2 0.000750 1163.36096 1333.63684
40.3400 40.3444 1326.4 0.000754 1162.98694 1331.65894
40.3500 40.3544 1325.2 0.000755 1162.59705 1330.04236
40.3600 40.3644 1331.9 0.000751 1162.18982 1328.89319
40.3700 40.3744 1333.0 0.000750 1161.76624 1328.29785
40.3800 40.3844 1338.6 0.000747 1161.32556 1328.32422
40.3900 40.3944 1346.6 0.000743 1160.86816 1329.02002
40.4000 40.4044 1353.1 0.000739 1160.39331 1330.41284
40.4100 40.4144 1360.8 0.000735 1159.90173 1332.51648
40.4200 40.4244 1360.4 0.000735 1159.39197 1335.37000
40.4300 40.4344 1377.8 0.000726 1158.86536 1338.85046
40.4400 40.4444 1378.9 0.000725 1158.32080 1342.95740
40.4500 40.4544 1400.9 0.000714 1157.75916 1347.61926
40.4600 40.4644 1413.6 0.000707 1157.17981 1352.73706
40.4700 40.4744 1476.9 0.000677 1156.58228 1358.18201
40.4800 40.4844 1426.2 0.000701 1155.96765 1363.79834
40.4900 40.4944 1427.1 0.000701 1155.33582 1369.40234
40.5000 40.5044 1437.9 0.000695 1154.68640 1374.78931
40.5100 40.5144 1438.3 0.000695 1154.01941 1379.74438
40.5200 40.5244 1441.9 0.000694 1153.33496 1384.06226
40.5300 40.5344 1436.5 0.000696 1152.63354 1387.52087
40.5400 40.5444 1437.4 0.000696 1151.91479 1390.07556
40.5500 40.5544 1427.6 0.000700 1151.17981 1391.61426
40.5600 40.5644 1421.4 0.000704 1150.42737 1392.14746
40.5700 40.5744 1412.1 0.000708 1149.65833 1391.73438
40.5800 40.5844 1402.8 0.000713 1148.87354 1390.54773
40.5900 40.5944 1394.6 0.000717 1148.07251 1388.70679
40.6000 40.6044 1393.3 0.000718 1147.25562 1386.44604
40.6100 40.6144 1386.6 0.000721 1146.42346 1383.97668
40.6200 40.6244 1374.7 0.000727 1145.57593 1381.61719
40.6300 40.6344 1371.6 0.000729 1144.71350 1379.30774
40.6400 40.6444 1368.1 0.000731 1143.83691 1377.31152
40.6500 40.6544 1365.9 0.000732 1142.94617 1375.73523
40.6600 40.6644 1354.4 0.000738 1142.04187 1374.64600
40.6700 40.6744 1350.6 0.000740 1141.12488 1374.07324
40.6800 40.6844 1351.3 0.000740 1140.19434 1374.00488
40.6900 40.6944 1352.5 0.000739 1139.25244 1374.30518
40.7000 40.7044 1348.8 0.000741 1138.29797 1375.07007
40.7100 40.7144 1349.1 0.000741 1137.33301 1376.10156
40.7200 40.7244 1346.3 0.000743 1136.35742 1377.26611
40.7300 40.7344 1348.5 0.000742 1135.37195 1378.39612
40.7400 40.7444 1351.2 0.000740 1134.37695 1379.37378
40.7500 40.7544 1345.5 0.000743 1133.37354 1380.02759
40.7600 40.7644 1346.3 0.000743 1132.36243 1380.21094
40.7700 40.7744 1343.8 0.000744 1131.34375 1379.79297
40.7800 40.7844 1334.2 0.000750 1130.31873 1378.66272
40.7900 40.7944 1346.4 0.000743 1129.28760 1376.72546
40.8000 40.8044 1341.7 0.000745 1128.25220 1373.91760
40.8100 40.8144 1327.6 0.000753 1127.21216 1370.19958
40.8200 40.8244 1331.2 0.000751 1126.16919 1365.56726
40.8300 40.8344 1330.5 0.000752 1125.12378 1360.05859
40.8400 40.8444 1325.5 0.000754 1124.07715 1353.75415
40.8500 40.8544 1330.3 0.000752 1123.03040 1346.77209
40.8600 40.8644 1317.4 0.000759 1121.98291 1339.26245
40.8700 40.8744 1312.5 0.000762 1120.93774 1331.40063
40.8800 40.8844 1307.4 0.000765 1119.89429 1323.36646
40.8900 40.8944 1306.8 0.000765 1118.85461 1315.33691
40.9000 40.9044 1292.1 0.000774 1117.81982 1307.47485
40.9100 40.9144 1292.4 0.000774 1116.79016 1299.92590
40.9200 40.9244 1290.9 0.000775 1115.76733 1292.81384
40.9300 40.9344 1283.7 0.000779 1114.75244 1286.23987
40.9400 40.9444 1289.6 0.000775 1113.74646 1280.29102
40.9500 40.9544 1284.3 0.000779 1112.75012 1275.03394
40.9600 40.9644 1283.9 0.000779 1111.76563 1270.52588
40.9700 40.9744 1285.1 0.000778 1110.79321 1266.81238
40.9800 40.9844 1283.6 0.000779 1109.83459 1263.93201
40.9900 40.9944 1282.8 0.000780 1108.89111 1261.91943
41.0000 41.0044 1280.9 0.000781 1107.96423 1260.80469
41.0100 41.0144 1284.8 0.000778 1107.05420 1260.61218
41.0200 41.0244 1290.9 0.000775 1106.16345 1261.36792
41.0300 41.0344 1290.9 0.000775 1105.29321 1263.09387
41.0400 41.0444 1296.0 0.000772 1104.44348 1265.80981
41.0500 41.0544 1297.0 0.000771 1103.61682 1269.53247
41.0600 41.0644 1303.5 0.000767 1102.81421 1274.35669
41.0700 41.0744 1302.2 0.000768 1102.03723 1280.12988
41.0800 41.0844 1308.2 0.000764 1101.28687 1286.93579
41.0900 41.0944 1320.5 0.000757 1100.56482 1294.76770
41.1000 41.1044 1325.0 0.000755 1099.87219 1303.61096
41.1100 41.1144 1335.3 0.000749 1099.21033 1313.43274
41.1200 41.1244 1334.9 0.000749 1098.58081 1324.18640
41.1300 41.1344 1349.3 0.000741 1097.98438 1335.79712
41.1400 41.1444 1353.6 0.000739 1097.42346 1348.16614
41.1500 41.1544 1366.9 0.000732 1096.89880 1361.15393
41.1600 41.1644 1387.1 0.000721 1096.41125 1374.58484
41.1700 41.1744 1392.4 0.000718 1095.96289 1388.23047
41.1800 41.1844 1400.8 0.000714 1095.55481 1401.81677
41.1900 41.1944 1405.7 0.000711 1095.18835 1415.01990
41.2000 41.2044 1413.3 0.000708 1094.86414 1427.47522
41.2100 41.2144 1426.3 0.000701 1094.58447 1438.79138
41.2200 41.2244 1422.5 0.000703 1094.34937 1448.57214
41.2300 41.2344 1431.2 0.000699 1094.16113 1456.44287
41.2400 41.2444 1434.2 0.000697 1094.02002 1462.08362
41.2500 41.2544 1429.5 0.000700 1093.92834 1465.25073
41.2600 41.2644 1434.6 0.000697 1093.88562 1465.80823
41.2700 41.2744 1424.4 0.000702 1093.89417 1463.73608
41.2800 41.2844 1417.1 0.000706 1093.95410 1459.13281
41.2900 41.2944 1403.1 0.000713 1094.06665 1452.24304
41.3000 41.3044 1399.1 0.000715 1094.23303 1443.29846
41.3100 41.3144 1396.6 0.000716 1094.45374 1432.70020
41.3200 41.3244 1382.0 0.000724 1094.72925 1420.84656
41.3300 41.3344 1370.9 0.000729 1095.06140 1408.14258
41.3400 41.3444 1369.2 0.000730 1095.44910 1394.97144
41.3500 41.3544 1351.8 0.000740 1095.89392 1381.68030
41.3600 41.3644 1350.7 0.000740 1096.39648 1368.56995
41.3700 41.3744 1340.4 0.000746 1096.95618 1355.88818
41.3800 41.3844 1330.6 0.000752 1097.57458 1343.83716
41.3900 41.3944 1324.5 0.000755 1098.25024 1332.56982
41.4000 41.4044 1325.8 0.000754 1098.98523 1322.25342
41.4100 41.4144 1353.5 0.000739 1099.77734 1312.87366
41.4200 41.4244 1312.5 0.000762 1100.62793 1304.53662
41.4300 41.4344 1305.0 0.000766 1101.53577 1297.30054
41.4400 41.4444 1304.3 0.000767 1102.50085 1291.17554
41.4500 41.4544 1297.1 0.000771 1103.52344 1286.11511
41.4600 41.4644 1309.2 0.000764 1104.60083 1282.14722
41.4700 41.4744 1290.5 0.000775 1105.73389 1279.25574
41.4800 41.4844 1297.2 0.000771 1106.92017 1277.41333
41.4900 41.4944 1309.6 0.000764 1108.16052 1276.58813
41.5000 41.5044 1300.2 0.000769 1109.45154 1276.73743
41.5100 41.5144 1313.9 0.000761 1110.79163 1277.81250
41.5200 41.5244 1301.8 0.000768 1112.18066 1279.75696
41.5300 41.5344 1313.3 0.000761 1113.61523 1282.50110
41.5400 41.5444 1321.8 0.000757 1115.09399 1285.96838
41.5500 41.5544 1326.2 0.000754 1116.61401 1290.06421
41.5600 41.5644 1328.8 0.000753 1118.17310 1294.67896
41.5700 41.5744 1344.2 0.000744 1119.76782 1299.68591
41.5800 41.5844 1345.4 0.000743 1121.39551 1304.93701
41.5900 41.5944 1338.6 0.000747 1123.05200 1310.26709
41.6000 41.6044 1348.3 0.000742 1124.73438 1315.49097
41.6100 41.6144 1349.8 0.000741 1126.43909 1320.42200
41.6200 41.6244 1352.2 0.000740 1128.16003 1324.86487
41.6300 41.6344 1347.7 0.000742 1129.89539 1328.60449
41.6400 41.6444 1339.0 0.000747 1131.63733 1331.57104
41.6500 41.6544 1334.7 0.000749 1133.38306 1333.61707
41.6600 41.6644 1333.7 0.000750 1135.12463 1334.68933
41.6700 41.6744 1330.0 0.000752 1136.85852 1334.78943
41.6800 41.6844 1313.0 0.000762 1138.57678 1333.97412
41.6900 41.6944 1314.2 0.000761 1140.27295 1332.34399
41.7000 41.7044 1304.9 0.000766 1141.94055 1329.28162
41.7100 41.7144 1301.7 0.000768 1143.57190 1326.45544
41.7200 41.7244 1292.7 0.000774 1145.15845 1323.26770
41.7300 41.7344 1296.5 0.000771 1146.69202 1319.87207
41.7400 41.7444 1292.0 0.000774 1148.16394 1316.41150
41.7500 41.7544 1290.1 0.000775 1149.56445 1313.00562
41.7600 41.7644 1283.7 0.000779 1150.88403 1309.75696
41.7700 41.7744 1276.8 0.000783 1152.11243 1306.74744
41.7800 41.7844 1286.4 0.000777 1153.23828 1304.03491
41.7900 41.7944 1280.8 0.000781 1154.25073 1301.66687
41.8000 41.8044 1281.2 0.000781 1155.13696 1299.67200
41.8100 41.8144 1291.2 0.000774 1155.88464 1298.06946
41.8200 41.8244 1278.6 0.000782 1156.48071 1296.86523
41.8300 41.8344 1277.1 0.000783 1156.91113 1296.05981
41.8400 41.8444 1284.2 0.000779 1157.16113 1295.64209
41.8500 41.8544 1285.4 0.000778 1157.21594 1295.59644
41.8600 41.8644 1284.2 0.000779 1157.05896 1295.89819
41.8700 41.8744 1292.8 0.000774 1156.67444 1296.51672
41.8800 41.8844 1301.3 0.000768 1156.04419 1297.41235
41.8900 41.8944 1294.9 0.000772 1155.15076 1298.54187
41.9000 41.9044 1312.7 0.000762 1153.97375 1299.85413
41.9100 41.9144 1305.4 0.000766 1152.49573 1301.29663
41.9200 41.9244 1315.8 0.000760 1150.69458 1302.81250
41.9300 41.9344 1311.5 0.000763 1148.54822 1304.32275
41.9400 41.9444 1313.6 0.000761 1146.03601 1305.83728
41.9500 41.9544 1319.4 0.000758 1143.13306 1307.29102
41.9600 41.9644 1326.3 0.000754 1139.81665 1308.66296
41.9700 41.9744 1324.9 0.000755 1136.05920 1309.77087
41.9800 41.9844 1329.6 0.000752 1131.83765 1310.95972
41.9900 41.9944 1337.9 . . .
42.0000 42.0044 1335.9 . . .
42.0100 42.0144 1350.8 . . .
42.0200 42.0244 1350.0 . . .
42.0300 42.0344 1357.8 . . .
42.0400 42.0444 1360.9 . . .
42.0500 42.0544 1371.1 . . .
42.0600 42.0644 1391.5 . . .
42.0700 42.0744 1391.1 . . .
42.0800 42.0844 1405.4 . . .
42.0900 42.0944 1413.5 . . .
42.1000 42.1044 1417.2 . . .
42.1100 42.1144 1432.7 . . .
42.1200 42.1244 1431.2 . . .
42.1300 42.1344 1451.3 . . .
42.1400 42.1444 1445.6 . . .
42.1500 42.1544 1450.8 . . .
42.1600 42.1644 1447.7 . . .
42.1700 42.1744 1446.8 . . .
42.1800 42.1844 1443.0 . . .
42.1900 42.1944 1438.6 . . .
42.2000 42.2044 1436.3 . . .
42.2100 42.2144 1441.4 . . .
42.2200 42.2244 1435.3 . . .
42.2300 42.2344 1414.2 . . .
42.2400 42.2444 1420.9 . . .
42.2500 42.2544 1404.7 . . .
42.2600 42.2644 1403.6 . . .
42.2700 42.2744 1387.3 . . .
42.2800 42.2844 1397.2 . . .
42.2900 42.2944 1392.2 . . .
42.3000 42.3044 1384.2 . . .
42.3100 42.3144 1386.9 . . .
42.3200 42.3244 1380.9 . . .
42.3300 42.3344 1383.2 . . .
42.3400 42.3444 1383.0 . . .
42.3500 42.3544 1383.0 . . .
42.3600 42.3644 1392.9 . . .
42.3700 42.3744 1386.6 . . .
42.3800 42.3844 1385.7 . . .
42.3900 42.3944 1386.9 . . .
42.4000 42.4044 1382.9 . . .
42.4100 42.4144 1383.6 . . .
42.4200 42.4244 1384.0 . . .
42.4300 42.4344 1380.0 . . .
42.4400 42.4444 1378.0 . . .
42.4500 42.4544 1370.3 . . .
42.4600 42.4644 1370.9 . . .
42.4700 42.4744 1369.4 . . .
42.4800 42.4844 1370.2 . . .
42.4900 42.4944 1366.4 . . .
42.5000 42.5044 1355.5 . . .
42.5100 42.5144 1353.0 . . .
42.5200 42.5244 1373.1 . . .
42.5300 42.5344 1369.9 . . .
42.5400 42.5444 1380.3 . . .
42.5500 42.5544 1364.5 . . .
42.5600 42.5644 1366.9 . . .
42.5700 42.5744 1375.6 . . .
42.5800 42.5844 1384.5 . . .
42.5900 42.5944 1393.4 . . .
42.6000 42.6044 1397.8 . . .
42.6100 42.6144 1416.3 . . .
42.6200 42.6244 1416.2 . . .
42.6300 42.6344 1429.0 . . .
42.6400 42.6444 1449.2 . . .
42.6500 42.6544 1457.1 . . .
42.6600 42.6644 1460.8 . . .
42.6700 42.6744 1467.0 . . .
42.6800 42.6844 1467.2 . . .
42.6900 42.6944 1478.2 . . .
42.7000 42.7044 1468.6 . . .
42.7100 42.7144 1481.6 . . .
42.7200 42.7244 1462.4 . . .
42.7300 42.7344 1463.7 . . .
42.7400 42.7444 1466.5 . . .
42.7500 42.7544 1475.1 . . .
42.7600 42.7644 1458.2 . . .
42.7700 42.7744 1467.0 . . .
42.7800 42.7844 1453.5 . . .
42.7900 42.7944 1470.3 . . .
42.8000 42.8044 1461.9 . . .
42.8100 42.8144 1479.9 . . .
42.8200 42.8244 1467.4 . . .
42.8300 42.8344 1477.8 . . .
42.8400 42.8444 1478.7 . . .
42.8500 42.8544 1477.8 . . .
42.8600 42.8644 1485.7 . . .
42.8700 42.8744 1467.1 . . .
42.8800 42.8844 1465.4 . . .
42.8900 42.8944 1474.9 . . .
42.9000 42.9044 1470.8 . . .
42.9100 42.9144 1477.1 . . .
42.9200 42.9244 1469.4 . . .
42.9300 42.9344 1471.6 . . .
42.9400 42.9444 1501.1 . . .
42.9500 42.9544 1481.7 . . .
42.9600 42.9644 1509.4 . . .
42.9700 42.9744 1520.8 . . .
42.9800 42.9844 1519.0 . . .
42.9900 42.9944 1544.0 . . .
43.0000 43.0044 1571.2 . . .
43.0100 43.0144 1594.5 . . .
43.0200 43.0244 1628.2 . . .
43.0300 43.0344 1661.9 . . .
43.0400 43.0444 1700.0 . . .
43.0500 43.0544 1726.7 . . .
43.0600 43.0644 1771.6 . . .
43.0700 43.0744 1804.1 . . .
43.0800 43.0844 1825.5 . . .
43.0900 43.0944 1847.6 . . .
43.1000 43.1044 1858.0 . . .
43.1100 43.1144 1866.6 . . .
43.1200 43.1244 1863.8 . . .
43.1300 43.1344 1849.5 . . .
43.1400 43.1444 1837.9 . . .
43.1500 43.1544 1808.2 . . .
43.1600 43.1644 1773.4 . . .
43.1700 43.1744 1752.3 . . .
43.1800 43.1844 1722.8 . . .
43.1900 43.1944 1678.6 . . .
43.2000 43.2044 1653.1 . . .
43.2100 43.2144 1611.9 . . .
43.2200 43.2244 1589.6 . . .
43.2300 43.2344 1573.5 . . .
43.2400 43.2444 1533.7 . . .
43.2500 43.2544 1517.4 . . .
43.2600 43.2644 1504.4 . . .
43.2700 43.2744 1491.2 . . .
43.2800 43.2844 1476.3 . . .
43.2900 43.2944 1454.7 . . .
43.3000 43.3044 1441.7 . . .
43.3100 43.3144 1444.5 . . .
43.3200 43.3244 1426.6 . . .
43.3300 43.3344 1420.1 . . .
43.3400 43.3444 1422.9 . . .
43.3500 43.3544 1416.3 . . .
43.3600 43.3644 1422.7 . . .
43.3700 43.3744 1419.5 . . .
43.3800 43.3844 1421.1 . . .
43.3900 43.3944 1426.4 . . .
43.4000 43.4044 1435.6 . . .
43.4100 43.4144 1439.3 . . .
43.4200 43.4244 1451.8 . . .
43.4300 43.4344 1460.8 . . .
43.4400 43.4444 1474.1 . . .
43.4500 43.4544 1500.8 . . .
43.4600 43.4644 1491.8 . . .
43.4700 43.4744 1537.5 . . .
43.4800 43.4844 1550.4 . . .
43.4900 43.4944 1566.0 . . .
43.5000 43.5044 1587.1 . . .
43.5100 43.5144 1593.0 . . .
43.5200 43.5244 1617.1 . . .
43.5300 43.5344 1613.2 . . .
43.5400 43.5444 1630.5 . . .
43.5500 43.5544 1623.9 . . .
43.5600 43.5644 1618.0 . . .
43.5700 43.5744 1621.2 . . .
43.5800 43.5844 1594.3 . . .
43.5900 43.5944 1593.5 . . .
43.6000 43.6044 1581.0 . . .
43.6100 43.6144 1564.9 . . .
43.6200 43.6244 1550.6 . . .
43.6300 43.6344 1522.2 . . .
43.6400 43.6444 1528.7 . . .
43.6500 43.6544 1507.4 . . .
43.6600 43.6644 1491.5 . . .
43.6700 43.6744 1485.1 . . .
43.6800 43.6844 1474.6 . . .
43.6900 43.6944 1468.9 . . .
43.7000 43.7044 1461.0 . . .
43.7100 43.7144 1460.7 . . .
43.7200 43.7244 1453.4 . . .
43.7300 43.7344 1451.6 . . .
43.7400 43.7444 1455.1 . . .
43.7500 43.7544 1447.0 . . .
43.7600 43.7644 1443.7 . . .
43.7700 43.7744 1448.9 . . .
43.7800 43.7844 1449.5 . . .
43.7900 43.7944 1447.4 . . .
43.8000 43.8044 1444.2 . . .
43.8100 43.8144 1459.1 . . .
43.8200 43.8244 1448.2 . . .
43.8300 43.8344 1447.9 . . .
43.8400 43.8444 1454.3 . . .
43.8500 43.8544 1461.1 . . .
43.8600 43.8644 1467.4 . . .
43.8700 43.8744 1478.0 . . .
43.8800 43.8844 1460.1 . . .
43.8900 43.8944 1450.0 . . .
43.9000 43.9044 1447.3 . . .
43.9100 43.9144 1455.8 . . .
43.9200 43.9244 1449.7 . . .
43.9300 43.9344 1446.5 . . .
43.9400 43.9444 1442.1 . . .
43.9500 43.9544 1432.6 . . .
43.9600 43.9644 1433.4 . . .
43.9700 43.9744 1425.3 . . .
43.9800 43.9844 1414.6 . . .
43.9900 43.9944 1409.8 . . .
44.0000 44.0044 1413.9 . . .
44.0100 44.0144 1407.9 . . .
44.0200 44.0244 1403.5 . . .
44.0300 44.0344 1404.2 . . .
44.0400 44.0444 1403.9 . . .
44.0500 44.0544 1390.3 . . .
44.0600 44.0644 1385.1 . . .
44.0700 44.0744 1391.2 . . .
44.0800 44.0844 1396.3 . . .
44.0900 44.0944 1395.6 . . .
44.1000 44.1044 1392.0 . . .
44.1100 44.1144 1376.2 . . .
44.1200 44.1244 1393.4 . . .
44.1300 44.1344 1393.2 . . .
44.1400 44.1444 1395.1 . . .
44.1500 44.1544 1402.0 . . .
44.1600 44.1644 1399.6 . . .
44.1700 44.1744 1413.7 . . .
44.1800 44.1844 1427.8 . . .
44.1900 44.1944 1440.7 . . .
44.2000 44.2044 1449.0 . . .
44.2100 44.2144 1458.0 . . .
44.2200 44.2244 1468.1 . . .
44.2300 44.2344 1478.6 . . .
44.2400 44.2444 1485.2 . . .
44.2500 44.2544 1503.9 . . .
44.2600 44.2644 1505.0 . . .
44.2700 44.2744 1516.2 . . .
44.2800 44.2844 1504.4 . . .
44.2900 44.2944 1524.2 . . .
44.3000 44.3044 1525.9 . . .
44.3100 44.3144 1518.4 . . .
44.3200 44.3244 1529.1 . . .
44.3300 44.3344 1532.6 . . .
44.3400 44.3444 1524.5 . . .
44.3500 44.3544 1533.9 . . .
44.3600 44.3644 1535.3 . . .
44.3700 44.3744 1525.5 . . .
44.3800 44.3844 1533.9 . . .
44.3900 44.3944 1533.9 . . .
44.4000 44.4044 1516.9 . . .
44.4100 44.4144 1517.1 . . .
44.4200 44.4244 1521.6 . . .
44.4300 44.4344 1512.2 . . .
44.4400 44.4444 1499.4 . . .
44.4500 44.4544 1481.1 . . .
44.4600 44.4644 1476.4 . . .
44.4700 44.4744 1464.8 . . .
44.4800 44.4844 1455.5 . . .
44.4900 44.4944 1447.8 . . .
44.5000 44.5044 1437.4 . . .
44.5100 44.5144 1430.6 . . .
44.5200 44.5244 1427.6 . . .
44.5300 44.5344 1407.6 . . .
44.5400 44.5444 1401.0 . . .
44.5500 44.5544 1396.0 . . .
44.5600 44.5644 1382.7 . . .
44.5700 44.5744 1389.4 . . .
44.5800 44.5844 1372.8 . . .
44.5900 44.5944 1360.7 . . .
44.6000 44.6044 1386.1 . . .
44.6100 44.6144 1376.6 . . .
44.6200 44.6244 1373.3 . . .
44.6300 44.6344 1376.6 . . .
44.6400 44.6444 1359.2 . . .
44.6500 44.6544 1374.6 . . .
44.6600 44.6644 1373.0 . . .
44.6700 44.6744 1374.9 . . .
44.6800 44.6844 1380.0 . . .
44.6900 44.6944 1375.0 . . .
44.7000 44.7044 1380.5 . . .
44.7100 44.7144 1370.9 . . .
44.7200 44.7244 1358.3 . . .
44.7300 44.7344 1363.9 . . .
44.7400 44.7444 1382.2 . . .
44.7500 44.7544 1350.0 . . .
44.7600 44.7644 1347.2 . . .
44.7700 44.7744 1354.0 . . .
44.7800 44.7844 1356.9 . . .
44.7900 44.7944 1360.4 . . .
44.8000 44.8044 1356.5 . . .
44.8100 44.8144 1353.4 . . .
44.8200 44.8244 1357.6 . . .
44.8300 44.8344 1360.8 . . .
44.8400 44.8444 1364.9 . . .
44.8500 44.8544 1362.4 . . .
44.8600 44.8644 1355.0 . . .
44.8700 44.8744 1363.1 . . .
44.8800 44.8844 1352.6 . . .
44.8900 44.8944 1344.6 . . .
44.9000 44.9044 1342.4 . . .
44.9100 44.9144 1332.0 . . .
44.9200 44.9244 1321.2 . . .
44.9300 44.9344 1321.7 . . .
44.9400 44.9444 1311.4 . . .
44.9500 44.9544 1299.7 . . .
44.9600 44.9644 1283.2 . . .
44.9700 44.9744 1281.1 . . .
44.9800 44.9844 1275.3 . . .
44.9900 44.9944 1258.1 . . .
45.0000 45.0044 1258.3 . . .
45.0100 45.0144 1239.9 . . .
45.0200 45.0244 1237.3 . . .
45.0300 45.0344 1236.1 . . .
45.0400 45.0444 1240.6 . . .
45.0500 45.0544 1232.6 . . .
45.0600 45.0644 1223.7 . . .
45.0700 45.0744 1213.4 . . .
45.0800 45.0844 1216.3 . . .
45.0900 45.0944 1213.7 . . .
45.1000 45.1044 1202.5 . . .
45.1100 45.1144 1202.7 . . .
45.1200 45.1244 1199.7 . . .
45.1300 45.1344 1193.6 . . .
45.1400 45.1444 1195.6 . . .
45.1500 45.1544 1178.5 . . .
45.1600 45.1644 1180.4 . . .
45.1700 45.1744 1190.8 . . .
45.1800 45.1844 1183.3 . . .
45.1900 45.1944 1188.4 . . .
45.2000 45.2044 1177.3 . . .
45.2100 45.2144 1189.4 . . .
45.2200 45.2244 1196.7 . . .
45.2300 45.2344 1186.4 . . .
45.2400 45.2444 1206.9 . . .
45.2500 45.2544 1196.1 . . .
45.2600 45.2644 1192.7 . . .
45.2700 45.2744 1188.1 . . .
45.2800 45.2844 1196.8 . . .
45.2900 45.2944 1201.4 . . .
45.3000 45.3044 1198.5 . . .
45.3100 45.3144 1199.9 . . .
45.3200 45.3244 1211.1 . . .
45.3300 45.3344 1204.9 . . .
45.3400 45.3444 1198.5 . . .
45.3500 45.3544 1194.0 . . .
45.3600 45.3644 1205.8 . . .
45.3700 45.3744 1203.6 . . .
45.3800 45.3844 1191.9 . . .
45.3900 45.3944 1202.9 . . .
45.4000 45.4044 1195.8 . . .
45.4100 45.4144 1190.6 . . .
45.4200 45.4244 1194.8 . . .
45.4300 45.4344 1222.0 . . .
45.4400 45.4444 1205.9 . . .
45.4500 45.4544 1197.4 . . .
45.4600 45.4644 1208.6 . . .
45.4700 45.4744 1205.3 . . .
45.4800 45.4844 1204.8 . . .
45.4900 45.4944 1209.6 . . .
45.5000 45.5044 1230.0 . . .
45.5100 45.5144 1212.8 . . .
45.5200 45.5244 1220.9 . . .
45.5300 45.5344 1217.2 . . .
45.5400 45.5444 1217.5 . . .
45.5500 45.5544 1234.2 . . .
45.5600 45.5644 1239.0 . . .
45.5700 45.5744 1239.8 . . .
45.5800 45.5844 1243.9 . . .
45.5900 45.5944 1245.6 . . .
45.6000 45.6044 1268.4 . . .
45.6100 45.6144 1264.0 . . .
45.6200 45.6244 1268.0 . . .
45.6300 45.6344 1280.7 . . .
45.6400 45.6444 1277.3 . . .
45.6500 45.6544 1275.9 . . .
45.6600 45.6644 1267.9 . . .
45.6700 45.6744 1283.0 . . .
45.6800 45.6844 1276.5 . . .
45.6900 45.6944 1279.0 . . .
45.7000 45.7044 1285.0 . . .
45.7100 45.7144 1283.8 . . .
45.7200 45.7244 1273.8 . . .
45.7300 45.7344 1264.0 . . .
45.7400 45.7444 1257.7 . . .
45.7500 45.7544 1257.6 . . .
45.7600 45.7644 1266.2 . . .
45.7700 45.7744 1271.0 . . .
45.7800 45.7844 1240.4 . . .
45.7900 45.7944 1254.0 . . .
45.8000 45.8044 1252.9 . . .
45.8100 45.8144 1255.8 . . .
45.8200 45.8244 1281.7 . . .
45.8300 45.8344 1273.0 . . .
45.8400 45.8444 1289.7 . . .
45.8500 45.8544 1306.8 . . .
45.8600 45.8644 1306.1 . . .
45.8700 45.8744 1304.1 . . .
45.8800 45.8844 1330.4 . . .
45.8900 45.8944 1323.6 . . .
45.9000 45.9044 1332.2 . . .
45.9100 45.9144 1355.0 . . .
45.9200 45.9244 1343.9 . . .
45.9300 45.9344 1363.6 . . .
45.9400 45.9444 1376.0 . . .
45.9500 45.9544 1360.5 . . .
45.9600 45.9644 1351.8 . . .
45.9700 45.9744 1349.2 . . .
45.9800 45.9844 1356.7 . . .
45.9900 45.9944 1341.8 . . .
46.0000 46.0044 1336.1 . . .
46.0100 46.0144 1357.8 . . .
46.0200 46.0244 1342.2 . . .
46.0300 46.0344 1330.5 . . .
46.0400 46.0444 1338.5 . . .
46.0500 46.0544 1335.4 . . .
46.0600 46.0644 1338.7 . . .
46.0700 46.0744 1341.9 . . .
46.0800 46.0844 1330.7 . . .
46.0900 46.0944 1336.2 . . .
46.1000 46.1044 1319.8 . . .
46.1100 46.1144 1328.5 . . .
46.1200 46.1244 1314.3 . . .
46.1300 46.1344 1311.6 . . .
46.1400 46.1444 1301.3 . . .
46.1500 46.1544 1301.2 . . .
46.1600 46.1644 1281.4 . . .
46.1700 46.1744 1266.5 . . .
46.1800 46.1844 1255.5 . . .
46.1900 46.1944 1265.3 . . .
46.2000 46.2044 1249.1 . . .
46.2100 46.2144 1247.7 . . .
46.2200 46.2244 1243.6 . . .
46.2300 46.2344 1228.5 . . .
46.2400 46.2444 1220.8 . . .
46.2500 46.2544 1207.3 . . .
46.2600 46.2644 1219.2 . . .
46.2700 46.2744 1212.3 . . .
46.2800 46.2844 1198.0 . . .
46.2900 46.2944 1209.3 . . .
46.3000 46.3044 1205.1 . . .
46.3100 46.3144 1210.9 . . .
46.3200 46.3244 1196.4 . . .
46.3300 46.3344 1193.6 . . .
46.3400 46.3444 1221.7 . . .
46.3500 46.3544 1203.7 . . .
46.3600 46.3644 1214.2 . . .
46.3700 46.3744 1199.5 . . .
46.3800 46.3844 1202.7 . . .
46.3900 46.3944 1191.3 . . .
46.4000 46.4044 1188.0 . . .
46.4100 46.4144 1193.1 . . .
46.4200 46.4244 1197.2 . . .
46.4300 46.4344 1186.6 . . .
46.4400 46.4444 1205.9 . . .
46.4500 46.4544 1196.0 . . .
46.4600 46.4644 1192.1 . . .
46.4700 46.4744 1193.8 . . .
46.4800 46.4844 1200.4 . . .
46.4900 46.4944 1197.8 . . .
46.5000 46.5044 1188.6 . . .
46.5100 46.5144 1194.7 . . .
46.5200 46.5244 1199.6 . . .
46.5300 46.5344 1211.5 . . .
46.5400 46.5444 1190.9 . . .
46.5500 46.5544 1191.5 . . .
46.5600 46.5644 1197.4 . . .
46.5700 46.5744 1204.6 . . .
46.5800 46.5844 1191.4 . . .
46.5900 46.5944 1183.3 . . .
46.6000 46.6044 1197.4 . . .
46.6100 46.6144 1194.6 . . .
46.6200 46.6244 1187.2 . . .
46.6300 46.6344 1182.7 . . .
46.6400 46.6444 1159.2 . . .
46.6500 46.6544 1182.0 . . .
46.6600 46.6644 1173.0 . . .
46.6700 46.6744 1181.4 . . .
46.6800 46.6844 1183.4 . . .
46.6900 46.6944 1149.3 . . .
46.7000 46.7044 1161.8 . . .
46.7100 46.7144 1152.0 . . .
46.7200 46.7244 1151.0 . . .
46.7300 46.7344 1149.4 . . .
46.7400 46.7444 1153.8 . . .
46.7500 46.7544 1140.0 . . .
46.7600 46.7644 1139.9 . . .
46.7700 46.7744 1138.6 . . .
46.7800 46.7844 1140.4 . . .
46.7900 46.7944 1137.4 . . .
46.8000 46.8044 1134.7 . . .
46.8100 46.8144 1141.7 . . .
46.8200 46.8244 1140.6 . . .
46.8300 46.8344 1134.8 . . .
46.8400 46.8444 1136.0 . . .
46.8500 46.8544 1134.0 . . .
46.8600 46.8644 1152.5 . . .
46.8700 46.8744 1161.1 . . .
46.8800 46.8844 1121.1 . . .
46.8900 46.8944 1152.9 . . .
46.9000 46.9044 1161.9 . . .
46.9100 46.9144 1149.6 . . .
46.9200 46.9244 1152.2 . . .
46.9300 46.9344 1183.8 . . .
46.9400 46.9444 1159.5 . . .
46.9500 46.9544 1171.9 . . .
46.9600 46.9644 1174.0 . . .
46.9700 46.9744 1182.3 . . .
46.9800 46.9844 1180.6 . . .
46.9900 46.9944 1191.9 . . .
loop_
_gsas_i100_meas
6.05
100.00
0.33
3.14
3.58
5.85
10.69
8.22
7.78
2.59
2.95
0.30
0.09
0.10
2.42
0.20
0.23
0.01
3.26
1.21
7.62
3.08
2.73
0.11
0.46
0.10
0.84
4.78
0.39
0.12
1.16
3.68
0.01
2.91
0.76
1.34
0.66
1.66
0.85
1.66
0.18
0.49
2.11
0.09
1.28
0.34
1.08
0.41
0.07
0.01
1.33
0.01
0.47
0.02
0.43
0.46
0.00
0.68
1.42
0.74
0.67
1.19
0.15
0.08
0.08
0.13
0.83
0.03
0.02
1.49
0.14
0.21
0.87
0.36
0.09
0.00
0.06
0.55
0.33
0.96
0.22
0.21
0.95
0.22
0.27
0.00
0.01
0.22
0.03
0.04
0.00
0.88
0.38
0.02
0.21
0.11
0.14
0.31
0.03
0.01
0.02
0.35
0.05
0.10
0.02
0.06
0.96
0.24
0.05
0.29
0.03
0.09
0.26
0.13
0.12
0.22
0.08
0.17
0.09
0.01
0.10
0.06
0.05
0.12
0.05
0.07
0.08
0.21
0.03
0.01
0.10
0.15
0.23
0.25
0.14
0.01
0.05
0.05
