#------------------------------------------------------------------------------
#$Date: 2019-11-24 00:57:40 +0200 (Sun, 24 Nov 2019) $
#$Revision: 235876 $
#$URL: file:///home/coder/svn-repositories/cod/cif/1/55/36/1553664.cif $
#------------------------------------------------------------------------------
#
# This file is available in the Crystallography Open Database (COD),
# http://www.crystallography.net/
#
# All data on this site have been placed in the public domain by the
# contributors.
#
data_1553664
loop_
_publ_author_name
'Yamaguchi, Madoka'
'Ito, Shunichiro'
'Hirose, Amane'
'Tanaka, Kazuo'
'Chujo, Yoshiki'
_publ_section_title
;
 Control of aggregation-induced emission versus fluorescence
 aggregation-caused quenching by bond existence at a single site in boron
 pyridinoiminate complexes
;
_journal_issue                   8
_journal_name_full               'Materials Chemistry Frontiers'
_journal_page_first              1573
_journal_paper_doi               10.1039/C7QM00076F
_journal_volume                  1
_journal_year                    2017
_chemical_formula_sum            'C19 H15 B F2 N2'
_chemical_formula_weight         320.14
_space_group_crystal_system      triclinic
_space_group_IT_number           2
_space_group_name_Hall           '-P 1'
_space_group_name_H-M_alt        'P -1'
_atom_sites_solution_hydrogens   geom
_audit_creation_method           SHELXL-2014/7
_audit_update_record
;
2017-02-17 deposited with the CCDC.
2017-03-16 downloaded from the CCDC.
;
_cell_angle_alpha                74.951(6)
_cell_angle_beta                 81.658(7)
_cell_angle_gamma                86.211(7)
_cell_formula_units_Z            2
_cell_length_a                   6.418(3)
_cell_length_b                   8.632(4)
_cell_length_c                   14.198(6)
_cell_measurement_reflns_used    5270
_cell_measurement_temperature    93(2)
_cell_measurement_theta_max      55.21
_cell_measurement_theta_min      6.35
_cell_volume                     751.2(6)
_computing_structure_refinement  'SHELXL-2014/7 (Sheldrick, 2014)'
_diffrn_ambient_temperature      93(2)
_diffrn_measured_fraction_theta_full 0.984
_diffrn_measured_fraction_theta_max 0.985
_diffrn_measurement_device_type  goniometer
_diffrn_radiation_type           MoK\a
_diffrn_radiation_wavelength     0.71075
_diffrn_reflns_av_R_equivalents  0.0519
_diffrn_reflns_av_unetI/netI     0.0818
_diffrn_reflns_Laue_measured_fraction_full 0.984
_diffrn_reflns_Laue_measured_fraction_max 0.985
_diffrn_reflns_limit_h_max       8
_diffrn_reflns_limit_h_min       -8
_diffrn_reflns_limit_k_max       11
_diffrn_reflns_limit_k_min       -10
_diffrn_reflns_limit_l_max       18
_diffrn_reflns_limit_l_min       -17
_diffrn_reflns_number            6456
_diffrn_reflns_point_group_measured_fraction_full 0.984
_diffrn_reflns_point_group_measured_fraction_max 0.985
_diffrn_reflns_theta_full        25.242
_diffrn_reflns_theta_max         27.485
_diffrn_reflns_theta_min         3.175
_exptl_absorpt_coefficient_mu    0.100
_exptl_crystal_density_diffrn    1.415
_exptl_crystal_description       equiaxed
_exptl_crystal_F_000             332
_exptl_crystal_size_max          0.100
_exptl_crystal_size_mid          0.100
_exptl_crystal_size_min          0.100
_refine_diff_density_max         0.337
_refine_diff_density_min         -0.233
_refine_diff_density_rms         0.066
_refine_ls_extinction_method     none
_refine_ls_goodness_of_fit_ref   1.036
_refine_ls_hydrogen_treatment    constr
_refine_ls_matrix_type           full
_refine_ls_number_parameters     217
_refine_ls_number_reflns         3403
_refine_ls_number_restraints     0
_refine_ls_restrained_S_all      1.036
_refine_ls_R_factor_all          0.0713
_refine_ls_R_factor_gt           0.0596
_refine_ls_shift/su_max          0.000
_refine_ls_shift/su_mean         0.000
_refine_ls_structure_factor_coef Fsqd
_refine_ls_weighting_details
'w=1/[\s^2^(Fo^2^)+(0.0844P)^2^+0.1212P] where P=(Fo^2^+2Fc^2^)/3'
_refine_ls_weighting_scheme      calc
_refine_ls_wR_factor_gt          0.1541
_refine_ls_wR_factor_ref         0.1623
_reflns_Friedel_coverage         0.000
_reflns_number_gt                2693
_reflns_number_total             3403
_reflns_threshold_expression     'I > 2\s(I)'
_cod_data_source_file            c7qm00076f2.cif
_cod_data_source_block           ydkr
_cod_original_cell_volume        751.3(6)
_cod_database_code               1553664
_shelx_shelxl_version_number     2014/7
_shelx_space_group_comment
;
The symmetry employed for this shelxl refinement is uniquely defined
by the following loop, which should always be used as a source of
symmetry information in preference to the above space-group names.
They are only intended as comments.
;
_shelx_estimated_absorpt_t_min   0.990
_shelx_estimated_absorpt_t_max   0.990
_shelx_res_file
;

    ydkr.res created by SHELXL-2014/7

TITL ydkr_a.res in P-1
REM  Yadorkari-X generated
CELL 0.71075 6.4184 8.6319 14.1978 74.9510 81.6580 86.2110
ZERR 2.0 0.0029 0.0037 0.0061 0.0060 0.0070 0.0070
LATT 1
REM  SPGR P-1 triclinic
SFAC C H N B F
UNIT 38 30 4 2 4
SIZE 0.10 0.10 0.10
TEMP -180.0
L.S. 10
FMAP 2
PLAN -20
ACTA
CONF
LIST 4
BOND $H

WGHT    0.084400    0.121200
FVAR       2.84753
F001  5    0.089805    0.593378    0.567386    11.00000    0.03490    0.03789 =
         0.03830   -0.00962   -0.00873   -0.00490
F002  5    0.043147    0.826946    0.614688    11.00000    0.03971    0.03499 =
         0.03766   -0.00744   -0.00625    0.01041
N003  3    0.291741    0.626823    0.689965    11.00000    0.03082    0.02716 =
         0.02737   -0.00634   -0.00301    0.00111
N004  3    0.363533    0.783365    0.513595    11.00000    0.03555    0.02619 =
         0.02730   -0.00553   -0.00847   -0.00038
C005  1    0.225290    0.653322    0.784297    11.00000    0.03448    0.02308 =
         0.02955   -0.00526   -0.00177   -0.00096
C006  1    0.556996    0.711192    0.508145    11.00000    0.03273    0.02568 =
         0.03015   -0.00887   -0.00576   -0.00273
C007  1    0.710749    0.774387    0.428931    11.00000    0.03643    0.03339 =
         0.03017   -0.00947   -0.00317   -0.00508
AFIX  43
H1    2    0.846477    0.723775    0.424045    11.00000   -1.20000
AFIX   0
C008  1    0.522417    0.387965    0.748436    11.00000    0.03524    0.02612 =
         0.02628   -0.00735   -0.00728    0.00078
C009  1    0.358192    0.297470    0.808316    11.00000    0.03559    0.03154 =
         0.02831   -0.00852   -0.00461    0.00035
AFIX  43
H2    2    0.217308    0.338619    0.807446    11.00000   -1.20000
AFIX   0
C00A  1    0.597525    0.573780    0.585270    11.00000    0.02991    0.02797 =
         0.03046   -0.00798   -0.00473   -0.00166
AFIX  43
H3    2    0.715549    0.505339    0.574130    11.00000   -1.20000
AFIX   0
C00B  1    0.474229    0.536850    0.673965    11.00000    0.03001    0.02451 =
         0.03018   -0.00751   -0.00627   -0.00101
C00C  1    0.370854    0.665455    0.845554    11.00000    0.03334    0.03018 =
         0.03449   -0.00841   -0.00149   -0.00323
AFIX  43
H4    2    0.517270    0.655934    0.824082    11.00000   -1.20000
AFIX   0
C00D  1    0.728192    0.327329    0.753162    11.00000    0.03479    0.03193 =
         0.03161   -0.00816   -0.00696    0.00076
AFIX  43
H5    2    0.842089    0.389068    0.714544    11.00000   -1.20000
AFIX   0
C00E  1    0.011508    0.669141    0.816892    11.00000    0.03455    0.03388 =
         0.03615   -0.00932   -0.00462    0.00026
AFIX  43
H6    2   -0.090038    0.660238    0.776246    11.00000   -1.20000
AFIX   0
C00F  1    0.399149    0.148293    0.868914    11.00000    0.04698    0.03359 =
         0.02886   -0.00520   -0.00348   -0.00416
AFIX  43
H7    2    0.286268    0.087271    0.909119    11.00000   -1.20000
AFIX   0
C00G  1    0.603035    0.087802    0.871215    11.00000    0.05347    0.02803 =
         0.03163   -0.00284   -0.01020    0.00310
AFIX  43
H8    2    0.630341   -0.015411    0.912171    11.00000   -1.20000
AFIX   0
C00H  1    0.318077    0.915889    0.442904    11.00000    0.04351    0.02812 =
         0.03324   -0.00686   -0.01153    0.00168
AFIX  43
H9    2    0.180850    0.964144    0.447517    11.00000   -1.20000
AFIX   0
C00I  1    0.664679    0.909292    0.358623    11.00000    0.04796    0.03197 =
         0.02798   -0.00731   -0.00262   -0.00859
AFIX  43
H10   2    0.768943    0.953521    0.305358    11.00000   -1.20000
AFIX   0
C00J  1    0.464451    0.981274    0.365569    11.00000    0.05339    0.02762 =
         0.02991   -0.00329   -0.01019   -0.00208
AFIX  43
H11   2    0.430370    1.074586    0.317116    11.00000   -1.20000
AFIX   0
C00K  1    0.303803    0.691328    0.937659    11.00000    0.04461    0.03859 =
         0.03393   -0.01180   -0.00586   -0.00446
AFIX  43
H12   2    0.404293    0.696802    0.979580    11.00000   -1.20000
AFIX   0
C00L  1    0.767971    0.177577    0.813797    11.00000    0.04011    0.03638 =
         0.03680   -0.01056   -0.01136    0.00836
AFIX  43
H13   2    0.908668    0.136449    0.815966    11.00000   -1.20000
AFIX   0
C00M  1   -0.053505    0.697788    0.908292    11.00000    0.03584    0.04009 =
         0.04261   -0.01286    0.00312    0.00174
AFIX  43
H14   2   -0.199559    0.709747    0.929671    11.00000   -1.20000
AFIX   0
C00N  1    0.092185    0.709138    0.968696    11.00000    0.04744    0.04310 =
         0.03521   -0.01547    0.00166   -0.00118
AFIX  43
H15   2    0.046667    0.729116    1.031291    11.00000   -1.20000
AFIX   0
B00O  4    0.186030    0.706104    0.600041    11.00000    0.03062    0.03018 =
         0.03140   -0.00787   -0.00487    0.00044

HKLF 4

REM  ydkr_a.res in P-1
REM R1 =  0.0596 for    2693 Fo > 4sig(Fo)  and  0.0713 for all    3403 data
REM    217 parameters refined using      0 restraints

END

WGHT      0.0858      0.0442

REM Highest difference peak  0.337,  deepest hole -0.233,  1-sigma level  0.066
Q1    1   0.2484  0.6313  0.7384  11.00000  0.05    0.34
Q2    1   0.1376  0.6796  0.8173  11.00000  0.05    0.33
Q3    1   0.6099  0.3372  0.7216  11.00000  0.05    0.33
Q4    1   0.4977  0.4567  0.7163  11.00000  0.05    0.31
Q5    1   0.1249  0.6434  0.7992  11.00000  0.05    0.30
Q6    1   0.5029  0.1499  0.8979  11.00000  0.05    0.29
Q7    1   0.2909  0.6551  0.8167  11.00000  0.05    0.29
Q8    1   0.2597  0.6971  0.6553  11.00000  0.05    0.28
Q9    1   0.1843  0.6820  0.9436  11.00000  0.05    0.27
Q10   1   0.1959  0.6141  0.6618  11.00000  0.05    0.27
Q11   1   0.6531  0.1571  0.8420  11.00000  0.05    0.27
Q12   1   0.4503  0.3129  0.7732  11.00000  0.05    0.27
Q13   1   0.4054  0.9023  0.3953  11.00000  0.05    0.26
Q14   1   0.3434  0.8435  0.4787  11.00000  0.05    0.26
Q15   1   0.2030  0.5777  0.5182  11.00000  0.05    0.26
Q16   1   0.7560  0.2551  0.7834  11.00000  0.05    0.26
Q17   1   0.4136  0.9810  0.4146  11.00000  0.05    0.26
Q18   1   0.4543  0.7193  0.4864  11.00000  0.05    0.26
Q19   1  -0.1135  0.7929  0.6443  11.00000  0.05    0.24
Q20   1   0.6192  0.7088  0.4566  11.00000  0.05    0.23
;
_shelx_res_checksum              66098
_shelx_hkl_file
;
   0   0   3 7978.58  379.70
   0   0   3 8521.80  402.37
   0   0  -3 8753.24  407.21
   0   0   4 4902.50  199.90
   0   0   4 5040.75  207.51
   0   0  -4 4167.35  175.81
   0   0   5 5725.47  260.09
   0   0   5 5574.30  262.62
   0   0  -5 5595.32  253.84
   0   0   6  165.14    8.06
   0   0   6  165.34    9.29
   0   0  -6  160.19   10.30
   0   0   7   31.36    4.17
   0   0   7    9.12    4.08
   0   0  -7   16.74    3.47
   0   0   8  577.88   25.47
   0   0   8  564.31   25.57
   0   0  -8  557.60   28.34
   0   0   9   47.81    6.02
   0   0   9   29.57    6.27
   0   0   9   44.30    6.26
   0   0  -9   39.68    5.48
   0   0  10   52.04    7.24
   0   0  10   47.13    7.74
   0   0  10   48.62   11.00
   0   0 -10   48.76    9.89
   0   0  11  311.24   19.57
   0   0  11  403.48   31.46
   0   0  11  344.57   21.78
   0   0 -11  334.47   20.01
   0   0  12  146.43   15.26
   0   0  12  122.23   13.12
   0   0 -12  119.94   17.13
   0   0  13  397.11   30.81
   0   0  13  424.83   29.07
   0   0 -13  379.03   26.00
   0   0  14    3.97    7.70
   0   0  14   11.45    7.28
   0   0 -14    9.38    6.33
   0   0  15   84.26   16.98
   0   0  15  106.56   16.03
   0   0  16  577.69   58.20
   0   0  16  864.63   63.26
   0   0  17   54.22   17.38
   0   0  17   87.80   24.32
   0  -1  17   28.92   13.80
   0  -1  17   67.88   14.91
   0  -1  16    2.45    7.05
   0  -1  16    2.59    7.23
   0   1 -15  251.76   23.41
   0  -1  15  172.73   22.97
   0  -1  15  253.37   24.45
   0   1 -14  437.60   40.75
   0  -1  14  363.35   41.19
   0   1 -13  370.48   26.62
   0  -1  13  336.27   26.94
   0   1 -12 6421.06  427.81
   0  -1  12 5808.08  387.95
   0  -1  12 6274.97  456.99
   0   1 -11 3097.86  169.23
   0  -1  11 3061.43  170.62
   0  -1  11 2827.12  154.15
   0  -1  11 2954.21  169.37
   0   1 -10  836.92   49.90
   0  -1  10  857.23   46.57
   0  -1  10  839.49   46.82
   0  -1  10  835.86   41.48
   0   1  -9  830.99   39.32
   0  -1   9  929.08   53.48
   0  -1   9  787.60   35.66
   0  -1   9  842.22   45.02
   0   1  -8 5593.10  303.89
   0  -1   8 5356.37  292.21
   0  -1   8 5277.16  275.05
   0   1  -7    7.14    3.64
   0  -1   7    6.75    4.04
   0  -1   7    7.05    2.89
   0   1  -6 4878.35  242.72
   0  -1   6 4651.86  223.87
   0  -1   6 5072.10  240.39
   0   1  -5   42.58    4.88
   0  -1   5   48.17    4.96
   0  -1   5   50.19    4.99
   0   1  -4 2085.10   79.11
   0  -1   4 2020.91   77.43
   0  -1   4 2227.63   76.76
   0   1  -313789.03  800.00
   0  -1   313250.04  760.44
   0  -1   314788.96  805.70
   0   1  -2  217.80    8.65
   0  -1   2  215.66    8.40
   0   1  -1  739.73   21.86
   0  -1   1  775.42   22.04
   0  -1   1  795.14   14.84
   0   1   427876.20 1932.05
   0   1   5 1382.99   44.18
   0  -1  -5 1349.47   42.94
   0   1   6    6.42    2.51
   0   1   6    2.32    2.97
   0  -1  -6    4.56    2.37
   0   1   7 3441.29  139.71
   0   1   7 3076.75  141.24
   0  -1  -7 3523.08  148.08
   0   1   8 3039.09  130.96
   0   1   8 3306.39  153.16
   0  -1  -8 3329.28  149.45
   0   1   9  156.87    8.66
   0   1   9  125.38   10.76
   0   1   9  167.79   11.99
   0  -1  -9  172.55    9.11
   0   1  10   43.36    5.14
   0   1  10   34.17    7.45
   0   1  10   48.32   11.48
   0  -1 -10   41.88    5.26
   0   1  11    5.22    5.09
   0   1  11   -1.31    4.80
   0  -1 -11    3.09    3.37
   0   1  12   18.94    8.09
   0   1  12   19.19   11.32
   0   1  13  461.91   36.35
   0   1  13  429.65   30.30
   0   1  14    9.65   14.85
   0   1  14   14.28    8.12
   0   1  15  376.50   38.09
   0   1  15  415.74   34.65
   0   1  16   24.50   13.88
   0   1  16   33.10   11.96
   0   1  17  286.11   41.57
   0   1  17  373.64   36.59
   0   2 -16    4.51    8.91
   0  -2  16    5.32    6.77
   0  -2  16    9.88    8.35
   0   2 -15  110.04   25.34
   0  -2  15   82.20   23.79
   0   2 -14   53.25   11.37
   0  -2  14   17.40    8.49
   0  -2  14   50.70   11.26
   0   2 -13  865.68   66.75
   0  -2  13  809.06   58.03
   0   2 -12  265.24   21.36
   0  -2  12  209.13   18.62
   0   2 -11  367.24   33.93
   0  -2  11  327.41   22.20
   0   2 -10 5058.40  298.04
   0  -2  10 5051.21  308.11
   0  -2  10 5019.17  319.42
   0   2  -9 6909.04  401.28
   0  -2   9 6342.63  374.91
   0  -2   9 5214.63  295.97
   0  -2   9 6490.09  402.16
   0   2  -8   86.83   10.12
   0  -2   8  102.81   15.68
   0  -2   8   75.08    8.19
   0  -2   8  105.27    9.78
   0   2  -7  609.35   37.08
   0  -2   7  579.22   30.00
   0  -2   7  588.06   25.97
   0   2  -6  788.25   35.94
   0  -2   6  832.00   37.93
   0  -2   6  800.66   29.59
   0   2  -5    4.22    6.53
   0  -2   5    8.69    4.61
   0  -2   5   10.96    1.52
   0   2  -4   90.97    7.64
   0  -2   4  108.77   11.60
   0  -2   4  100.77    3.97
   0   2  -3 1189.10   51.36
   0  -2   3 1176.55   51.49
   0   2  -2 7011.90  356.38
   0  -2   2 6870.61  357.73
   0  -2   2 8703.23  351.23
   0   2  -160712.97 5927.18
   0   2  -152047.9125594.72
   0  -2   159189.46 5689.11
   0  -2   152799.0611967.08
   0   2   030468.54 2310.72
   0  -2   031625.90 2346.66
   0   2   111600.98  616.47
   0   2   2  158.29    6.07
   0   2   2  149.92    6.41
   0   2   385053.3733639.44
   0   2   5 3991.59  138.57
   0   2   6 3130.74  108.15
   0   2   716822.38 1061.87
   0   2   716767.68 1129.44
   0   2   8    5.10    1.47
   0   2   8    6.79    4.38
   0   2   8   14.79    4.34
   0   2   9  236.76   15.64
   0   2   9  262.90   16.96
   0   2  10   99.26   11.36
   0   2  10  113.77   11.39
   0   2  11   12.56    6.34
   0   2  11    4.00   10.22
   0   2  12   18.38    8.12
   0   2  12   18.02    7.78
   0   2  13  426.79   35.09
   0   2  13  468.96   32.53
   0   2  14   67.74   15.69
   0   2  14   86.18   14.22
   0   2  15  162.27   23.26
   0   2  15  186.06   21.01
   0   2  16   56.28   18.06
   0   2  16   94.92   24.67
   0   2  17  125.30   38.40
   0   2  17  142.47   22.89
   0   2  18   14.68   16.12
   0   2  18   20.11   20.08
   0   3 -15  107.34   19.61
   0   3 -14   21.76   10.56
   0  -3  14    4.01   15.43
   0   3 -13   37.64   10.47
   0  -3  13    9.01    5.71
   0  -3  13   16.35    9.68
   0   3 -12  186.66   20.94
   0  -3  12  165.00   21.38
   0   3 -11  135.20   16.98
   0  -3  11  119.22   15.73
   0   3 -10  550.07   36.01
   0  -3  10  497.70   44.75
   0   3  -9 4503.29  260.22
   0  -3   9 4359.60  256.02
   0  -3   9 4524.65  320.22
   0   3  -8    5.57    6.41
   0  -3   8   22.00    6.87
   0  -3   8    5.77    3.35
   0   3  -7   16.09    5.49
   0  -3   7    1.98    5.76
   0  -3   7   -0.63    2.60
   0  -3   7    8.63    2.31
   0   3  -6  395.32   22.09
   0  -3   6  359.79   28.27
   0  -3   6  337.95   12.77
   0   3  -5  202.79   18.82
   0  -3   5  182.90   13.09
   0  -3   5  176.51    6.25
   0   3  -4  123.77    9.83
   0  -3   4  103.67    9.78
   0   3  -3 1177.99   49.51
   0  -3   3 1143.83   49.00
   0   3  -210331.29  592.21
   0  -3   2 9927.99  562.25
   0   3  -1 3689.88  167.76
   0   3  -1 3797.34  152.74
   0  -3   1 3969.41  180.30
   0   3   017810.51 1163.27
   0  -3   016871.25 1070.64
   0   3   1 7513.80  376.20
   0   3   2  210.89    7.71
   0   3   3  167.68    7.60
   0   3   418269.48 1166.50
   0   3   5   18.28    1.47
   0   3   5   23.05    4.41
   0   3   6   17.54    4.69
   0   3   7 3707.67  184.10
   0   3   7 4148.41  203.07
   0   3   8 2570.89  125.98
   0   3   8 3035.43  143.82
   0   3   9 6556.32  375.08
   0   3   9 6022.21  341.79
   0   3  10 2983.70  161.59
   0   3  10 3301.49  173.15
   0   3  11  948.56   63.27
   0   3  11 1013.76   55.83
   0   3  12    9.07    7.39
   0   3  12   15.97   12.07
   0   3  13   31.07   10.28
   0   3  13   32.06   10.37
   0   3  14   -0.53    7.81
   0   3  14    7.11    7.23
   0   3  15  144.58   22.02
   0   3  15  195.00   23.01
   0   3  16   17.24   10.84
   0   3  16    3.11   10.01
   0   3  17   -3.19   10.40
   0   3  17   -4.85   15.18
   0   3  18   17.47   15.87
   0   3  18   21.46   13.81
   0   4 -14    9.78   17.85
   0   4 -13    6.02    9.86
   0   4 -12   11.90    8.36
   0  -4  12    1.37    2.78
   0  -4  12   -2.96   16.66
   0   4 -11   31.72   11.85
   0  -4  11   18.94    6.41
   0  -4  11   42.82   13.44
   0   4 -10   22.48    9.83
   0  -4  10   14.95    4.74
   0  -4  10   13.20   11.27
   0  -4   9  391.79   23.61
   0  -4   9  537.14   34.76
   0   4  -8  196.88   19.77
   0  -4   8  157.78   17.88
   0   4  -7  143.23   21.73
   0  -4   7  137.28   16.01
   0   4  -6  814.46   44.50
   0  -4   6  799.26   44.64
   0   4  -5   65.52   10.14
   0  -4   5   80.04   10.79
   0   4  -4 1546.20   72.96
   0  -4   4 1522.50   73.60
   0   4  -3   94.66    9.80
   0  -4   3   92.96   10.25
   0   4  -241073.52 3809.60
   0  -4   242085.91 3770.61
   0   4  -1 1166.84   48.90
   0   4  -1 1067.54   33.99
   0  -4   1 1040.17   45.92
   0   4   0 4419.23  209.32
   0  -4   0 4038.12  185.22
   0   4   1   -0.53    2.67
   0   4   2 3232.75  142.70
   0   4   3 3340.54  143.52
   0   4   4  120.19    7.42
   0   4   5  650.75   20.46
   0   4   6   16.19    1.38
   0   4   6   14.73    4.94
   0   4   7 5441.33  299.48
   0   4   7 5801.85  312.23
   0   4   8   74.55    9.70
   0   4   8   78.64   10.14
   0   4   9   34.53   11.32
   0   4   9   21.87    7.79
   0   4  10  893.54   52.78
   0   4  10 1184.15   62.28
   0   4  11   -3.32    4.70
   0   4  11    4.33    5.35
   0   4  12  348.34   28.93
   0   4  12  394.32   32.18
   0   4  13  515.65   40.86
   0   4  13  636.98   46.26
   0   4  14   13.10   13.25
   0   4  14    1.48    8.39
   0   4  15  173.13   24.08
   0   4  15  212.85   35.46
   0   4  16  162.08   26.68
   0   4  16  230.02   27.41
   0   4  17   67.42   19.61
   0   4  17   70.74   18.97
   0   4  18    0.88   14.58
   0   4  18   28.96   14.20
   0   5 -13  590.73   58.66
   0   5 -12   10.66   12.66
   0   5 -11    5.40   10.49
   0   5 -10  132.52   20.04
   0   5  -9   44.55   20.73
   0   5  -8   -2.05    7.03
   0   5  -7  174.18   19.27
   0   5  -6 1159.65   66.38
   0   5  -5  675.99   40.55
   0   5  -4  264.66   20.29
   0   5  -3   -1.15    4.91
   0   5  -2   54.87    8.87
   0   5  -1 9439.79  578.61
   0   5  -1 9694.50  610.41
   0   5   0  661.65   39.36
   0   5   1 3301.54  157.32
   0   5   2  346.04   16.93
   0   5   3 1070.23   43.96
   0   5   4  107.92    9.19
   0   5   5    6.13    2.27
   0   5   5    7.03    4.23
   0   5   6    0.88    2.07
   0   5   6   -3.40    3.39
   0   5   6    1.61    3.42
   0   5   7 1344.90   69.57
   0   5   7 1482.59   72.27
   0   5   8    9.96    5.77
   0   5   8    2.45    5.76
   0   5   9  102.68   13.37
   0   5   9  105.19   20.06
   0   5  10   60.42   11.21
   0   5  10   58.24   12.46
   0   5  11   55.54   12.63
   0   5  11   75.19   13.92
   0   5  12   44.72   13.18
   0   5  12   72.19   14.83
   0   5  13  534.10   57.65
   0   5  13  682.98   50.26
   0   5  14  788.58   60.66
   0   5  14 1109.10   72.67
   0   5  15  132.07   20.68
   0   5  15  130.39   23.37
   0   5  16  106.13   22.79
   0   5  16  170.92   26.77
   0   5  17   61.27   29.55
   0   5  17   68.65   22.24
   0   6 -12   91.97   23.00
   0   6 -11  375.26   55.01
   0   6 -10  114.79   20.65
   0   6  -9  513.82   43.14
   0   6  -8   10.18   10.05
   0   6  -7  380.63   33.42
   0   6  -6   15.80    9.99
   0   6  -5   11.31    8.86
   0   6  -4  651.65   42.74
   0   6  -3  837.04   49.53
   0   6  -2 1691.42  105.56
   0   6  -1 1878.88   99.06
   0   6  -1 1965.95   94.53
   0   6   0  498.61   29.24
   0   6   1 2949.19  151.34
   0   6   2 4340.27  232.71
   0   6   3  318.72   17.40
   0   6   4  156.11   10.29
   0   6   5 1876.84   94.48
   0   6   5 2225.68  104.90
   0   6   6 1916.68   88.72
   0   6   6 2080.36  106.45
   0   6   6 2373.19  114.70
   0   6   7 3116.77  173.03
   0   6   7 3287.10  175.65
   0   6   8  528.40   33.95
   0   6   8  588.09   45.75
   0   6   9 1079.52   65.45
   0   6   9 1347.15   74.45
   0   6  10  235.57   23.75
   0   6  10  319.49   26.67
   0   6  11  122.32   17.58
   0   6  11  141.59   19.96
   0   6  12    1.95    7.33
   0   6  12  -12.82   12.61
   0   6  13 1762.30  119.40
   0   6  13 2181.87  139.06
   0   6  14  419.84   42.17
   0   6  14  618.09   49.66
   0   6  15  171.87   25.32
   0   6  15  209.04   29.25
   0   6  16  -15.94   16.73
   0   6  16   -0.43   12.63
   0   6  17   70.39   20.19
   0   6  17   69.63   23.04
   0   7 -10  143.66   27.38
   0   7  -9   43.73   16.72
   0   7  -8   24.62   13.35
   0   7  -7   90.89   19.31
   0   7  -6   19.27   12.27
   0   7  -5   41.92   13.93
   0   7  -4  141.34   30.63
   0   7  -3  864.19   56.76
   0   7  -2  622.90   43.02
   0   7  -1  831.20   48.45
   0   7  -1  600.14   37.89
   0   7   0   54.41   11.47
   0   7   0   55.39    7.64
   0   7   1  208.70   18.40
   0   7   2  540.77   41.23
   0   7   3  120.56   17.16
   0   7   4  835.21   41.67
   0   7   5  569.02   28.86
   0   7   6  676.55   38.89
   0   7   6  889.95   48.29
   0   7   7   56.39   11.10
   0   7   7   70.42   11.95
   0   7   8   -2.47   11.54
   0   7   8   14.71    8.02
   0   7   9  921.19   61.81
   0   7   9 1089.79   67.06
   0   7  10  432.66   36.09
   0   7  10  472.31   39.01
   0   7  11    3.78    8.67
   0   7  11   15.53   15.26
   0   7  12  239.50   28.43
   0   7  12  268.96   30.07
   0   7  13  267.65   31.13
   0   7  13  336.77   35.18
   0   7  14   57.82   23.78
   0   7  14   30.96   17.30
   0   7  15   34.46   15.97
   0   7  15   47.67   27.29
   0   7  16  218.87   34.05
   0   7  16  277.37   38.43
   0   8  -9   98.56   24.47
   0   8  -8  352.90   42.76
   0   8  -7   84.65   21.50
   0   8  -6   13.08   20.39
   0   8  -5    9.12   11.56
   0   8  -4   28.87   14.42
   0   8  -3 2823.84  185.04
   0   8  -2 1572.06  101.41
   0   8  -1  106.43   27.56
   0   8   0 1257.20   78.13
   0   8   0 1104.28   94.81
   0   8   1   20.15    9.45
   0   8   2  369.06   28.29
   0   8   3 1000.37   57.98
   0   8   4  228.46   25.07
   0   8   6  126.67   23.33
   0   8   7 1061.54   84.91
   0   8   7 1386.40   93.72
   0   8   8   46.54   12.99
   0   8   8   86.22   21.48
   0   8   9  370.99   34.74
   0   8   9  382.16   47.18
   0   8  10  633.07   53.06
   0   8  10  710.59   53.84
   0   8  11   31.86   14.09
   0   8  11   36.59   14.49
   0   8  12  432.93   44.39
   0   8  12  474.40   46.34
   0   8  13  189.35   30.32
   0   8  13  239.42   32.52
   0   8  14   14.36   12.18
   0   8  14    0.99   13.10
   0   8  15   65.46   22.21
   0   8  15   99.08   24.34
   0   9  -6   -8.13   13.61
   0   9  -5   99.33   24.31
   0   9  -4    3.27   17.66
   0   9  -3 1245.57   96.10
   0   9  -2   12.40   13.05
   0   9  -1   60.96   18.13
   0   9   0   10.87   10.21
   0   9   0    5.12    9.31
   0   9   1   68.27   15.41
   0   9   1   46.43   16.64
   0   9   2  115.33   18.05
   0   9   3  386.96   31.75
   0   9   7  462.41   51.55
   0   9   7  538.27   41.17
   0   9   8  135.24   21.42
   0   9   8  156.15   20.91
   0   9   9   95.99   20.35
   0   9   9  111.41   19.90
   0   9  10  369.07   40.06
   0   9  10  378.98   40.24
   0   9  11   10.91   21.02
   0   9  11   15.66   12.80
   0   9  12   34.83   26.73
   0   9  12   31.72   16.60
   0   9  13   28.02   26.10
   0   9  13   23.36   26.74
   0   9  14  144.82   45.26
   0   9  14  144.95   30.61
   0  10  -3   -0.23   10.00
   0  10  -2 1231.76  101.48
   0  10  -1   58.89   19.70
   0  10   0  572.68   72.16
   0  10   1  147.39   36.38
   0  10   2    7.40   15.39
   0  10   3   11.12   14.73
   0  10   8   -0.84    7.52
   0  10   8   -0.95    7.80
   0  10   9   27.54   14.38
   0  10   9   41.61   15.37
   0  10  10   47.14   27.90
   0  10  10   58.70   18.87
   0  10  11  331.31   44.33
   0  10  11  345.42   42.78
   0  10  12   16.86   16.90
   0  10  12   18.92   16.27
   0  11   2   45.63   17.14
   0  11   3    1.55    8.62
  -1  11   4   27.46   14.36
  -1  10  11    2.33   12.76
  -1  10  11    7.68   18.78
  -1  10  10  169.77   33.52
  -1  10  10  227.30   44.26
  -1  10   9  592.05   63.75
  -1  10   9  674.09   76.14
  -1  10   8  307.15   53.51
  -1  10   8  368.21   37.45
  -1  10   7   85.45   13.55
  -1  10   6  157.43   20.18
  -1  10   5   35.83   12.50
  -1  10   4  592.41   54.04
  -1  10   3  195.14   27.56
  -1  10   2  196.79   30.17
  -1  10   1   25.05   15.62
  -1  10   0   39.12   18.76
  -1  10  -1   13.20   15.61
  -1  10  -2   29.46   18.90
  -1  10  -3   82.19   40.62
  -1   9  13    1.49   12.34
  -1   9  13    8.97   12.66
  -1   9  12   69.31   20.87
  -1   9  12   67.84   21.37
  -1   9  11   16.25   12.46
  -1   9  11    2.24   12.69
  -1   9  10   12.98   14.25
  -1   9  10   31.81   13.34
  -1   9   9   62.46   19.39
  -1   9   9   81.60   17.47
  -1   9   8   11.17    5.95
  -1   9   8   27.33   11.82
  -1   9   8   35.39   11.17
  -1   9   7   10.10    6.36
  -1   9   7   24.93   15.48
  -1   9   7   16.50    9.43
  -1   9   6   97.70   13.80
  -1   9   5   30.80    9.89
  -1   9   4  668.04   52.19
  -1   9   3  199.80   25.51
  -1   9   2   50.14   15.33
  -1   9   1  668.79   57.61
  -1   9   0   59.11   17.98
  -1   9  -1    7.06   11.77
  -1   9  -2  115.69   38.60
  -1   9  -3  645.74   61.73
  -1   9  -4   15.56   15.35
  -1   9  -5   49.88   20.92
  -1   9  -6   45.05   32.79
  -1   8  15  200.17   33.71
  -1   8  15  322.21   42.01
  -1   8  14   -4.89   11.17
  -1   8  14   -7.34   12.97
  -1   8  13  112.95   36.12
  -1   8  13  152.47   26.87
  -1   8  12   14.42   21.84
  -1   8  12   31.65   14.85
  -1   8  11  421.71   43.36
  -1   8  11  474.48   44.21
  -1   8  10  170.29   25.81
  -1   8  10  188.42   36.75
  -1   8   9   74.03   17.17
  -1   8   9   76.83   24.78
  -1   8   8    7.98    6.42
  -1   8   8    1.63    8.97
  -1   8   8   17.07   13.35
  -1   8   7    5.64    4.54
  -1   8   7    6.81   12.11
  -1   8   7   -0.50    7.28
  -1   8   6  684.81   48.15
  -1   8   6 1000.80   57.87
  -1   8   5  402.53   29.63
  -1   8   4  434.52   32.44
  -1   8   3 1548.38  101.07
  -1   8   2  177.63   21.57
  -1   8   1  415.26   36.11
  -1   8   0    1.20    7.71
  -1   8  -1 1026.97   91.98
  -1   8  -2  276.18   31.40
  -1   8  -3  866.34   67.12
  -1   8  -4  378.78   38.88
  -1   8  -5  244.23   48.38
  -1   8  -6    4.76   11.30
  -1   8  -7   30.00   17.05
  -1   8  -8   -1.56   11.19
  -1   7  16  208.20   32.45
  -1   7  16  334.43   42.03
  -1   7  15   81.50   20.05
  -1   7  15   88.27   23.70
  -1   7  14   41.61   16.28
  -1   7  14   61.55   19.55
  -1   7  13   52.98   16.64
  -1   7  13   76.90   19.30
  -1   7  12  186.08   26.95
  -1   7  12  280.96   41.73
  -1   7  11  608.91   49.99
  -1   7  11  735.68   52.89
  -1   7  10  375.51   48.79
  -1   7  10  464.84   37.55
  -1   7   9  465.32   51.24
  -1   7   9  543.58   39.59
  -1   7   8  673.01   61.57
  -1   7   8  715.44   46.38
  -1   7   7 2218.02  153.46
  -1   7   7 2261.41  129.27
  -1   7   6 1083.83   62.41
  -1   7   6 1273.73   67.04
  -1   7   5  274.56   19.98
  -1   7   4   75.58   10.73
  -1   7   3  118.42   14.10
  -1   7   2  108.41   14.32
  -1   7   1    2.21    6.21
  -1   7   0   40.36   17.01
  -1   7  -1  132.80   18.16
  -1   7  -2  771.17   52.55
  -1   7  -3  453.23   37.50
  -1   7  -4   12.02   10.39
  -1   7  -5  761.19   56.30
  -1   7  -6  226.35   28.38
  -1   7  -7   87.45   20.13
  -1   7  -8   26.63   15.04
  -1   7  -9  200.33   46.32
  -1   7 -10  191.93   32.03
  -1   6  16  227.13   33.46
  -1   6  16  280.82   38.78
  -1   6  15  124.01   23.25
  -1   6  15  180.60   28.43
  -1   6  14  111.29   21.22
  -1   6  14  161.15   26.15
  -1   6  13   92.68   27.97
  -1   6  13  138.57   33.80
  -1   6  12  678.53   51.13
  -1   6  12  824.24   58.10
  -1   6  11   86.02   15.74
  -1   6  11  104.27   17.45
  -1   6  10  121.53   17.10
  -1   6  10  145.95   18.57
  -1   6   9  333.48   27.93
  -1   6   9  386.09   29.60
  -1   6   8   23.87    6.04
  -1   6   8   22.06    9.19
  -1   6   8   41.51    9.35
  -1   6   7   33.06    5.24
  -1   6   7   10.87    9.00
  -1   6   7   48.63    9.02
  -1   6   6  887.81   50.22
  -1   6   6 1103.32   55.92
  -1   6   5 1119.98   60.67
  -1   6   5 1213.92   59.59
  -1   6   4  116.57   15.55
  -1   6   3  329.65   26.95
  -1   6   2  998.87   53.11
  -1   6   1   95.27   12.20
  -1   6   0    5.50    9.62
  -1   6  -1  225.42   19.38
  -1   6  -2   12.83    7.96
  -1   6  -3  505.97   46.40
  -1   6  -4  367.64   30.01
  -1   6  -5  404.94   33.07
  -1   6  -6  720.95   50.60
  -1   6  -7   18.82   11.02
  -1   6  -8  117.21   29.79
  -1   6  -9   49.85   16.16
  -1   6 -10  136.61   36.26
  -1   6 -11   69.78   20.63
  -1   6 -12  114.75   40.55
  -1   5  17   37.29   17.34
  -1   5  17   46.15   18.14
  -1   5  16  410.79   46.17
  -1   5  16  536.05   50.55
  -1   5  15   33.47   22.62
  -1   5  15   53.32   16.85
  -1   5  14  106.42   18.74
  -1   5  14  136.72   22.06
  -1   5  13  489.22   41.48
  -1   5  13  627.77   62.80
  -1   5  12   67.93   13.64
  -1   5  12   75.94   16.31
  -1   5  11   57.09   13.37
  -1   5  10  369.10   29.30
  -1   5   9   19.67    8.71
  -1   5   8  365.80   25.42
  -1   5   7    1.50    4.69
  -1   5   6 5638.92  322.62
  -1   5   5   13.57    5.21
  -1   5   4  108.97    8.52
  -1   5   3  328.70   17.67
  -1   5   2  371.34   26.38
  -1   5   1   13.48    5.51
  -1   5   0 3760.50  210.89
  -1   5  -1 3459.47  177.85
  -1   5  -2 1434.34   71.58
  -1   5  -3   24.85    7.84
  -1   5  -4  281.48   21.70
  -1   5  -5 1963.94  105.57
  -1   5  -6 2099.95  117.13
  -1   5  -7   73.52   13.44
  -1   5  -8  578.76   42.11
  -1   5  -9   76.76   16.67
  -1   5 -10  244.65   27.42
  -1   5 -11  278.72   31.96
  -1   5 -12   21.32   14.10
  -1   5 -13  122.01   25.34
  -1   4  17   12.61   13.26
  -1   4  17   17.58   13.25
  -1   4  16    8.27   11.91
  -1   4  16   29.96   19.44
  -1   4  15   12.15   10.45
  -1   4  15    9.73   11.29
  -1   4  14   98.67   16.98
  -1   4  14  104.40   19.22
  -1   4  13  788.46   57.14
  -1   4  13 1296.20   76.74
  -1   4  12  960.27   76.39
  -1   4  11  365.69   28.62
  -1   4  10   47.52   10.80
  -1   4   9   83.17   12.10
  -1   4   8  666.85   38.07
  -1   4   7  829.99   43.19
  -1   4   6  386.08   21.93
  -1   4   5 2941.01  141.49
  -1   4   4  162.80   11.04
  -1   4   0 1507.97   67.04
  -1   4  -1 1871.03   85.26
  -1   4  -2   18.75    5.94
  -1   4  -3   24.89    6.54
  -1   4  -4   93.25   15.53
  -1   4  -5   51.85    9.01
  -1   4  -6  795.95   43.48
  -1   4  -7   96.69   13.37
  -1   4  -8   16.02    7.93
  -1   4  -9  106.65   15.38
  -1   4 -10   75.43   14.87
   1  -4  11  173.53   22.73
  -1   4 -11  170.32   22.36
   1  -4  12  248.79   39.54
  -1   4 -12  489.19   42.80
  -1   4 -13  204.35   43.89
  -1   4 -14  727.21   66.73
  -1   3  17   36.98   17.51
  -1   3  17   41.43   15.91
  -1   3  16  419.30   62.04
  -1   3  16  470.21   43.74
  -1   3  15  167.07   24.66
  -1   3  15  215.93   36.39
  -1   3  14    4.17    4.97
  -1   3  14   11.92    8.51
  -1   3  14    7.25    8.70
  -1   3  13   31.31    7.80
  -1   3  13   83.21   13.13
  -1   3  12   30.26    4.40
  -1   3  12   58.55   11.37
  -1   3  11   77.03    9.24
  -1   3  11  123.91   20.90
  -1   3  10   73.59    6.24
  -1   3  10   82.34   11.88
  -1   3   9   27.90    7.68
  -1   3   8   17.21    6.58
  -1   3   7 4506.26  239.63
  -1   3   6  310.21   18.05
  -1   3   5 1446.37   62.73
  -1   3   4 4623.39  220.34
   1  -3  -3   95.08    6.21
   1  -3  -2   14.43    2.93
   1  -3  -1  119.76    6.12
   1  -3   0 1504.46   51.42
   1  -3   115276.76  931.13
   1  -3   2 3313.25  125.07
  -1   3  -2 3405.12  154.52
  -1   3  -2 3199.19  122.52
  -1   3  -3   88.42    8.79
  -1   3  -4 1589.82   70.10
   1  -3   5  216.78    5.25
  -1   3  -5  233.75   14.78
   1  -3   6  335.41   10.45
  -1   3  -6  306.50   18.98
   1  -3   7  237.73    9.70
   1  -3   7  187.86    8.78
  -1   3  -7  205.26   15.68
   1  -3   8   43.10    3.72
   1  -3   8   36.02    3.49
  -1   3  -8   39.53    8.47
   1  -3   9   12.11    3.16
   1  -3   9    3.33    4.45
  -1   3  -9   13.20    6.71
   1  -3  10   75.52    9.77
   1  -3  10   56.25    6.24
  -1   3 -10   67.59   20.79
   1  -3  11  179.20   16.59
   1  -3  11  143.64   16.00
  -1   3 -11  211.42   21.81
   1  -3  12  121.64   16.10
   1  -3  12  115.18   11.18
  -1   3 -12  148.93   20.26
   1  -3  13  755.54   56.34
   1  -3  13  788.10   68.34
   1  -3  14   41.19    8.44
   1  -3  14   38.67   10.02
  -1   3 -14   94.40   15.85
  -1   3 -15  135.23   33.90
  -1   2  17   25.14   19.24
  -1   2  17   64.73   16.34
  -1   2  16    4.82   15.88
  -1   2  16   -6.68    8.85
  -1   2  15    7.99    5.47
  -1   2  15   25.94   11.11
  -1   2  15   31.17   10.45
  -1   2  14  159.59   15.65
  -1   2  14  246.25   24.28
  -1   2  13  176.55   15.29
  -1   2  13  262.06   32.32
  -1   2  12  685.64   40.85
  -1   2  12  992.86   56.38
  -1   2  11 1527.42   83.04
  -1   2  11 1874.03  101.87
  -1   2  10  186.32   12.51
  -1   2  10  170.03   16.51
  -1   2   9  658.61   44.99
  -1   2   8    8.67    5.06
  -1   2   7 2155.44   98.62
  -1   2   6  484.25   23.36
   1  -2  -5 2843.19  123.50
  -1   2   5 3389.03  155.13
   1  -2  -4  108.92   10.47
  -1   2   4  134.79    8.33
   1  -2  -3  491.12   18.10
  -1   2   3  533.01   19.45
   1  -2  -2   13.14    2.53
   1  -2  -1  343.00   11.20
   1  -2   0   27.98    2.17
   1  -2   1  588.21   15.94
   1  -2   2 1770.22   53.19
  -1   2  -2 1643.75   50.88
   1  -2   3 1469.21   45.00
  -1   2  -3 1712.79   64.50
   1  -2   424119.40 1576.87
  -1   2  -422385.48 1673.06
   1  -2   526582.71 1839.78
  -1   2  -523610.37 1804.68
   1  -2   6   50.95    4.64
  -1   2  -6   32.47    9.66
   1  -2   7  152.70    9.32
  -1   2  -7  129.48   10.78
   1  -2   8   66.87    5.29
   1  -2   8   71.50    6.96
  -1   2  -8   68.08   10.06
   1  -2   9 1054.12   49.36
  -1   2  -9 1050.99   55.56
   1  -2  10  437.67   26.02
  -1   2 -10  429.88   37.62
   1  -2  11  526.84   32.78
   1  -2  11  488.62   26.57
  -1   2 -11  586.49   36.88
   1  -2  12   37.56    9.98
   1  -2  12   33.37    9.71
  -1   2 -12   12.95    9.58
   1  -2  13    8.26    5.39
   1  -2  13    4.59    5.64
  -1   2 -13   13.58    8.08
   1  -2  14  453.33   34.45
   1  -2  14  542.37   39.22
  -1   2 -14  659.17   45.06
   1  -2  15   41.26    9.61
   1  -2  15   49.63    9.88
  -1   2 -15   43.34   13.23
   1  -2  16   13.70   11.70
   1  -2  16   11.91    8.03
  -1   2 -16   25.31   10.52
  -1   1  17   26.40   18.91
  -1   1  17   43.00   21.86
  -1   1  16   39.68   29.79
  -1   1  16   62.58   15.66
  -1   1  15  185.47   21.40
  -1   1  15  262.24   31.88
  -1   1  15  302.62   28.68
  -1   1  14   40.23    9.82
  -1   1  14   32.16   12.87
  -1   1  14   57.92   18.17
  -1   1  13   95.53   18.58
  -1   1  13  101.83   15.18
  -1   1  12   -1.25    7.62
  -1   1  12    3.98    5.81
  -1   1  11   19.96    6.68
  -1   1  11   24.32   12.04
  -1   1  10  557.18   28.40
  -1   1  10  415.97   27.64
  -1   1   9  653.01   31.06
  -1   1   9  677.37   35.40
  -1   1   8  115.46   11.22
  -1   1   8  105.24   10.07
  -1   1   7 9753.87  581.56
  -1   1   6 3310.74  153.16
   1  -1  -5    8.73    3.20
  -1   1   5   12.43    3.59
   1  -1  -4   23.32    3.27
  -1   1   4   21.13    3.63
   1  -1  -3   79.59    4.98
  -1   1   3   85.41    5.22
   1  -1  -2  116.18    5.43
  -1   1   2  109.37    5.44
   1  -1  -1 5955.60  254.51
  -1   1   1 6042.91  263.69
   1  -1   037041.41 2874.13
  -1   1   035932.26 2899.50
   1  -1   1 1083.57   32.62
   1  -1   2 2021.75   63.55
  -1   1  -2 1922.22   62.03
   1  -1   3 6036.85  251.51
   1  -1   4  123.93    5.76
  -1   1  -4   99.77    6.21
   1  -1   5  174.41    6.82
  -1   1  -5  194.88    9.94
   1  -1   6 2699.46  106.02
  -1   1  -6 2770.76  117.36
  -1   1  -7 9325.43  546.57
   1  -1   8  124.00    8.16
  -1   1  -8  162.00   11.13
   1  -1   9  340.78   17.37
  -1   1  -9  420.21   22.06
   1  -1  10   71.75    7.92
   1  -1  10   65.92    7.05
  -1   1 -10   97.34   13.89
   1  -1  11   16.71    5.74
   1  -1  11   18.62    5.25
  -1   1 -11   19.36    6.68
   1  -1  12 2348.37  132.56
   1  -1  12 2110.89  116.20
  -1   1 -12 2248.77  124.00
   1  -1  13    4.55    6.69
   1  -1  13   -8.03    6.97
  -1   1 -13    1.23    7.55
   1  -1  14   40.97    9.38
   1  -1  14   48.22    9.62
  -1   1 -14   46.01   10.18
   1  -1  15    1.12    5.51
   1  -1  15    1.55    5.94
  -1   1 -15    1.90    5.81
   1  -1  16   10.16   12.20
   1  -1  16    7.72    8.45
  -1   1 -16   21.82   12.70
   1  -1  17   -0.28    6.87
   1  -1  17    4.10    7.17
  -1   1 -17    4.98    6.94
  -1   0  17   47.15   31.02
  -1   0  17   46.31   25.91
  -1   0  16  126.56   27.77
  -1   0  16  146.87   23.56
  -1   0  15  220.23   30.31
  -1   0  15  337.87   39.32
  -1   0  15  378.49   35.11
  -1   0  14  170.10   21.32
  -1   0  14  183.78   24.97
  -1   0  14  165.29   20.58
  -1   0  13  502.47   52.53
  -1   0  13  497.54   37.71
  -1   0  12   13.41    8.72
  -1   0  12   19.23    7.98
  -1   0  11  192.03   18.35
  -1   0  11  191.83   23.72
  -1   0  10  155.40   18.67
  -1   0  10  109.30   12.31
  -1   0   9  138.84   11.17
  -1   0   9   93.56   10.70
  -1   0   8 2662.16  124.99
  -1   0   8 2584.02  124.39
  -1   0   7  934.38   39.52
  -1   0   7  910.70   39.74
  -1   0   6 7036.06  370.12
  -1   0   511242.11  658.40
  -1   0   4  307.44   11.61
   1   0  -3  504.14   19.85
  -1   0   3  541.04   18.09
   1   0  -2 7131.08  326.32
  -1   0   2 7149.95  334.23
   1   0  -1 1322.34   44.11
  -1   0   1 1322.19   42.38
   1   0   014993.56  833.33
  -1   0   014588.22  830.84
   1   0   123356.53 1563.92
  -1   0  -125203.11 1716.17
   1   0   2   15.51    1.89
  -1   0  -2    4.94    1.83
   1   0   311035.18  574.85
   1   0   4  118.78    7.22
  -1   0  -5 6648.51  308.59
   1   0   6 1957.72   78.17
  -1   0  -6 2152.41   86.23
   1   0   7 2901.39  130.92
  -1   0  -7 2954.32  124.48
   1   0   8 1043.05   44.41
  -1   0  -8 1150.73   45.66
   1   0   9  639.74   29.52
  -1   0  -9  652.25   28.15
   1   0  10 1339.70   63.51
  -1   0 -10 1431.45   63.29
   1   0  11 1923.45   97.73
   1   0  11 1639.34   81.92
  -1   0 -11 1856.60   96.15
   1   0  12  945.11   54.12
   1   0  12 1203.05   61.28
  -1   0 -12 1201.60   66.65
   1   0  13    1.15    5.01
   1   0  13    2.13    4.80
  -1   0 -13   -0.16    4.03
   1   0  14  284.53   25.57
   1   0  14  319.62   24.26
  -1   0 -14  274.60   21.06
   1   0  15   26.99   16.03
   1   0  15   35.11   15.32
  -1   0 -15   27.26   12.33
   1   0  16  255.00   26.25
   1   0  16  292.45   27.50
  -1   0 -16  239.30   21.57
   1   0  17   13.96    9.54
   1   0  17   11.75   10.14
  -1   0 -17   11.14    7.33
  -1  -1  16   72.37   20.57
  -1  -1  16  106.05   21.18
  -1  -1  15  128.20   22.03
  -1  -1  15   84.45   20.06
  -1  -1  15   96.85   20.03
  -1  -1  14  260.79   42.45
  -1  -1  14  158.23   24.79
  -1  -1  14  229.28   35.75
  -1  -1  13  137.88   23.88
  -1  -1  13  156.54   19.80
  -1  -1  12 1711.96  117.27
  -1  -1  12 1684.57  114.05
  -1  -1  11  656.33   44.26
  -1  -1  11  619.15   42.85
   1   1 -10  690.59   39.23
  -1  -1  10  696.58   42.31
  -1  -1  10  698.88   42.59
   1   1  -9 3423.34  184.70
  -1  -1   9 3622.85  203.04
  -1  -1   9 3612.45  205.09
   1   1  -8   34.62    6.68
  -1  -1   8   37.81    6.91
  -1  -1   8   35.41    6.17
   1   1  -7  168.90   11.27
  -1  -1   7  166.56   11.98
  -1  -1   7  168.93   10.65
   1   1  -6  853.24   37.37
  -1  -1   6  981.85   46.45
  -1  -1   6  895.16   36.12
   1   1  -5  236.22   12.50
  -1  -1   5  236.87   12.37
  -1  -1   5  257.02   11.23
   1   1  -4  418.65   17.33
  -1  -1   4  431.44   15.23
   1   1  -3 7804.75  405.80
  -1  -1   3 7785.27  382.81
  -1  -1   3 8295.94  413.62
  -1  -1   2 1219.16   40.79
  -1  -1   2 1354.85   44.36
  -1  -1   121305.21 1407.49
  -1  -1   122839.12 1496.00
   1   1   0 9701.56  496.76
  -1  -1   012974.48  653.87
   1   1   128881.84 2101.21
  -1  -1  -127914.05 2014.18
   1   1   211335.43  608.47
  -1  -1  -211496.10  611.77
   1   1   3 1254.19   43.07
  -1  -1  -3 1315.54   44.69
   1   1   426477.90 2029.76
  -1  -1  -431395.19 2319.34
   1   1   5   31.56    4.03
   1   1   6  202.62   10.90
  -1  -1  -6  245.14    8.46
   1   1   7  206.56   11.20
  -1  -1  -7  211.78    8.06
   1   1   8  248.17   13.94
  -1  -1  -8  270.86   13.03
   1   1   9  216.57   13.75
  -1  -1  -9  229.93   12.82
   1   1  10   91.01    9.74
  -1  -1 -10  102.96    9.34
   1   1  11 2386.89  124.22
  -1  -1 -11 2516.27  117.60
   1   1  12   38.35    8.49
   1   1  12   31.95    8.06
  -1  -1 -12   24.99    8.09
   1   1  13 2630.04  145.64
   1   1  13 2767.68  167.17
  -1  -1 -13 2318.34  123.85
   1   1  14 1899.28  121.69
   1   1  14 2532.30  143.67
  -1  -1 -14 1986.46  118.08
   1   1  15 1855.09  123.50
   1   1  15 1870.74  120.74
   1   1  16  313.16   34.63
   1   1  16  361.98   31.73
   1   1  17   60.03   26.43
   1   1  17   69.88   16.28
   1   1  18   14.21   12.86
   1   1  18   40.12   20.06
  -1  -2  16   18.62   10.72
  -1  -2  16   34.45   14.22
  -1  -2  15   44.85   13.85
  -1  -2  15   94.62   26.61
  -1  -2  14   14.14   12.28
  -1  -2  14    6.69    7.12
  -1  -2  14   -2.20    9.28
   1   2 -13  306.28   31.18
  -1  -2  13  643.67   48.87
   1   2 -12  505.88   37.02
  -1  -2  12  566.47   48.14
  -1  -2  12  491.94   45.23
   1   2 -11  647.51   42.14
  -1  -2  11  697.93   49.52
  -1  -2  11  669.93   63.22
   1   2 -10  815.45   58.90
  -1  -2  10  781.10   50.12
  -1  -2  10  796.43   64.08
   1   2  -9    9.92    5.70
  -1  -2   9   -2.45    6.16
  -1  -2   9    4.85    7.91
   1   2  -8  708.90   36.85
  -1  -2   8  694.71   38.98
  -1  -2   8  683.95   37.51
   1   2  -7   41.80    7.34
  -1  -2   7   53.62    7.99
  -1  -2   7   45.85    5.73
   1   2  -6  693.02   38.76
  -1  -2   6  669.62   32.37
  -1  -2   6  659.87   28.01
   1   2  -5 4546.53  219.36
  -1  -2   5 4356.02  214.37
  -1  -2   5 4567.63  228.57
   1   2  -4 2396.46  101.61
  -1  -2   4 2216.32   96.68
  -1  -2   4 2439.26   97.84
   1   2  -3  331.59   14.77
  -1  -2   3  303.62   14.31
  -1  -2   3  327.26   13.74
   1   2  -2  649.29   27.83
  -1  -2   2  567.78   21.53
  -1  -2   2  553.33   17.32
   1   2  -1  586.32   21.44
  -1  -2   1  649.74   22.71
  -1  -2   1  610.53   18.31
   1   2   029151.82 2122.34
   1   2   027207.24 2005.55
  -1  -2   027763.51 2022.69
  -1  -2   027138.66 1953.23
   1   2   1 8223.58  424.21
  -1  -2  -1 8525.13  414.93
  -1  -2  -1 8487.43  417.79
   1   2   221582.39 1497.70
  -1  -2  -222521.55 1495.91
  -1  -2  -222813.19 1523.47
   1   2   3126830.917227.19
  -1  -2  -3120402.655373.52
  -1  -2  -3132517.635890.55
   1   2   410219.06  575.16
  -1  -2  -4 9678.42  520.23
   1   2   5 1535.12   62.48
  -1  -2  -5 1790.24   73.78
   1   2   6 1888.38   80.17
  -1  -2  -6 2045.71   62.30
   1   2   7   72.03    6.80
  -1  -2  -7   59.76    3.09
   1   2   8 1620.69   74.19
  -1  -2  -8 1741.74   59.44
   1   2   9 1591.23   74.91
  -1  -2  -9 1708.81   64.70
   1   2  10  120.66   11.87
  -1  -2 -10  132.62    6.04
   1   2  11  109.60   12.75
  -1  -2 -11  112.80    8.72
   1   2  12 2333.66  124.02
  -1  -2 -12 2092.40  107.15
   1   2  13    8.08    6.49
   1   2  13    7.18    6.15
  -1  -2 -13    1.96    3.00
   1   2  14  457.30   36.62
   1   2  14  471.06   34.77
   1   2  15    1.69   10.94
   1   2  15   -1.20    6.57
   1   2  16   12.30   11.60
   1   2  16   17.90   10.59
   1   2  17    3.55   11.32
   1   2  17   12.42   10.26
   1   2  18  104.07   37.44
   1   2  18  122.33   23.25
  -1  -3  15    0.84    7.33
   1   3 -14   16.61    9.84
  -1  -3  14   -0.19   12.97
  -1  -3  14    2.16    9.02
  -1  -3  14   11.16   11.75
   1   3 -13  329.25   32.18
  -1  -3  13  381.75   42.84
  -1  -3  13  273.29   47.25
   1   3 -12   70.66   14.51
  -1  -3  12   55.10   18.19
  -1  -3  12   61.49   18.88
   1   3 -11  423.20   33.07
  -1  -3  11  462.36   41.11
  -1  -3  11  458.90   47.03
   1   3 -10    5.42    6.93
  -1  -3  10    2.28   13.95
  -1  -3  10    7.23    7.83
   1   3  -913039.69 1004.92
  -1  -3   914499.91 1068.84
  -1  -3   914073.95 1436.47
   1   3  -8 6472.08  398.63
  -1  -3   8 5813.47  347.21
  -1  -3   8 6120.38  481.58
   1   3  -7    4.96    5.89
  -1  -3   7   16.90    6.27
  -1  -3   7    6.15    4.18
   1   3  -6 3609.71  191.19
  -1  -3   6 3719.84  191.40
  -1  -3   6 3875.95  217.46
   1   3  -5    1.14    3.91
  -1  -3   5    5.74    4.07
  -1  -3   5    0.16    2.15
   1   3  -4    9.16    4.70
  -1  -3   4    7.05    4.73
  -1  -3   4   10.03    2.15
   1   3  -3  469.86   27.44
  -1  -3   3  441.63   21.51
  -1  -3   3  425.37   15.10
   1   3  -2  859.81   41.31
  -1  -3   2  825.28   35.25
  -1  -3   2  788.50   25.96
   1   3  -1  334.87   14.74
  -1  -3   1  344.85   15.74
  -1  -3   1  307.61   11.91
   1   3   0  492.71   17.29
  -1  -3   0  546.61   20.83
  -1  -3   0  533.36   19.53
  -1  -3  -1 2145.21   87.73
  -1  -3  -1 2096.00   75.60
  -1  -3  -2 2868.91  113.02
  -1  -3  -2 2748.00  108.11
  -1  -3  -3 7604.48  370.55
  -1  -3  -3 7374.71  370.50
   1   3   4 1241.87   56.49
  -1  -3  -4 1400.65   46.94
  -1  -3  -4 1420.48   53.76
   1   3   5 4802.69  244.20
  -1  -3  -5 5468.17  230.82
  -1  -3  -5 5718.10  270.00
   1   3   6 2746.14  124.59
   1   3   720723.76 1566.91
   1   3   8 2396.85  115.82
   1   3   9   86.91   10.13
   1   3  10   44.34    8.95
   1   3  11  214.69   19.27
   1   3  12   46.67   11.17
   1   3  13   15.37    9.33
   1   3  13   19.42   10.31
   1   3  14   17.72   10.35
   1   3  14   17.69    9.24
   1   3  15   14.11   16.38
   1   3  15   10.56   10.38
   1   3  16  492.26   46.34
   1   3  16  409.32   40.09
   1   3  17 1311.09  107.24
   1   3  17 1258.40   95.70
   1   3  18   60.06   21.89
   1   3  18   66.94   29.72
   1   4 -14    3.93    9.90
   1   4 -13  128.53   22.42
  -1  -4  13  140.74   27.28
   1   4 -12   19.26   14.30
  -1  -4  12    6.75   11.38
  -1  -4  12    1.08    5.69
  -1  -4  12   11.37   16.38
   1   4 -11  274.71   28.72
  -1  -4  11  329.67   48.86
  -1  -4  11  299.45   57.43
   1   4 -10  547.99   40.94
  -1  -4  10  546.25   46.95
  -1  -4  10  605.01   67.56
   1   4  -9   -4.58   11.43
  -1  -4   9    6.84    8.65
  -1  -4   9    8.31   10.76
   1   4  -8   36.67   10.93
  -1  -4   8   46.71   11.75
  -1  -4   8   36.46    7.68
   1   4  -7 4438.94  257.46
  -1  -4   7 4522.31  256.29
  -1  -4   7 3598.41  294.62
   1   4  -6 1345.70   69.33
  -1  -4   6 1309.05   69.79
  -1  -4   6 1200.54   64.97
   1   4  -5 1117.03   65.18
  -1  -4   5 1070.57   54.50
  -1  -4   5  955.62   48.54
   1   4  -4  639.63   32.41
  -1  -4   4  589.82   31.94
  -1  -4   4  586.23   25.74
   1   4  -3   19.49    5.91
  -1  -4   3   29.17    6.31
  -1  -4   3   19.72    3.61
   1   4  -2   31.33    5.70
  -1  -4   2   13.95    6.13
  -1  -4   2   24.05    2.71
   1   4  -114774.62  991.75
   1   4  -116082.83 1143.00
  -1  -4   116090.69 1088.77
  -1  -4   115584.33 1023.80
   1   4   0   47.16    5.92
   1   4   0   53.83    6.16
  -1  -4   0   55.42    6.49
  -1  -4   0   49.56    4.10
  -1  -4  -1 1394.37   58.25
  -1  -4  -1 1491.39   54.85
  -1  -4  -2 1626.03   68.43
  -1  -4  -2 1438.95   55.45
  -1  -4  -3 1006.89   38.33
  -1  -4  -3 1129.06   43.23
  -1  -4  -4 1923.21   76.10
  -1  -4  -4 1969.26   80.94
  -1  -4  -5 1564.57   56.52
  -1  -4  -5 1448.59   61.48
   1   4   6 6368.23  347.21
   1   4   7 1677.94   77.61
   1   4   8 3473.93  179.80
   1   4   9 1331.70   68.71
   1   4  10 3851.95  219.08
   1   4  11 2918.85  168.67
   1   4  12  239.62   23.06
   1   4  13  335.79   30.39
   1   4  13  401.41   32.92
   1   4  14   63.08   15.22
   1   4  14   65.52   15.97
   1   4  15   50.95   22.45
   1   4  15   45.76   16.66
   1   4  16   77.67   20.57
   1   4  16  124.48   23.06
   1   4  17   28.92   16.12
   1   4  17   31.49   17.90
   1   4  18   66.88   21.53
   1   4  18   53.45   20.87
   1   5 -13  208.49   31.13
   1   5 -12   18.44   20.98
   1   5 -11   20.31   12.13
  -1  -5  11   10.66   13.93
   1   5 -10  501.83   43.56
  -1  -5  10  526.01   49.50
   1   5  -9   37.92   17.89
  -1  -5   9   41.10   12.73
  -1  -5   9    6.09    8.94
   1   5  -8  206.85   23.02
  -1  -5   8  178.00   24.32
   1   5  -7  430.90   33.38
  -1  -5   7  416.54   35.28
   1   5  -6 2722.77  159.46
  -1  -5   6 3283.47  203.85
   1   5  -5 1081.21   59.44
  -1  -5   5  991.92   59.28
   1   5  -4   81.36   12.09
  -1  -5   4   81.61   12.68
   1   5  -3  544.56   31.31
  -1  -5   3  526.60   32.43
   1   5  -2 5056.48  274.65
  -1  -5   2 5206.89  282.22
  -1  -5   2 4501.52  247.70
   1   5  -1 1431.57   71.11
   1   5  -1 1575.59   74.92
  -1  -5   1 1596.91   74.90
  -1  -5   1 1499.90   63.64
   1   5   0  920.95   43.40
   1   5   0  971.23   45.83
  -1  -5   0  924.84   45.16
  -1  -5   0  967.38   36.67
   1   5   1   97.92    8.70
  -1  -5  -1   92.84    9.70
  -1  -5  -1   99.96    6.72
  -1  -5  -2   52.79    7.09
  -1  -5  -2   73.89    8.55
  -1  -5  -3  170.37   14.60
  -1  -5  -3  220.93   11.76
  -1  -5  -4 2058.30   86.12
  -1  -5  -5  123.42    6.41
   1   5   6 1300.73   61.93
   1   5   7    7.76    5.40
   1   5   8   69.81   15.12
   1   5   9  107.22   13.38
   1   5  10  156.12   16.89
   1   5  11   14.16    8.85
   1   5  12 1460.91   89.92
   1   5  13  106.71   17.71
   1   5  13  115.80   18.43
   1   5  14  164.76   34.54
   1   5  14  200.85   25.30
   1   5  15   25.68   18.90
   1   5  15   13.77   12.74
   1   5  16  218.77   31.87
   1   5  16  290.06   35.47
   1   5  17   33.46   17.75
   1   5  17   57.23   29.64
   1   5  18   39.36   19.80
   1   5  18   47.76   21.23
   1   6 -12   92.22   38.23
   1   6 -11  356.80   43.46
   1   6 -10  273.12   33.51
  -1  -6  10  219.41   32.36
   1   6  -9   15.85   17.65
  -1  -6   9   10.54   12.99
   1   6  -8    4.17    9.06
  -1  -6   8    6.93   10.99
   1   6  -7  493.00   39.76
  -1  -6   7  534.24   62.07
   1   6  -6  466.75   36.37
  -1  -6   6  450.36   39.21
   1   6  -5   51.72   18.96
  -1  -6   5   40.11   13.78
   1   6  -4   36.90   11.21
  -1  -6   4   53.02   13.14
   1   6  -3  980.76   56.22
  -1  -6   3  941.50   59.29
   1   6  -2 4929.67  281.61
  -1  -6   2 4957.58  293.55
   1   6  -1  449.34   29.31
  -1  -6   1  475.85   32.29
   1   6   0 2261.18  112.53
   1   6   0 2106.66  114.23
  -1  -6   0 2380.03  123.09
  -1  -6   0 2139.35   99.67
   1   6   1  781.86   39.39
   1   6   1  774.32   40.00
  -1  -6  -1  842.14   44.77
  -1  -6  -2 1462.69   71.56
  -1  -6  -3  112.48   15.62
  -1  -6  -4   12.39    4.28
   1   6   6  123.96   11.38
   1   6   7  330.17   22.45
   1   6   8  729.54   43.31
   1   6   9  213.83   20.85
   1   6  10 2034.33  121.81
   1   6  11 1583.23  117.62
   1   6  12  417.02   49.70
   1   6  13  223.39   28.56
   1   6  13  297.39   30.27
   1   6  14   81.03   18.82
   1   6  14   83.23   19.13
   1   6  15   49.84   17.10
   1   6  15   57.07   18.75
   1   6  16  642.19   60.00
   1   6  16  714.80   65.44
   1   6  17  229.37   35.37
   1   6  17  287.26   55.60
   1   7 -10  727.59   65.77
   1   7  -9  122.03   23.94
   1   7  -8   18.35   13.59
   1   7  -7   28.68   14.51
  -1  -7   7   39.36   15.44
   1   7  -6  126.28   20.62
  -1  -7   6  104.92   22.07
   1   7  -5    6.06    7.11
  -1  -7   5   -7.00    8.03
   1   7  -4   10.47   15.46
  -1  -7   4   14.72   11.30
   1   7  -3   21.05   10.41
  -1  -7   3   22.02   11.97
   1   7  -2   77.33   14.50
  -1  -7   2   98.57   17.01
   1   7  -1   71.45   12.48
  -1  -7   1   64.08   14.96
   1   7   0  759.79   46.31
   1   7   0  794.23   47.49
  -1  -7   0  801.74   50.58
   1   7   1    9.33    6.34
   1   7   1    6.32    6.24
  -1  -7  -1   16.27    7.82
   1   7   2  164.08   20.27
  -1  -7  -2  156.50   15.80
   1   7   7    7.94    6.04
   1   7   8  312.92   33.16
   1   7   9   29.54   10.51
   1   7  10   40.18   12.65
   1   7  11  878.03   63.22
   1   7  12  179.38   24.71
   1   7  12  191.95   24.84
   1   7  13   -2.12   10.22
   1   7  13   12.59   10.29
   1   7  14  222.53   30.94
   1   7  14  243.20   47.48
   1   7  15  597.90   58.03
   1   7  15  712.09   63.77
   1   7  16   45.10   20.76
   1   7  16   72.38   21.54
   1   8  -8  182.16   46.02
   1   8  -7   15.12   14.16
   1   8  -6  145.33   25.76
   1   8  -5   33.84   14.79
   1   8  -4  -12.09   11.32
   1   8  -3  914.60   64.99
   1   8  -2   62.16   23.16
   1   8  -1    7.94   13.28
   1   8   0  422.00   44.66
   1   8   0  427.81   34.17
   1   8   1  409.14   40.65
   1   8   1  409.95   36.31
   1   8   2  508.46   32.90
   1   8   2  475.27   36.77
   1   8   7  108.75   14.17
   1   8   8  778.12   50.81
   1   8   9  194.66   21.73
   1   8  10   23.25   11.59
   1   8  10   27.57   12.85
   1   8  11  -12.71   12.67
   1   8  11    7.17    8.50
   1   8  12  158.04   38.34
   1   8  12  163.35   26.14
   1   8  13  240.88   48.37
   1   8  13  280.12   51.66
   1   8  14   92.18   33.61
   1   8  14   78.21   22.91
   1   8  15    1.41   23.79
   1   8  15   23.42   15.77
   1   9  -6  165.02   46.04
   1   9  -5   12.18   13.89
   1   9  -4  640.38   60.17
   1   9  -3   25.09   15.13
   1   9  -2 1043.46   79.33
   1   9  -1   -4.41    9.44
   1   9   0  341.53   32.36
   1   9   1  393.78   33.26
   1   9   1  326.66   41.80
   1   9   2  534.46   39.21
   1   9   2  455.72   45.08
   1   9   3    3.59    6.86
   1   9   3    7.68    7.02
   1   9   7   -7.25    8.99
   1   9   7    3.14    7.02
   1   9   8   93.98   16.19
   1   9   8  120.61   19.94
   1   9   9   21.51   11.11
   1   9   9   20.96   12.96
   1   9  10  229.98   40.14
   1   9  10  253.07   32.12
   1   9  11    0.96   11.22
   1   9  11   37.49   20.77
   1   9  12  235.80   34.12
   1   9  12  291.28   37.88
   1   9  13   13.62   15.21
   1   9  13   30.18   17.06
   1   9  14   15.43   13.84
   1   9  14    1.64   14.81
   1  10  -3   66.52   22.29
   1  10  -2  114.98   24.96
   1  10  -1   87.96   21.04
   1  10   0   60.95   17.57
   1  10   1   67.96   16.75
   1  10   2   32.95   18.43
   1  10   2   20.35   19.27
   1  10   3  231.80   31.63
   1  10   3  137.45   25.02
   1  10   4    8.17    8.81
   1  10   7  134.68   23.01
   1  10   8  318.80   36.88
   1  10   8  516.23   46.69
   1  10   9   54.26   26.03
   1  10   9   90.79   21.17
   1  10  10  287.24   38.15
   1  10  10  440.57   45.66
   1  10  11   10.52   12.07
   1  10  11    3.64   14.37
   1  10  12   -0.64   13.53
   1  10  12   18.96   15.11
   1  11   2   24.95   13.20
   1  11   3    3.88    8.75
   1  11   5   48.53   15.19
   1  11   8    2.99    9.30
   1  11   8    6.54   10.81
  -2  10   9  173.57   34.76
  -2  10   9  189.30   27.26
  -2  10   8   17.10   11.73
  -2  10   8    6.80   13.76
  -2  10   8    6.53   11.16
  -2  10   7   60.42   17.32
  -2  10   7  141.07   20.89
  -2  10   6  427.46   51.10
  -2  10   5  137.07   26.37
  -2  10   4  344.28   45.25
  -2  10   3   35.68   18.89
  -2  10   2   15.63   16.16
  -2  10   1   10.43   15.84
  -2  10   0   14.79   27.14
  -2  10  -1   39.45   22.46
  -2  10  -2   29.19   20.46
  -2   9  12   45.88   19.47
  -2   9  12   38.69   18.41
  -2   9  11   91.71   26.77
  -2   9  11  138.40   24.55
  -2   9  10   92.66   24.65
  -2   9  10  103.38   21.37
  -2   9   9    8.93    8.79
  -2   9   9    2.23   12.77
  -2   9   9   12.88   10.54
  -2   9   8  722.32   71.00
  -2   9   8  690.96   58.93
  -2   9   7    5.35    8.49
  -2   9   7    7.77   11.78
  -2   9   7   17.40    9.29
  -2   9   6  446.28   47.27
  -2   9   5  387.47   43.77
  -2   9   4  688.37   66.71
  -2   9   3  724.67   70.62
  -2   9   2  398.53   45.74
  -2   9   1   60.83   20.11
  -2   9   0   12.73   22.07
  -2   9  -1  641.00   63.65
  -2   9  -2   35.59   18.47
  -2   9  -3   23.24   16.93
  -2   9  -4   -7.29   22.24
  -2   9  -5   96.94   27.04
  -2   9  -6  308.56   46.44
  -2   8  14   10.16   22.80
  -2   8  14   32.69   25.83
  -2   8  13   37.10   17.79
  -2   8  13   82.89   30.13
  -2   8  12    1.87    8.76
  -2   8  12   -9.21   14.97
  -2   8  11  105.51   22.30
  -2   8  11  119.09   33.54
  -2   8  10   56.08   16.48
  -2   8  10   51.52   24.98
  -2   8   9   59.30   17.44
  -2   8   9   77.87   24.07
  -2   8   8  144.84   28.00
  -2   8   8  251.62   30.82
  -2   8   8  264.73   25.90
  -2   8   7  847.55   68.71
  -2   8   7  780.65   56.60
  -2   8   6  474.88   62.55
  -2   8   6  677.54   46.81
  -2   8   5   59.11   21.74
  -2   8   4  176.67   23.92
  -2   8   3  577.02   52.42
  -2   8   2 3209.86  235.74
  -2   8   1  956.23   74.91
  -2   8   0 2132.62  175.37
  -2   8  -1   60.38   17.38
  -2   8  -2   29.16   14.81
  -2   8  -3   66.14   29.76
  -2   8  -4   79.81   20.98
  -2   8  -5   60.76   20.18
  -2   8  -6    7.17   21.03
  -2   8  -7  126.84   28.09
  -2   8  -8   49.85   21.69
  -2   7  15  321.91   40.36
  -2   7  15  408.73   48.47
  -2   7  14  444.67   47.33
  -2   7  14  650.50   78.80
  -2   7  13 1636.54  123.54
  -2   7  13 2002.89  144.17
  -2   7  12   41.73   21.87
  -2   7  12  418.64   31.31
  -2   7  11    3.25    6.48
  -2   7  11   46.83   11.87
  -2   7  10    3.70    4.69
  -2   7  10   18.89    9.52
  -2   7   9   92.20   14.76
  -2   7   9  261.81   22.49
  -2   7   8  304.86   32.17
  -2   7   8  563.94   37.74
  -2   7   7   36.66   10.00
  -2   7   7   43.30   16.44
  -2   7   6  201.98   22.74
  -2   7   6  250.74   22.08
  -2   7   5   37.79   11.27
  -2   7   5   40.04   10.12
  -2   7   4    5.55    7.90
  -2   7   3  137.52   27.51
  -2   7   2 2163.74  149.18
  -2   7   1 3204.72  219.84
  -2   7   0 1462.22  118.83
  -2   7  -1   95.56   17.89
  -2   7  -2  372.26   35.49
  -2   7  -3   20.45   18.03
  -2   7  -4  -12.95   11.34
  -2   7  -5   43.33   16.05
  -2   7  -6   37.91   16.01
  -2   7  -7   -6.44   11.44
  -2   7  -8   42.82   18.34
  -2   7  -9  102.74   26.34
  -2   7 -10  415.65   72.74
  -2   6  16   30.26   16.46
  -2   6  16   48.25   19.39
  -2   6  15   60.09   18.01
  -2   6  15   67.82   21.07
  -2   6  14   14.29   12.35
  -2   6  14   27.57   22.69
  -2   6  13    2.21    9.90
  -2   6  12  212.36   28.51
  -2   6  11   54.90   15.35
  -2   6  10 2058.53  131.94
  -2   6   9  715.89   50.03
  -2   6   8  360.85   30.71
  -2   6   7   43.47   11.09
  -2   6   6    3.68    9.58
  -2   6   5   87.90   11.98
  -2   6   1   61.35   11.86
  -2   6   0  911.30   57.85
  -2   6  -1 4903.21  310.08
  -2   6  -2   11.21    8.92
  -2   6  -3   33.86   11.23
  -2   6  -4  393.73   32.95
  -2   6  -5   12.16   15.81
  -2   6  -6 3513.85  228.07
  -2   6  -7  414.55   54.23
  -2   6  -8  338.68   36.73
  -2   6  -9  301.37   51.21
  -2   6 -10   74.65   21.35
  -2   6 -11  154.17   44.88
  -2   6 -12   45.40   21.58
  -2   5  16   86.26   22.79
  -2   5  16  124.40   24.54
  -2   5  15   26.05   14.84
  -2   5  14   18.34   20.56
  -2   5  13  670.59   55.24
  -2   5  12  750.39   57.03
  -2   5  11 1634.07  107.55
  -2   5  10 2142.29  133.53
  -2   5   9  826.48   54.17
  -2   5   8 3299.74  197.02
  -2   5   7  363.87   26.57
  -2   5   6 1222.02   75.94
  -2   5   5  441.26   26.37
  -2   5   4  972.10   48.48
   2  -5  -3    2.26    4.00
   2  -5  -2  318.46   18.23
   2  -5  -1 2414.18  116.64
   2  -5   0  239.62   13.76
   2  -5   1   -2.45    4.42
   2  -5   2  270.62   13.78
  -2   5  -2  379.93   25.14
   2  -5   3  306.64   14.71
  -2   5  -3  355.66   15.87
  -2   5  -4   88.01   14.09
  -2   5  -5  939.16   58.59
  -2   5  -6  895.83   57.96
  -2   5  -7   57.74   14.20
  -2   5  -8  364.19   33.87
  -2   5  -9  483.06   42.85
  -2   5 -10  -14.05   19.63
  -2   5 -11  244.40   33.00
  -2   5 -12  179.52   45.84
  -2   5 -13   56.29   21.83
  -2   4  16    1.96   15.11
  -2   4  16   66.15   16.60
  -2   4  15  123.62   22.77
  -2   4  14   -1.25    3.14
  -2   4  14   11.49    8.00
  -2   4  13   27.35    7.57
  -2   4  13   98.89   21.42
  -2   4  12  271.53   40.75
  -2   4  11   55.43   13.90
  -2   4  10   -4.60    7.52
  -2   4   9  161.74   18.33
  -2   4   8   94.62   12.73
  -2   4   7  114.58   12.89
   2  -4  -6    5.87    5.21
  -2   4   6   16.41    5.69
   2  -4  -5   23.98    5.91
  -2   4   5   27.93    6.19
   2  -4  -4 8289.64  484.94
  -2   4   4 8308.21  480.75
   2  -4  -3 4442.32  223.71
  -2   4   3 4732.21  245.01
   2  -4  -2 3936.92  191.00
   2  -4  -1  465.04   20.62
   2  -4   0 2046.25   89.59
   2  -4   1  132.05    7.44
   2  -4   2 1701.04   72.41
   2  -4   3  716.84   33.27
  -2   4  -3  810.36   32.14
   2  -4   4   -2.44    2.95
  -2   4  -4   -7.45    5.89
   2  -4   5  474.51   20.52
  -2   4  -5  635.92   36.85
   2  -4   6  593.89   30.07
  -2   4  -6  927.14   61.02
  -2   4  -7  655.53   43.38
  -2   4  -8  277.58   25.27
  -2   4  -9 2048.77  125.41
  -2   4 -10  489.55   40.82
  -2   4 -11   17.29   19.28
  -2   4 -12   -1.53    9.41
  -2   4 -13  528.15   51.99
  -2   4 -14  426.34   50.98
  -2   3  17    8.98   11.85
  -2   3  17   -1.57   11.57
  -2   3  16   81.83   21.89
  -2   3  15   49.74   12.02
  -2   3  15  240.19   22.66
  -2   3  14    2.40    4.92
  -2   3  14   -0.57    8.27
  -2   3  13  170.67   21.16
  -2   3  13  362.31   30.26
  -2   3  12   69.89   14.62
  -2   3  11 1028.31   66.17
  -2   3  10  352.39   37.46
  -2   3   9  414.18   37.51
   2  -3  -8   23.89    6.92
  -2   3   8   27.12    7.54
   2  -3  -7   31.74    6.54
  -2   3   7   31.44    7.57
   2  -3  -6 2479.34  120.04
  -2   3   6 2758.59  134.42
   2  -3  -5  115.82   13.31
  -2   3   5  117.31    9.68
   2  -3  -4 1029.72   43.73
  -2   3   4 1093.87   48.18
   2  -3  -3 5482.88  278.84
  -2   3   3 5809.78  290.52
   2  -3  -2 1520.32   66.91
   2  -3  -1 5054.17  238.85
   2  -3   0  915.89   34.53
   2  -3   1  769.34   31.54
   2  -3   2 1291.97   50.79
   2  -3   3  293.54   12.19
  -2   3  -3  272.90   12.79
   2  -3   4    5.90    2.14
   2  -3   5  265.21   12.94
  -2   3  -5  296.04   19.17
   2  -3   6  935.82   37.30
  -2   3  -6  983.03   62.07
   2  -3   7  346.00   15.43
  -2   3  -7  350.82   25.96
   2  -3   8  214.66   12.58
  -2   3  -8  179.31   19.39
   2  -3   9   51.83    7.02
  -2   3  -9   21.96   10.88
   2  -3  10  336.04   21.64
  -2   3 -10  281.10   37.14
   2  -3  11  475.79   32.10
  -2   3 -11  560.96   42.21
   2  -3  12   -2.23    8.28
   2  -3  12    1.08    5.19
  -2   3 -12    7.99    8.29
   2  -3  13  366.97   28.26
   2  -3  13  204.16   24.07
   2  -3  14  219.71   26.01
  -2   3 -14  455.87   41.43
  -2   3 -15   16.03   14.32
  -2   2  17   19.46   17.15
  -2   2  17   42.82   25.57
  -2   2  16   13.89   15.60
  -2   2  16   41.65   15.90
  -2   2  15   20.81   16.31
  -2   2  15   41.77   14.98
  -2   2  14   32.60   18.86
  -2   2  14   67.37   15.92
  -2   2  13   40.98   12.39
  -2   2  13   54.55   20.57
  -2   2  12  268.29   27.10
  -2   2  12  280.75   26.61
  -2   2  11  123.45   16.50
  -2   2  10   63.99   11.66
   2  -2  -9 2285.09  118.05
  -2   2   9 2540.08  136.44
   2  -2  -8 1167.17   55.93
  -2   2   8 1221.71   62.17
   2  -2  -7  481.27   25.69
  -2   2   7  498.21   26.57
   2  -2  -6  680.18   31.77
  -2   2   6  791.32   44.58
   2  -2  -5  713.72   38.27
  -2   2   5  816.33   36.67
   2  -2  -4 2817.64  124.90
  -2   2   4 3096.51  135.42
   2  -2  -3 3098.14  133.83
  -2   2   3 3118.25  138.77
   2  -2  -2 1292.30   49.21
  -2   2   2 1388.87   54.02
   2  -2  -124657.33 1846.39
   2  -2   0 1814.24   69.62
   2  -2   1    7.00    3.73
   2  -2   2  137.11    6.77
  -2   2  -2  134.02    7.01
   2  -2   3   31.51    3.24
  -2   2  -3   43.80    3.52
   2  -2   4   17.28    2.53
   2  -2   5 3762.35  171.38
   2  -2   6 1491.75   56.26
   2  -2   7  800.18   37.33
  -2   2  -7  828.48   53.50
   2  -2   8 2574.18  123.62
  -2   2  -8 2232.74  120.05
   2  -2   9   67.69    7.51
  -2   2  -9   60.00   11.00
   2  -2  10  100.23   13.34
  -2   2 -10   76.69   13.16
   2  -2  11  251.31   17.50
  -2   2 -11  241.26   23.12
   2  -2  12    4.25    5.13
   2  -2  12    3.01    4.30
  -2   2 -12   17.24   13.39
   2  -2  13 1764.37  102.36
   2  -2  13 1435.90   92.37
  -2   2 -13 2020.02  127.85
   2  -2  14   75.86   12.02
   2  -2  14   63.75   10.78
  -2   2 -14  106.90   18.15
   2  -2  15    3.82    6.02
   2  -2  15    3.92    5.76
  -2   2 -15    7.05    9.25
   2  -2  16   15.82    7.55
   2  -2  16   10.67    7.88
  -2   2 -16   27.88   18.46
  -2   1  16   27.85   22.18
  -2   1  16   38.90   16.31
  -2   1  15  173.36   26.50
  -2   1  15  223.77   41.80
  -2   1  14   37.53   14.84
  -2   1  14   53.03   14.81
  -2   1  13  758.75   65.21
  -2   1  13  788.98   60.11
  -2   1  12  692.02   53.97
  -2   1  12  712.58   53.57
  -2   1  11  259.71   23.63
  -2   1  11  274.17   25.70
  -2   1  10  452.89   32.98
   2  -1  -9   32.33    7.55
  -2   1   9   34.39    8.96
   2  -1  -8 1197.84   60.30
  -2   1   8 1312.49   68.35
   2  -1  -7 1368.76   63.47
  -2   1   7 1571.41   74.26
   2  -1  -6   -1.38    4.67
  -2   1   6    0.19    3.25
   2  -1  -5 1603.55   74.80
  -2   1   5 1590.32   69.70
   2  -1  -4  600.00   30.47
  -2   1   4  598.93   25.41
   2  -1  -3  149.12    8.41
  -2   1   3  139.10    8.57
   2  -1  -2 1578.46   61.35
  -2   1   2 1544.38   59.60
   2  -1  -1   42.90    4.41
  -2   1   1   37.57    6.56
   2  -1   0 3854.06  159.60
   2  -1   110419.60  573.05
   2  -1   2   63.43    4.27
  -2   1  -2   61.96    4.50
   2  -1   3 1208.48   43.31
  -2   1  -3 1324.64   48.60
   2  -1   4  182.23    8.22
   2  -1   514450.58  918.47
   2  -1   6  369.58   15.54
   2  -1   7  175.51    9.50
   2  -1   8 1473.33   70.31
  -2   1  -8 1451.93   70.07
   2  -1   9  593.53   28.87
  -2   1  -9  594.30   33.92
   2  -1  10 1029.50   52.26
  -2   1 -10 1326.99   77.09
   2  -1  11   12.31    8.90
  -2   1 -11   17.25   11.95
   2  -1  12   42.07   13.08
  -2   1 -12   44.16   10.65
   2  -1  13 2230.82  134.39
   2  -1  13 1758.96  112.42
  -2   1 -13 2218.45  131.45
   2  -1  14  405.15   40.14
   2  -1  14  388.54   40.78
  -2   1 -14  458.66   34.45
   2  -1  15  343.82   37.53
   2  -1  15  304.14   38.66
  -2   1 -15  348.46   30.82
   2  -1  16    0.51    6.90
   2  -1  16    2.80    7.00
  -2   1 -16   11.41   11.67
   2  -1  17   39.26   11.99
   2  -1  17   37.67   12.48
  -2   1 -17   53.01   18.88
  -2   0  16    3.14   11.36
  -2   0  16    2.14   10.51
  -2   0  15   12.84   14.24
  -2   0  15   21.70   19.59
  -2   0  14  228.90   35.92
  -2   0  14  232.35   29.17
  -2   0  13   48.32   21.48
  -2   0  13   20.33   12.24
  -2   0  12   11.78    9.65
  -2   0  12   12.86    9.19
  -2   0  11   47.64   11.47
  -2   0  11   34.44   11.45
  -2   0  10  630.75   40.91
  -2   0  10  672.05   43.54
  -2   0   9  261.41   21.02
  -2   0   8  246.93   17.40
  -2   0   7 1086.38   52.90
  -2   0   6   33.67    9.01
  -2   0   5 3558.55  175.17
  -2   0   4   28.21    4.60
   2   0  -3 1098.51   43.83
  -2   0   3 1241.60   48.19
   2   0  -216938.79 1106.65
  -2   0   217440.18 1161.61
   2   0  -1   17.44    3.36
  -2   0   1   18.98    3.53
   2   0   0  327.03   15.50
  -2   0   0  319.39   12.84
   2   0   1  660.56   26.79
  -2   0  -1  717.84   25.92
   2   0   2 4937.10  233.81
  -2   0  -2 4946.46  238.17
   2   0   3 6646.57  327.88
   2   0   412140.42  710.00
   2   0   5 2962.94  122.43
   2   0   6 1208.23   53.62
   2   0   7 3247.45  146.81
   2   0   8 8549.79  504.16
  -2   0  -8 9106.39  541.52
   2   0   9  432.91   22.96
  -2   0  -9  516.96   25.49
   2   0  10 1332.12   76.17
  -2   0 -10 1460.26   71.42
   2   0  11   22.30    9.76
  -2   0 -11   15.55    6.21
   2   0  12  344.66   30.34
  -2   0 -12  299.93   21.65
   2   0  13   58.11   15.96
  -2   0 -13   59.19    9.57
   2   0  14   28.18   13.81
   2   0  14   29.70    9.35
  -2   0 -14   27.31    8.26
   2   0  15   48.34   11.72
   2   0  15   40.52   18.43
  -2   0 -15   51.99   10.21
   2   0  16   10.74    8.87
   2   0  16   12.17    9.62
  -2   0 -16   10.40    6.89
   2   0  17  207.09   25.23
   2   0  17  233.72   28.62
  -2  -1  16  174.98   35.33
  -2  -1  16  108.00   30.81
  -2  -1  16  109.24   27.23
  -2  -1  15   54.02   39.74
  -2  -1  15   51.15   27.84
  -2  -1  14   -0.67   11.15
  -2  -1  14    3.53    9.21
  -2  -1  13   78.07   19.62
  -2  -1  13   62.70   17.84
  -2  -1  12   49.64   20.63
  -2  -1  12   24.07   12.64
  -2  -1  11  362.09   31.24
  -2  -1  11  321.59   32.51
  -2  -1  10  365.87   29.15
  -2  -1  10  380.53   31.38
  -2  -1   9  457.42   30.06
  -2  -1   9  421.16   30.90
  -2  -1   8  724.72   46.01
  -2  -1   8  634.25   37.61
  -2  -1   7  105.12   10.28
  -2  -1   6   76.33    7.45
  -2  -1   512155.30  790.70
  -2  -1   419023.22 1417.89
  -2  -1   3 8641.37  451.58
  -2  -1   3 7430.36  392.80
  -2  -1   2 4764.20  226.52
   2   1  -1  395.71   15.63
  -2  -1   1  420.89   16.35
   2   1   0  517.17   19.84
  -2  -1   0  550.79   20.70
   2   1   1 4018.80  176.45
  -2  -1  -1 4262.40  186.15
   2   1   2 2186.51   88.62
  -2  -1  -2 2421.56   95.73
   2   1   3  517.75   19.39
  -2  -1  -3  506.23   19.35
   2   1   4 4671.00  216.87
  -2  -1  -4 5486.96  250.17
   2   1   5 3502.66  155.27
  -2  -1  -5 3000.89  130.06
   2   1   6 1459.69   66.13
  -2  -1  -6 1448.92   61.08
   2   1   7   21.41    4.68
  -2  -1  -7   19.56    4.65
   2   1   8   98.45   12.79
  -2  -1  -8  110.68    9.58
   2   1   9   10.98    4.40
  -2  -1  -9   10.39    5.79
  -2  -1  -9   -4.48    4.58
   2   1  10  878.58   44.42
  -2  -1 -10  920.81   41.69
   2   1  11   26.23    7.50
  -2  -1 -11   33.40    8.34
   2   1  12 6444.04  419.86
  -2  -1 -12 7323.83  438.52
   2   1  13  521.22   34.05
  -2  -1 -13  462.74   26.42
   2   1  14  111.98   15.04
  -2  -1 -14   89.21    9.88
   2   1  15   23.53    9.34
   2   1  15   13.58   10.18
  -2  -1 -15   16.76    5.83
   2   1  16  248.67   26.96
   2   1  16  255.07   39.93
   2   1  17  100.89   18.67
   2   1  17  112.28   21.25
   2   1  18    8.34   14.68
   2   1  18    1.70   10.79
  -2  -2  15   13.86   14.22
  -2  -2  15   -6.19   10.12
  -2  -2  15   -5.66   11.32
  -2  -2  14  139.51   28.67
  -2  -2  14   85.56   26.84
  -2  -2  13  184.01   29.03
  -2  -2  13  145.89   30.96
  -2  -2  12   95.29   20.73
  -2  -2  12  129.79   32.51
  -2  -2  11  188.14   34.26
  -2  -2  11  173.52   35.81
  -2  -2  10  645.35   45.83
  -2  -2  10  627.65   52.02
  -2  -2   9   34.03   10.31
  -2  -2   9   35.87   10.02
  -2  -2   8  103.95   13.52
  -2  -2   8  119.20   13.33
  -2  -2   7  740.62   40.38
  -2  -2   7  721.63   48.68
  -2  -2   6 2539.40  124.64
  -2  -2   6 2443.96  130.18
  -2  -2   5  109.82   14.37
  -2  -2   5  114.62   12.80
  -2  -2   4   64.81    6.87
  -2  -2   4   49.22    9.27
  -2  -2   3  133.17    9.46
  -2  -2   3  131.39   11.72
  -2  -2   225173.75 1920.24
  -2  -2   228926.23 2235.33
  -2  -2   1  868.09   31.21
  -2  -2   1  574.19   23.01
  -2  -2   0 1580.22   60.11
   2   2   1 1636.79   72.01
  -2  -2  -1 1649.66   63.07
   2   2   2  421.17   17.45
  -2  -2  -2  455.64   21.39
   2   2   311196.19  668.38
  -2  -2  -311487.71  664.47
   2   2   410613.79  630.43
  -2  -2  -410735.77  619.16
   2   2   5   20.88    4.73
  -2  -2  -5   26.03    4.69
   2   2   6 2773.19  127.21
  -2  -2  -6 2919.86  129.91
   2   2   7   46.05   10.27
  -2  -2  -7   68.44    7.04
   2   2   8   13.32    5.24
  -2  -2  -8   19.62    5.31
   2   2   9  153.00   12.86
  -2  -2  -9  174.34    8.64
  -2  -2  -9  171.01   13.64
   2   2  10  424.67   32.34
  -2  -2 -10  381.65   16.34
   2   2  11  765.20   40.46
  -2  -2 -11  616.88   26.90
   2   2  12  915.93   49.94
  -2  -2 -12  754.54   39.77
   2   2  13  461.41   29.47
  -2  -2 -13  323.96   17.88
   2   2  14  394.05   36.51
  -2  -2 -14  241.97   15.62
   2   2  15  545.98   45.40
  -2  -2 -15  242.62   17.99
   2   2  16   45.66   11.92
   2   2  16   39.54   13.16
  -2  -2 -16   11.90    7.18
   2   2  17  616.92   54.50
   2   2  17  756.40   64.72
   2   2  18   85.54   20.68
   2   2  18  113.95   24.31
  -2  -3  14  575.46   64.01
  -2  -3  14  290.49   87.19
  -2  -3  13  799.74   72.54
  -2  -3  13  591.11  119.44
  -2  -3  12  234.35   31.69
  -2  -3  12  187.05   37.13
  -2  -3  11  261.11   30.95
  -2  -3  11  248.89   54.00
  -2  -3  10  263.31   27.66
  -2  -3  10  259.25   46.74
  -2  -3   9  736.65   49.69
  -2  -3   9  690.40   61.33
  -2  -3   8    9.52    7.39
  -2  -3   8    3.62    6.67
  -2  -3   7   21.98    8.39
  -2  -3   7   30.42   12.01
  -2  -3   6   33.00    8.69
  -2  -3   6   43.83    7.98
  -2  -3   5   94.35   11.44
  -2  -3   5  129.54   10.24
  -2  -3   4   16.96    8.27
  -2  -3   4    9.03    3.74
  -2  -3   3  149.88   11.56
  -2  -3   3  165.00    9.79
  -2  -3   2 1465.19   63.59
  -2  -3   2 1464.55   59.14
  -2  -3   1 1356.10   58.68
  -2  -3   1 1459.44   57.53
  -2  -3   0   70.14    6.26
  -2  -3   0   59.38    5.26
   2   3   1  120.36    8.57
  -2  -3  -1  143.50   11.40
  -2  -3  -1  125.86    7.40
   2   3   2 5209.50  268.00
  -2  -3  -2 5205.08  253.67
  -2  -3  -2 5487.06  260.21
   2   3   3 7804.96  436.73
  -2  -3  -3 8444.44  454.17
  -2  -3  -3 8057.47  435.06
   2   3   4   74.47   10.30
  -2  -3  -4   84.78   10.44
   2   3   5  510.80   30.33
  -2  -3  -5  551.29   24.40
   2   3   6   42.50    6.50
  -2  -3  -6   44.83    6.25
   2   3   7  353.87   19.93
  -2  -3  -7  389.03   25.66
   2   3   8  446.31   25.20
  -2  -3  -8  547.45   33.69
   2   3   9  931.57   58.63
  -2  -3  -9 1062.44   51.09
   2   3  10   39.60    7.92
  -2  -3 -10   31.63    2.41
   2   3  11 3827.55  192.99
  -2  -3 -11 2362.20  130.93
   2   3  12 1061.94   62.54
   2   3  13  567.65   39.66
   2   3  14  233.42   23.98
   2   3  15  510.58   40.78
   2   3  16  242.17   43.22
   2   3  16  337.69   38.61
   2   3  17  958.15   80.00
   2   3  17 1287.44  100.50
   2   3  18  287.89   38.55
   2   3  18  355.60   45.59
  -2  -4  13  103.63   27.86
  -2  -4  13   62.14   58.22
  -2  -4  12  108.87   37.08
  -2  -4  12   52.18   58.67
  -2  -4  11   55.48   19.64
  -2  -4  11  108.16   33.34
  -2  -4  10  327.83   48.41
  -2  -4  10  322.08   53.69
   2   4  -9   14.42    8.92
  -2  -4   9    3.39    9.40
  -2  -4   9    4.28   11.19
   2   4  -8  108.92   16.41
  -2  -4   8  120.43   18.03
  -2  -4   8  120.93   29.52
   2   4  -7 2988.74  174.82
  -2  -4   7 2919.62  170.73
  -2  -4   7 2921.50  227.37
   2   4  -6 1343.53   76.34
  -2  -4   6 1363.55   75.72
  -2  -4   6 1399.04   87.29
   2   4  -5  264.99   20.38
  -2  -4   5  267.09   20.90
  -2  -4   5  267.29   22.99
   2   4  -4  542.44   30.87
  -2  -4   4  504.71   30.14
  -2  -4   4  533.15   33.30
   2   4  -3  176.51   14.09
  -2  -4   3  190.51   21.09
  -2  -4   3  171.53   14.54
   2   4  -2    0.77    4.22
  -2  -4   2    7.11    4.40
  -2  -4   2    1.75    2.81
   2   4  -1  221.38   13.72
  -2  -4   1  219.50   14.29
  -2  -4   1  206.34   10.58
   2   4   0  788.78   35.99
  -2  -4   0  744.47   34.66
  -2  -4   0  723.70   29.21
   2   4   1  189.97   15.09
  -2  -4  -1  144.61   10.90
  -2  -4  -1  175.50   12.54
   2   4   2 3131.13  156.07
  -2  -4  -2 3442.69  167.87
  -2  -4  -2 3287.97  152.56
  -2  -4  -3 4483.74  224.87
  -2  -4  -3 4949.57  247.14
  -2  -4  -410340.19  629.81
  -2  -4  -410728.23  655.56
   2   4   5 9907.13  657.24
  -2  -4  -510748.25  661.73
  -2  -4  -511373.37  698.34
   2   4   620063.50 1616.62
  -2  -4  -623204.69 1824.71
  -2  -4  -622275.68 1657.94
   2   4   7 8565.86  555.72
  -2  -4  -7 8455.00  535.52
  -2  -4  -710074.14  597.44
   2   4   8 1408.51   73.66
  -2  -4  -8 1667.37   77.13
  -2  -4  -9   77.31   11.15
   2   4  10 1049.53   59.34
   2   4  11  226.71   21.82
   2   4  12 1533.91   93.10
   2   4  13  339.01   30.00
   2   4  14  104.58   18.47
   2   4  15   21.09   12.11
   2   4  16   22.93   13.74
   2   4  17  249.06   49.42
   2   4  17  288.52   38.71
   2   4  18    1.96   11.26
   2   4  18    2.03   12.79
  -2  -5  12  106.68   27.37
  -2  -5  11  204.16   33.35
   2   5 -10   57.74   17.62
  -2  -5  10   87.84   20.36
  -2  -5  10   80.73   37.81
   2   5  -9   39.75   13.43
  -2  -5   9   35.29   14.85
  -2  -5   9   24.66   20.60
   2   5  -8    6.47    8.71
  -2  -5   8   12.78   14.78
  -2  -5   8   -5.29   16.16
   2   5  -7  643.93   44.85
  -2  -5   7  601.72   44.82
  -2  -5   7  509.77   54.80
   2   5  -6 5561.39  349.13
  -2  -5   6 5428.94  336.82
  -2  -5   6 4738.64  461.89
   2   5  -5 2644.02  148.19
  -2  -5   5 2601.14  163.23
  -2  -5   5 2349.56  186.95
   2   5  -4  133.23   15.18
  -2  -5   4  130.34   15.93
  -2  -5   4  140.58   16.88
   2   5  -3  140.79   14.46
  -2  -5   3  146.10   15.21
  -2  -5   3  148.63   14.68
   2   5  -2   16.95    6.75
  -2  -5   2   10.91   11.42
  -2  -5   2   19.42    6.81
   2   5  -1 1221.96   62.70
  -2  -5   1 1306.13   66.51
  -2  -5   1 1399.48   67.47
   2   5   0  447.77   24.91
   2   5   0  479.20   26.05
  -2  -5   0  454.02   26.53
  -2  -5   0  476.50   22.09
   2   5   1  132.51   10.81
   2   5   1  121.55   14.98
  -2  -5  -1  130.66   11.60
  -2  -5  -1  136.08    9.43
   2   5   2   23.69    5.33
  -2  -5  -2    7.50    5.60
  -2  -5  -2   22.63    4.83
   2   5   3 2649.29  134.51
  -2  -5  -3 2792.92  146.26
  -2  -5  -3 2950.61  136.45
  -2  -5  -4 1160.44   53.02
  -2  -5  -4 1186.55   60.34
   2   5   5  365.93   22.64
  -2  -5  -5  393.88   19.50
  -2  -5  -5  418.37   21.49
   2   5   6   30.17    6.79
  -2  -5  -6   20.90    4.15
  -2  -5  -6   24.17    6.37
   2   5   7  453.59   32.13
  -2  -5  -7  397.82   17.80
   2   5   8  128.22   13.68
  -2  -5  -8  152.84   14.12
   2   5   9  336.29   24.81
   2   5  10 7475.55  513.31
   2   5  11  129.48   17.29
   2   5  12 1904.17  115.70
   2   5  13   30.88   12.05
   2   5  14  176.45   23.49
   2   5  15  225.15   28.26
   2   5  16   31.63   15.39
   2   5  17  112.29   37.13
   2   5  17  126.76   26.65
  -2  -6  11   53.49   34.66
   2   6 -10   19.05   15.42
  -2  -6  10   29.86   16.97
   2   6  -9   33.62   14.90
  -2  -6   9   14.26   16.03
   2   6  -8  266.78   31.43
  -2  -6   8  261.57   32.61
   2   6  -7   26.10   10.52
  -2  -6   7   19.86   10.55
  -2  -6   7   -1.16    6.02
   2   6  -6  983.77   65.11
  -2  -6   6  891.64   64.64
   2   6  -5  158.31   27.00
  -2  -6   5  132.18   27.36
  -2  -6   5   91.11   12.46
   2   6  -4 5845.56  378.02
  -2  -6   4 5106.17  325.46
  -2  -6   4 4271.87  400.96
   2   6  -3 3866.16  241.79
  -2  -6   3 3601.79  218.99
  -2  -6   3 3493.34  248.62
   2   6  -2 1207.40   79.02
  -2  -6   2 1284.72   72.76
  -2  -6   2 1068.77   62.54
   2   6  -1  207.74   24.23
  -2  -6   1  171.24   26.27
  -2  -6   1  170.40   19.18
   2   6   0  611.93   36.26
   2   6   0  653.17   47.40
  -2  -6   0  642.35   50.70
  -2  -6   0  693.84   36.29
   2   6   1    4.30    5.01
   2   6   1    6.61    4.85
  -2  -6  -1    4.07    5.90
  -2  -6  -1    1.32    4.20
   2   6   2  200.64   15.41
   2   6   2  220.60   17.00
  -2  -6  -2  215.28   17.78
  -2  -6  -2  264.64   21.52
   2   6   3  654.66   38.94
  -2  -6  -3  664.51   46.35
  -2  -6  -3  745.69   36.84
  -2  -6  -4    6.96    6.38
  -2  -6  -4   -1.75    4.13
   2   6   5  123.56   11.51
  -2  -6  -5  122.28   11.03
   2   6   6  267.29   19.35
  -2  -6  -6  306.39   21.55
   2   6   7   58.31   10.22
  -2  -6  -7   75.19    6.30
  -2  -6  -7   90.89   11.39
   2   6   8 2991.35  148.99
  -2  -6  -8 1802.17  103.77
   2   6   9 1164.38   68.71
   2   6  10 1156.60   70.39
   2   6  11 3095.44  220.69
   2   6  12  166.09   32.37
   2   6  13 1483.02  101.27
   2   6  14  245.81   29.41
   2   6  15   31.43   14.96
   2   6  16   40.86   27.94
   2   6  16   53.29   18.19
   2   6  17   12.75   17.54
   2   6  17   -8.64   11.44
   2   7  -9   21.92   14.73
  -2  -7   9    2.32   25.16
   2   7  -8   -3.72    8.56
  -2  -7   8    5.03    9.44
   2   7  -7   22.77   12.60
  -2  -7   7   -1.20   13.40
   2   7  -6   16.63   12.02
  -2  -7   6   16.25   13.76
   2   7  -5  200.86   38.08
  -2  -7   5  177.20   25.72
   2   7  -4  254.89   37.98
  -2  -7   4  221.87   28.05
   2   7  -3 1712.81  108.90
  -2  -7   3 1876.82  117.45
   2   7  -2 1658.92   99.42
  -2  -7   2 1716.35  107.63
   2   7  -1   55.85   16.23
  -2  -7   1   36.48   12.59
  -2  -7   1   29.67    6.97
   2   7   0 1146.95   78.51
  -2  -7   0 1092.52   68.61
  -2  -7   0  963.74   57.12
   2   7   1 1813.77  103.13
   2   7   1 1783.24  122.98
  -2  -7  -1 1918.06  114.52
  -2  -7  -1 2383.62  131.11
   2   7   2 1810.19  105.53
   2   7   2 1797.02  124.01
  -2  -7  -2 2077.69  119.08
  -2  -7  -2 2306.93  117.10
   2   7   3 1395.17  105.11
  -2  -7  -3 1527.72   88.89
  -2  -7  -3 1811.57  104.16
  -2  -7  -4    0.28    5.92
  -2  -7  -4    7.54    5.69
  -2  -7  -5  369.25   33.79
  -2  -7  -5  471.94   29.94
   2   7   6   36.63    8.70
  -2  -7  -6   48.15    7.57
   2   7   7    9.68    6.10
  -2  -7  -7    5.88    3.87
   2   7   8  387.17   28.97
   2   7   9  208.30   21.19
   2   7  10  588.77   43.81
   2   7  11  256.41   28.28
   2   7  12  252.01   29.75
   2   7  13  356.60   37.25
   2   7  14   -1.28    9.31
   2   7  15  932.84   78.69
   2   7  16  300.77   40.01
   2   7  16  305.47   40.71
   2   8  -8  252.51   36.46
  -2  -8   8  241.43   40.56
   2   8  -7   27.96   16.63
  -2  -8   7   24.81   18.94
   2   8  -6   37.50   17.12
  -2  -8   6   44.96   29.08
   2   8  -5   89.17   20.72
  -2  -8   5   80.37   22.89
   2   8  -4   20.87   19.42
  -2  -8   4   13.43   13.83
   2   8  -3  402.08   52.38
  -2  -8   3  387.26   42.16
   2   8  -2   97.56   25.73
  -2  -8   2   72.42   20.89
   2   8  -1  188.66   30.83
  -2  -8   1  151.67   26.35
   2   8   0 1537.91  114.25
  -2  -8   0 1643.50  113.31
   2   8   1   33.20   10.54
   2   8   1   23.93   11.88
  -2  -8  -1   23.24   14.18
  -2  -8  -1   31.68    8.35
   2   8   2  236.66   21.03
   2   8   2  293.87   40.88
  -2  -8  -2  266.92   28.34
  -2  -8  -2  177.86   20.02
   2   8   3 1633.72  120.91
  -2  -8  -3 1919.60  120.79
   2   8   4  328.58   29.36
  -2  -8  -4  385.71   30.65
  -2  -8  -5   -2.34    6.06
   2   8   6   15.05    6.76
  -2  -8  -6    3.53    5.90
   2   8   7  322.32   25.51
   2   8   8   11.50    8.02
   2   8   9    7.87    8.24
   2   8  10  743.12   71.78
   2   8  11 1477.81  103.90
   2   8  12  280.39   33.39
   2   8  13   94.84   22.25
   2   8  14  -17.83   14.48
   2   8  15   27.18   16.67
   2   8  15   25.45   16.87
   2   9  -5  161.71   29.41
  -2  -9   5  119.78   30.64
   2   9  -4   38.22   16.97
  -2  -9   4   27.84   19.54
   2   9  -3   13.61   13.20
  -2  -9   3   17.79   16.08
   2   9  -2   35.20   14.96
  -2  -9   2   23.38   18.25
   2   9  -1  131.78   20.97
  -2  -9   1  108.93   27.98
   2   9   0  464.75   41.71
  -2  -9   0  539.25   53.70
   2   9   1 1261.01   87.03
  -2  -9  -1 1382.35  105.93
   2   9   2   14.85    8.54
   2   9   2   13.98   11.48
  -2  -9  -2   -7.95   11.83
   2   9   3  275.80   25.91
   2   9   3  282.06   34.33
  -2  -9  -3  293.68   33.13
   2   9   4  267.77   29.30
   2   9   5  391.63   36.23
   2   9   7   -3.11   10.52
   2   9   8  406.78   35.54
   2   9   9   51.47   20.94
   2   9  10   25.98   12.53
   2   9  11  166.06   25.62
   2   9  12   20.05   14.53
   2   9  13    1.44   16.28
   2   9  14   26.14   15.21
   2   9  14    3.30   16.10
   2  10  -2   -3.01   11.38
   2  10  -1    9.42   12.21
   2  10   0   19.15   12.93
   2  10   1   -1.95    8.57
   2  10   2   73.59   16.22
   2  10   2   60.80   22.95
   2  10   3   97.46   17.43
   2  10   3  146.71   26.75
   2  10   4   19.72   13.00
   2  10   5   87.82   18.42
   2  10   6  369.20   38.31
   2  10   7  243.56   28.60
   2  10   8   13.75   15.44
   2  10   9  941.70   79.28
   2  10  10   31.15   14.54
   2  10  11   -0.94   14.73
   2  10  12    7.02   12.87
   2  10  12    8.78   14.53
   2  11   4    8.71   12.56
   2  11   5   10.45   11.97
   2  11   6   -3.27    9.40
  -3  10   6  149.15   52.09
  -3  10   5   -2.53   21.71
  -3  10   4   98.58   47.44
  -3  10   3   12.75   18.88
  -3  10   2   17.22   19.80
  -3  10   1   89.57   31.40
  -3   9  10    5.69   12.69
  -3   9  10  -16.97   16.92
  -3   9   9   38.04   18.11
  -3   9   9  106.07   26.61
  -3   9   9  135.12   22.20
  -3   9   8   26.26   19.67
  -3   9   8   32.92   22.21
  -3   9   8  108.72   19.63
  -3   9   7   67.70   23.23
  -3   9   7    2.94   22.43
  -3   9   7  106.99   19.40
  -3   9   6  137.71   32.05
  -3   9   6   66.01   27.30
  -3   9   6  158.79   25.05
  -3   9   5   -8.36   15.09
  -3   9   4   76.79   26.08
  -3   9   3   39.54   31.52
  -3   9   2   50.10   22.34
  -3   9   1    9.45   15.20
  -3   9   0  133.84   31.13
  -3   9  -1   17.80   27.64
  -3   9  -2   18.36   18.06
  -3   9  -3  806.39   86.09
  -3   9  -4  181.09   58.11
  -3   8  12   50.77   20.23
  -3   8  11   25.07   15.87
  -3   8  10   24.83   15.18
  -3   8   9   -5.32   16.83
  -3   8   8   87.72   19.37
  -3   8   7  927.03   77.74
  -3   8   6  864.59   70.61
  -3   8   5  873.77   97.18
  -3   8   5 1053.41   84.81
  -3   8   4  487.52   55.56
  -3   8   3 1116.54  102.85
  -3   8   2  584.41   84.18
  -3   8   1   -8.52   13.03
  -3   8   0  102.84   24.52
  -3   8  -1   24.13   26.09
  -3   8  -2   -6.15   12.62
  -3   8  -3    2.78   12.07
  -3   8  -4    1.25   18.02
  -3   8  -5  517.92   60.69
  -3   8  -6  390.90   52.13
  -3   8  -7   13.04   18.55
  -3   7  13  368.18   47.30
  -3   7  12  170.18   30.16
  -3   7  11    9.61   12.54
  -3   7  10   51.33   17.49
  -3   7   9  169.25   24.58
  -3   7   8  313.96   46.37
  -3   7   7  201.42   26.10
  -3   7   6 1644.24  117.80
  -3   7   5  367.33   45.39
  -3   7   0   67.91   18.56
  -3   7  -1 2671.72  194.90
  -3   7  -2   20.30   13.72
  -3   7  -2   15.82    8.79
  -3   7  -3   -6.13    9.57
  -3   7  -3    0.08    3.41
  -3   7  -4   -6.24   18.71
  -3   7  -5   54.80   20.04
  -3   7  -6  377.45   67.31
  -3   7  -7    6.16   14.09
  -3   7  -8   -9.98   15.66
  -3   7  -9  143.75   34.34
  -3   6  14  114.56   28.72
  -3   6  13  163.91   30.80
  -3   6  12   62.26   20.86
  -3   6  11  290.18   35.28
  -3   6  10   22.60   13.12
  -3   6   9  768.14   62.24
  -3   6   8 1011.23   73.20
  -3   6   7  195.69   32.62
  -3   6   6  246.00   25.29
   3  -6  -5 1189.89   73.15
  -3   6   5 1386.88   83.81
   3  -6  -4  181.00   18.71
  -3   6   4  202.55   20.61
   3  -6  -3  439.09   32.06
   3  -6  -2  341.17   34.90
   3  -6  -1  137.93   23.50
   3  -6   0  330.34   27.32
   3  -6   1 6633.97  540.69
   3  -6   2 1162.77   82.96
  -3   6  -2 1039.86   78.25
   3  -6   3   54.59   13.81
  -3   6  -3   66.38   10.72
   3  -6   4   -0.16    2.76
  -3   6  -4    8.85   13.16
  -3   6  -5  592.97   54.97
  -3   6  -6  115.56   24.40
  -3   6  -7   17.07   14.57
  -3   6  -8   25.27   17.00
  -3   6  -9   31.79   18.93
  -3   6 -10   -9.65   16.00
  -3   6 -11   71.43   27.70
  -3   5  15  185.76   34.31
  -3   5  14   13.71   15.32
  -3   5  13  493.52   51.83
  -3   5  12  343.88   39.77
  -3   5  11 1339.49  103.52
  -3   5  10 1916.48  135.30
  -3   5   9 1132.87   80.30
  -3   5   8 1532.91   98.24
   3  -5  -7  919.76   56.02
  -3   5   7 1130.72   80.44
   3  -5  -6  126.49   14.73
  -3   5   6  148.89   17.01
   3  -5  -5   52.16   10.27
  -3   5   5   56.85   10.78
   3  -5  -4   10.03    6.67
  -3   5   4   17.54    7.09
   3  -5  -3    6.81    6.10
  -3   5   3   21.42    9.87
   3  -5  -2  377.46   24.76
   3  -5  -1  196.64   21.93
   3  -5   0 1633.46   92.77
   3  -5   1 4121.11  261.21
   3  -5   2 2592.66  176.35
   3  -5   3  849.50   53.35
  -3   5  -3  731.27   48.68
   3  -5   4  241.82   19.84
   3  -5   5   69.30   14.84
  -3   5  -5  119.14   19.47
   3  -5   6   12.63    7.51
  -3   5  -6    2.48   11.83
   3  -5   7   28.00    8.65
  -3   5  -7  118.54   18.98
  -3   5  -8   24.58   15.29
  -3   5  -9  630.18   81.18
  -3   5 -10  405.78   47.82
  -3   5 -11   14.81   16.33
  -3   5 -12   51.86   24.46
  -3   5 -13   -6.03   16.69
  -3   4  15   23.05   16.16
  -3   4  14    9.00   20.53
  -3   4  13    6.30   18.36
  -3   4  12  874.60   69.02
  -3   4  11  117.61   21.34
  -3   4  10   44.54   13.83
   3  -4  -9  388.61   30.02
  -3   4   9  415.72   47.42
   3  -4  -8   67.39   12.24
  -3   4   8   99.80   21.89
   3  -4  -7 3375.03  191.92
  -3   4   7 3458.26  211.75
   3  -4  -6 1395.10   74.98
  -3   4   6 1607.14   87.29
   3  -4  -5   17.65    6.79
  -3   4   5   19.89   10.84
   3  -4  -4   -8.67    6.48
  -3   4   4    2.54    4.49
   3  -4  -3  163.11   13.05
  -3   4   3  163.98   13.78
   3  -4  -2  661.92   34.54
  -3   4   2  739.48   45.32
   3  -4  -1  416.29   23.41
   3  -4   0  149.53   11.52
   3  -4   1 1724.35   94.35
   3  -4   2 2547.81  138.58
   3  -4   3 2915.10  171.04
  -3   4  -3 3168.49  171.74
   3  -4   4 8433.22  650.39
  -3   4  -4 7907.46  595.05
   3  -4   5  159.20   18.82
   3  -4   6 2798.11  195.18
  -3   4  -6 3268.99  197.69
   3  -4   7    7.06    5.36
  -3   4  -7   10.76   10.63
   3  -4   8   35.80   13.05
  -3   4  -8   25.28   15.15
   3  -4   9   72.52   18.43
  -3   4  -9   79.34   19.54
   3  -4  10  177.04   30.62
  -3   4 -10  356.58   35.68
   3  -4  11   27.93   22.16
  -3   4 -11   27.09   16.46
  -3   4 -12   74.59   23.88
  -3   4 -13   22.58   18.74
  -3   4 -14   22.84   20.71
  -3   3  16    3.29   12.08
  -3   3  15    3.78    7.60
  -3   3  15   -3.02   10.53
  -3   3  14   62.11   20.37
  -3   3  14  146.26   24.16
  -3   3  13  141.95   25.79
  -3   3  12   38.75   14.30
  -3   3  11  321.86   32.08
   3  -3 -10  153.31   18.91
  -3   3  10  191.04   22.22
   3  -3  -9    1.08   10.60
  -3   3   9    8.25    7.81
   3  -3  -8 8009.89  530.31
  -3   3   8 8648.72  600.71
   3  -3  -7  124.72   13.75
  -3   3   7  124.53   14.94
   3  -3  -6  957.84   50.28
  -3   3   6 1063.15   55.08
   3  -3  -5 1392.11   69.05
  -3   3   5 1485.77   76.04
   3  -3  -4  664.94   34.82
  -3   3   4  723.20   36.64
   3  -3  -3 2578.19  124.80
  -3   3   3 3063.55  152.50
   3  -3  -2 1291.79   60.36
  -3   3   2 1472.35   70.66
   3  -3  -1 7340.74  436.25
  -3   3   1 8154.35  487.71
   3  -3   0  268.62   15.48
   3  -3   1  255.43   14.46
   3  -3   2  212.39   12.66
   3  -3   3  825.47   39.35
  -3   3  -3  969.13   47.78
   3  -3   4    0.85    3.08
  -3   3  -4    2.62    2.79
   3  -3   5  397.95   21.19
   3  -3   6  516.45   28.24
   3  -3   7   13.46    5.25
   3  -3   8   82.71   15.41
  -3   3  -8  135.04   19.69
   3  -3   9    5.42    5.32
  -3   3  -9   -0.26    9.63
   3  -3  10  291.06   26.37
  -3   3 -10  276.95   32.39
   3  -3  11  516.30   58.40
  -3   3 -11  506.41   66.94
   3  -3  12  292.80   37.18
  -3   3 -12  352.56   39.99
   3  -3  13  262.33   32.05
   3  -3  13  134.99   15.12
  -3   3 -14   54.68   35.64
  -3   3 -15   20.12   18.99
  -3   2  16   86.08   36.74
  -3   2  16  210.39   33.43
  -3   2  15   66.11   34.16
  -3   2  15  123.73   37.41
  -3   2  14   37.44   27.70
  -3   2  14   29.69   15.77
  -3   2  13  152.55   25.87
  -3   2  12   17.45   11.81
   3  -2 -11    2.25    6.24
  -3   2  11   -4.08    7.15
   3  -2 -10  849.78   52.89
  -3   2  10  880.34   62.12
   3  -2  -9 1647.44   95.70
  -3   2   9 1714.57  102.42
   3  -2  -8   93.05   12.73
  -3   2   8   94.04   21.19
   3  -2  -7 2289.25  119.63
  -3   2   7 2884.49  158.92
   3  -2  -6    9.87    6.13
  -3   2   6   15.05    6.20
   3  -2  -5   61.79    8.31
  -3   2   5   54.46    8.84
   3  -2  -4  269.05   16.86
  -3   2   4  290.94   17.69
   3  -2  -3  287.59   16.53
  -3   2   3  312.03   18.24
   3  -2  -2 2800.18  136.32
  -3   2   2 3167.33  162.77
   3  -2  -1 4846.42  252.77
  -3   2   1 5382.98  290.58
   3  -2   0 7693.88  446.19
  -3   2   0 8386.75  502.93
   3  -2   1 1004.77   42.14
   3  -2   2   83.07    7.19
  -3   2  -2   90.95    7.55
   3  -2   3  126.91    8.24
  -3   2  -3  132.31    8.80
   3  -2   4    4.63    3.34
  -3   2  -4   10.77    3.48
   3  -2   5 1174.61   58.98
   3  -2   6   75.45   10.07
   3  -2   7 1935.57  103.66
   3  -2   8 1659.94   85.81
   3  -2   9   75.12   10.18
  -3   2  -9   81.84   16.47
   3  -2  10  435.41   40.22
  -3   2 -10  443.56   39.70
   3  -2  11  333.92   28.03
  -3   2 -11  396.00   36.88
   3  -2  12  134.27   17.64
  -3   2 -12  138.76   24.14
   3  -2  13   24.17   10.50
  -3   2 -13   35.82   24.18
   3  -2  14    4.26   11.83
  -3   2 -14    1.65   11.49
   3  -2  15   33.78   19.56
   3  -2  15   28.16   17.56
  -3   2 -15   74.95   19.40
   3  -2  16   -4.89    6.21
  -3   2 -16   14.69   10.16
  -3   1  15  149.21   38.48
  -3   1  15  158.10   31.16
  -3   1  14    0.69   11.08
  -3   1  14   -2.98    9.87
  -3   1  13  216.22   33.24
  -3   1  13  243.80   33.22
  -3   1  12  904.62   75.68
   3  -1 -11  388.00   33.05
  -3   1  11  449.22   40.02
   3  -1 -10 1563.36   98.74
  -3   1  10 1686.17  114.32
   3  -1  -9  907.23   65.74
  -3   1   9  824.92   58.78
   3  -1  -8   17.35    7.62
  -3   1   8   26.54    8.70
   3  -1  -7  476.34   28.31
  -3   1   7  465.13   29.70
   3  -1  -6  505.95   28.18
  -3   1   6  498.68   29.02
   3  -1  -5  335.29   19.21
  -3   1   5  352.00   20.28
   3  -1  -4   56.83    6.98
  -3   1   4   59.54    7.75
   3  -1  -3   29.30    5.71
  -3   1   3   22.77    8.94
   3  -1  -2 3096.74  147.73
  -3   1   2 3256.89  155.69
   3  -1  -1  631.21   28.28
  -3   1   1  615.10   28.36
   3  -1   0 1597.46   73.02
  -3   1   0 1602.45   72.11
   3  -1   1  103.67    7.99
  -3   1  -1  121.49    8.91
   3  -1   2  445.66   20.41
  -3   1  -2  481.55   21.68
   3  -1   3  988.88   41.94
  -3   1  -3 1090.31   51.79
   3  -1   4 1640.31   76.10
  -3   1  -4 1863.40   78.69
   3  -1   5 1148.92   55.71
   3  -1   6    7.30    5.92
   3  -1   7 1350.69   69.89
   3  -1   8  185.66   13.74
   3  -1   9  156.85   13.97
   3  -1  10 1008.39   58.59
  -3   1 -10 1246.46   77.04
   3  -1  11  127.12   21.32
  -3   1 -11  130.63   20.32
   3  -1  12  537.33   38.77
  -3   1 -12  590.49   48.42
   3  -1  13  221.15   23.43
  -3   1 -13  268.32   30.80
   3  -1  14    1.25    6.21
  -3   1 -14   -4.34    8.16
   3  -1  15   98.31   17.20
  -3   1 -15  113.55   21.22
   3  -1  16   11.81    9.36
   3  -1  16    8.42    9.98
  -3   1 -16   11.89   11.17
  -3   0  15   40.55   38.34
  -3   0  15   50.68   20.65
  -3   0  14    9.69   13.16
  -3   0  14   -0.98   11.45
  -3   0  13   22.43   12.90
  -3   0  13   -1.55   12.09
  -3   0  12  318.94   34.04
  -3   0  12  241.80   33.64
   3   0 -11  179.76   21.25
  -3   0  11  177.94   24.45
   3   0 -10   13.87    9.13
  -3   0  10   15.65    9.60
   3   0  -9  916.73   56.56
  -3   0   9  971.63   65.75
   3   0  -8 1268.96   71.02
  -3   0   8 1332.64   77.66
   3   0  -7  299.57   28.22
  -3   0   7  295.82   21.37
   3   0  -6   -0.74    7.55
  -3   0   6    7.38    4.83
  -3   0   6    6.06    5.12
   3   0  -5   14.85    4.96
  -3   0   5    9.53    5.42
   3   0  -4   71.15    8.22
  -3   0   4   93.47    8.65
   3   0  -3 1683.22   76.82
  -3   0   3 1892.57   91.89
   3   0  -2  734.44   31.46
  -3   0   2  580.51   28.84
   3   0  -1   20.04    7.18
  -3   0   1   13.87    7.44
   3   0   0 7158.55  403.73
  -3   0   0 8111.45  453.65
   3   0   1  115.84    8.35
  -3   0  -1  110.16    9.06
   3   0   2  735.16   35.68
  -3   0  -2  764.52   32.83
   3   0   3  749.92   32.31
  -3   0  -3  792.48   33.26
   3   0   4 7600.89  425.22
  -3   0  -4 7201.80  410.04
   3   0   5    6.52    3.56
  -3   0  -5    6.23    5.92
   3   0   6  303.94   16.92
   3   0   7  984.13   45.63
   3   0   8   30.49   10.21
   3   0   9  104.61   11.32
   3   0  10   10.73    6.41
   3   0  11   27.54    8.61
  -3   0 -11   50.16   11.28
   3   0  12   66.50   11.83
  -3   0 -12   89.83   15.08
   3   0  13   45.09   11.21
  -3   0 -13   62.18   12.84
   3   0  14  162.95   19.64
  -3   0 -14  175.20   20.83
   3   0  15  470.81   38.98
  -3   0 -15  446.30   38.20
   3   0  16  435.18   37.02
  -3   0 -16  317.00   34.27
   3   0  17   15.91   10.30
   3   0  17   19.43   12.82
  -3   0 -17    9.71    8.75
  -3  -1  15  115.88   32.27
  -3  -1  15   82.95   28.42
  -3  -1  14   63.35   36.09
  -3  -1  14   59.53   22.85
  -3  -1  13   -6.44   10.66
  -3  -1  13    2.88   10.72
  -3  -1  12   29.05   14.23
  -3  -1  12   22.35   14.96
   3   1 -11  196.67   23.81
  -3  -1  11  225.18   26.98
  -3  -1  11  189.36   28.84
   3   1 -10 1486.89  100.64
  -3  -1  10 1762.34  122.55
  -3  -1  10 1517.21  117.91
   3   1  -9  231.27   21.71
  -3  -1   9  235.36   23.05
  -3  -1   9  264.31   25.69
  -3  -1   8  546.26   35.19
  -3  -1   8  555.57   38.70
  -3  -1   7 1462.47   77.45
  -3  -1   6  377.16   23.35
  -3  -1   6  386.92   23.92
  -3  -1   5  109.25   10.66
  -3  -1   5   90.91    9.97
  -3  -1   4   20.05    5.83
  -3  -1   3 1913.96   90.13
   3   1  -2 4249.52  212.16
  -3  -1   2 4459.47  223.47
   3   1  -1 1646.82   74.04
  -3  -1   1 1861.99   81.14
   3   1   0  381.78   19.59
  -3  -1   0  427.47   20.79
   3   1   1 5176.63  266.76
  -3  -1  -1 4616.56  230.25
   3   1   2 1852.66   82.76
  -3  -1  -2 2031.89   86.14
   3   1   3  492.15   23.54
  -3  -1  -3  486.40   23.51
   3   1   4 1592.88   68.51
  -3  -1  -4 1664.56   72.57
   3   1   5 1058.41   46.59
  -3  -1  -5 1080.89   49.20
   3   1   6   36.83    6.49
  -3  -1  -6   45.65    6.35
   3   1   7  450.40   24.01
  -3  -1  -7  460.93   25.60
   3   1   8  174.46   15.05
  -3  -1  -8  320.70   18.87
   3   1   9    6.45    5.29
  -3  -1  -9   11.53    5.68
   3   1  10  147.38   14.27
  -3  -1 -10  169.90   16.64
   3   1  11  135.37   22.71
  -3  -1 -11  167.48   17.54
  -3  -1 -11  168.72   17.67
   3   1  12   15.91    8.18
  -3  -1 -12   20.38   12.54
   3   1  13   77.89   13.47
  -3  -1 -13   69.74   11.39
   3   1  14  106.22   15.38
  -3  -1 -14   70.03   11.89
   3   1  15   12.03    7.82
  -3  -1 -15    0.01    5.38
   3   1  16    5.89    7.59
  -3  -1 -16   -4.30    4.92
   3   1  17  434.32   34.96
  -3  -1 -17  157.54   21.51
  -3  -2  14   29.45   20.49
  -3  -2  14   30.61   19.71
  -3  -2  13  308.26   58.67
  -3  -2  13  248.39   45.69
  -3  -2  12  127.16   24.09
  -3  -2  12   88.71   25.72
  -3  -2  11  174.66   26.64
  -3  -2  11  205.73   30.12
  -3  -2  10  231.19   36.99
  -3  -2  10  199.55   27.80
  -3  -2   9  198.02   21.23
  -3  -2   9  160.05   22.16
  -3  -2   8 1052.10   63.25
  -3  -2   8  911.07   79.53
  -3  -2   7  589.93   36.70
  -3  -2   7  589.34   40.33
  -3  -2   6  241.90   18.77
  -3  -2   6  219.32   18.52
  -3  -2   5  414.94   25.02
  -3  -2   5  427.86   26.88
  -3  -2   4   85.37    9.96
  -3  -2   4  100.52   14.59
  -3  -2   3    7.11    4.85
  -3  -2   3    7.64    4.45
  -3  -2   2  120.37   10.15
  -3  -2   2  118.18    9.65
  -3  -2   1  375.82   19.25
  -3  -2   0  276.08   14.40
   3   2   1   55.30    6.89
  -3  -2  -1   67.43    6.63
   3   2   2    3.33    4.07
  -3  -2  -2    6.27    3.73
   3   2   3 1574.71   70.21
  -3  -2  -3 1562.78   67.93
   3   2   4  546.89   26.72
  -3  -2  -4  607.40   34.06
   3   2   5  447.95   22.91
  -3  -2  -5  483.35   23.79
   3   2   6 9054.24  537.14
  -3  -2  -6 8942.56  544.68
   3   2   7   78.41   13.42
  -3  -2  -7   76.37    9.18
   3   2   8  364.72   22.25
  -3  -2  -8  397.48   23.30
   3   2   9  769.45   53.25
  -3  -2  -9  884.20   47.16
   3   2  10 2641.06  149.55
  -3  -2 -10 3045.33  169.20
   3   2  11 4901.34  305.86
  -3  -2 -11 6062.63  369.89
   3   2  12    8.47    7.01
  -3  -2 -12    3.28    4.78
   3   2  13   20.10    8.55
  -3  -2 -13    8.94    5.01
   3   2  14  152.66   24.73
  -3  -2 -14   76.91    9.66
   3   2  15   39.94   18.57
  -3  -2 -15   21.77    9.05
   3   2  16  287.46   23.56
  -3  -2 -16   75.17   11.43
   3   2  17   77.75   18.75
  -3  -3  13   21.72   17.48
  -3  -3  13   20.39   34.24
  -3  -3  12   -3.36   20.29
  -3  -3  12   25.29   26.64
  -3  -3  11  997.59   80.40
  -3  -3  11 1010.36  150.99
  -3  -3  10  116.72   31.66
  -3  -3  10  131.29   27.99
  -3  -3   9   91.05   17.23
  -3  -3   9   89.01   21.04
  -3  -3   8  951.80   63.88
  -3  -3   8  989.20   80.91
  -3  -3   7  236.20   22.52
  -3  -3   7  245.37   33.54
  -3  -3   6  545.96   35.95
  -3  -3   6  559.87   39.46
  -3  -3   5  699.59   42.33
  -3  -3   5  880.96   53.08
  -3  -3   4   -4.16    5.11
  -3  -3   4   -3.18    4.85
  -3  -3   3 1157.47   59.24
  -3  -3   3 1398.44   69.50
  -3  -3   2 1784.27   94.27
  -3  -3   2 1776.45   83.98
  -3  -3   1 8176.26  493.08
  -3  -3   1 8698.84  517.13
  -3  -3   0  176.68   12.69
  -3  -3   0  183.01   11.55
  -3  -3  -1   86.02    9.74
  -3  -3  -1  204.86   11.29
   3   3   2  801.31   38.13
  -3  -3  -2  756.62   33.47
   3   3   3  547.98   34.92
  -3  -3  -3  603.43   26.99
   3   3   4  171.83   17.31
  -3  -3  -4  197.29   17.17
   3   3   5  288.12   23.16
  -3  -3  -5  285.97   22.32
   3   3   6   14.67    5.64
  -3  -3  -6   14.06    8.00
   3   3   7  588.18   31.31
  -3  -3  -7  685.79   43.63
   3   3   8 2673.37  155.72
  -3  -3  -8 2973.81  147.03
   3   3   9 1478.42   79.00
  -3  -3  -9 1595.88   79.77
   3   3  10    4.73    6.61
  -3  -3 -10    9.94    6.73
   3   3  11  143.04   25.08
  -3  -3 -11  165.94   18.14
   3   3  12 1465.97   77.23
  -3  -3 -12  821.60   54.31
   3   3  13  126.85   14.34
  -3  -3 -13   51.13    6.04
   3   3  14    7.05    7.92
  -3  -3 -14    3.30    2.56
   3   3  15  217.31   25.83
   3   3  16  205.06   26.76
   3   3  17   42.15   15.79
  -3  -4  12   21.75   17.10
  -3  -4  12   42.58   47.64
  -3  -4  11  585.42   58.03
  -3  -4  11  577.32  150.91
  -3  -4  10   25.71   14.91
  -3  -4  10   30.09   37.72
  -3  -4   9   63.96   17.10
  -3  -4   9   71.76   25.50
  -3  -4   8   49.36   15.15
  -3  -4   8   80.18   20.71
  -3  -4   7  466.84   36.78
  -3  -4   6  164.12   20.01
  -3  -4   6  182.70   23.06
  -3  -4   5   10.15    8.23
  -3  -4   5   14.27   11.10
  -3  -4   4  176.42   17.72
  -3  -4   4  182.22   16.03
  -3  -4   3   77.63   11.17
  -3  -4   3   58.14    9.25
  -3  -4   2  142.16   13.85
  -3  -4   2  151.24   12.10
  -3  -4   1 1635.43   84.14
  -3  -4   1 1796.62   87.48
  -3  -4   0 3191.06  165.88
  -3  -4   0 3294.36  167.72
  -3  -4  -1 5031.55  280.20
  -3  -4  -1 5270.02  288.65
   3   4   2  622.82   40.01
  -3  -4  -2  577.50   30.38
  -3  -4  -2  636.96   35.73
   3   4   3 4174.53  235.64
  -3  -4  -3 4576.78  242.61
  -3  -4  -3 4438.03  232.90
   3   4   4  277.26   18.73
  -3  -4  -4  321.67   18.41
  -3  -4  -4  289.48   23.64
   3   4   5  415.01   25.67
  -3  -4  -5  498.00   25.68
  -3  -4  -5  453.55   23.57
   3   4   6  575.83   35.18
  -3  -4  -6 1115.75   47.49
   3   4   7  359.22   24.43
  -3  -4  -7  455.66   25.07
   3   4   8   61.87   10.88
  -3  -4  -8   78.76   10.49
   3   4   9   34.78    9.53
  -3  -4  -9   44.72   14.10
   3   4  10   17.34    9.74
  -3  -4 -10   50.59    9.60
   3   4  11 1796.44  107.64
  -3  -4 -11 2016.58  114.12
   3   4  12  263.12   25.43
   3   4  13   15.47    7.35
  -3  -4 -13    1.45    1.55
   3   4  14  142.03   20.92
   3   4  15   95.12   18.57
   3   4  16   97.06   20.52
   3   4  17  130.06   24.82
  -3  -5  11  804.38   98.71
  -3  -5  11  613.82  238.06
  -3  -5  10  619.22   57.57
  -3  -5  10  203.29  152.63
  -3  -5   9  450.56   44.85
  -3  -5   9  347.53   78.46
  -3  -5   8   20.08   13.13
  -3  -5   8   22.01   16.77
  -3  -5   7   11.35    8.48
  -3  -5   7   -9.93    9.64
  -3  -5   6  200.10   24.01
  -3  -5   6  222.98   28.29
  -3  -5   5   70.03   14.24
  -3  -5   5   51.73   13.77
  -3  -5   4  501.89   48.45
  -3  -5   4  496.85   39.83
  -3  -5   3  647.17   41.90
  -3  -5   3  646.85   42.62
  -3  -5   2   57.85   11.67
  -3  -5   2   65.60    8.90
  -3  -5   1 1460.16   83.31
  -3  -5   1 1645.77   93.21
  -3  -5   0   32.56    9.22
  -3  -5   0   50.17    7.54
  -3  -5  -1   24.46    8.04
  -3  -5  -1   32.09    6.37
   3   5   2   36.03    8.10
  -3  -5  -2   36.94    8.01
  -3  -5  -2   32.07    6.57
   3   5   3 2131.96  116.41
  -3  -5  -3 2045.84  110.38
  -3  -5  -3 2103.91  101.79
   3   5   4    4.64    5.99
  -3  -5  -4   20.80    5.94
  -3  -5  -4    9.99    8.63
   3   5   5 1277.90   71.69
  -3  -5  -5 1416.30   82.29
  -3  -5  -5 1485.65   71.72
   3   5   6   -2.30    7.04
  -3  -5  -6   13.80    8.99
  -3  -5  -6   30.82    6.61
   3   5   7  259.06   20.66
  -3  -5  -7  242.70   25.19
  -3  -5  -7  308.46   20.64
   3   5   8   17.23    7.10
  -3  -5  -8   11.83    7.44
  -3  -5  -8   -2.45    6.34
   3   5   9   70.03   12.17
  -3  -5  -9   38.63   10.70
  -3  -5  -9   65.51   11.35
   3   5  10  220.09   23.57
  -3  -5 -10  292.30   23.12
   3   5  11 1986.40  128.07
  -3  -5 -11 2325.69  130.13
   3   5  12   51.61   13.79
   3   5  13   12.34    9.92
   3   5  14   15.56   12.29
   3   5  15   74.60   19.21
   3   5  16   28.17   16.21
   3   5  17   32.04   17.72
  -3  -6  10  -19.12   16.81
  -3  -6   9  357.06   63.01
  -3  -6   8   38.03   16.48
  -3  -6   8   27.48   30.09
  -3  -6   7  266.27   31.90
  -3  -6   7  168.03   56.85
  -3  -6   6   74.90   28.00
  -3  -6   6   85.09   35.90
  -3  -6   5   -9.59    7.84
  -3  -6   5    8.34    8.18
  -3  -6   4   33.94   12.57
  -3  -6   4   22.94   17.88
  -3  -6   3 1338.56   99.40
  -3  -6   3 1275.43   97.95
  -3  -6   2  310.99   28.05
  -3  -6   2  313.22   26.97
  -3  -6   1   59.43   13.47
  -3  -6   1   77.42   11.23
  -3  -6   0  647.54   43.80
  -3  -6   0  683.61   41.22
  -3  -6  -1   97.90   14.28
  -3  -6  -1   80.75   10.78
   3   6   2 1648.39  113.32
  -3  -6  -2 1833.49  102.79
  -3  -6  -2 1625.94   89.51
   3   6   3  562.81   38.43
  -3  -6  -3  511.77   36.20
  -3  -6  -3  612.85   35.02
   3   6   4  154.43   16.67
  -3  -6  -4  168.81   17.29
  -3  -6  -4  165.76   21.19
   3   6   5  146.62   23.82
  -3  -6  -5  118.07   14.73
  -3  -6  -5  146.88   14.02
   3   6   6  661.42   44.44
  -3  -6  -6  652.74   43.75
  -3  -6  -6  743.42   40.76
   3   6   7  520.27   37.07
  -3  -6  -7  502.07   34.56
  -3  -6  -7  613.55   45.37
   3   6   8 1645.38  107.78
  -3  -6  -8 1511.11  104.69
   3   6   9  953.59   62.78
  -3  -6  -9 1263.20   81.70
   3   6  10   79.29   15.13
  -3  -6 -10   88.67   14.93
   3   6  11  182.99   32.09
   3   6  12  564.21   44.94
   3   6  13   13.93   11.54
   3   6  14   33.12   15.08
   3   6  15   29.67   15.41
   3   6  16  162.99   29.46
   3   6  17   -4.45   12.91
  -3  -7   8   10.62   14.86
  -3  -7   7   37.63   18.64
  -3  -7   6  253.23   41.56
  -3  -7   6   76.24   37.99
  -3  -7   5   20.34   13.12
  -3  -7   5   12.97   11.96
  -3  -7   4  245.81   30.00
  -3  -7   4  176.57   30.45
  -3  -7   3 1942.61  151.42
  -3  -7   3 1738.40  185.86
  -3  -7   2  345.60   33.75
  -3  -7   2  303.29   32.38
  -3  -7   1  179.32   23.57
  -3  -7   1  176.62   20.85
  -3  -7   0 1654.04  103.78
  -3  -7   0 1520.54  107.35
  -3  -7  -1  952.09   68.28
  -3  -7  -1 1090.67   68.96
   3   7   2  107.82   17.61
  -3  -7  -2  108.15   17.93
  -3  -7  -2   98.17   14.42
   3   7   3  104.61   17.66
  -3  -7  -3  135.77   19.17
  -3  -7  -3  152.30   16.50
   3   7   4    1.88    7.14
  -3  -7  -4   -2.68    7.06
  -3  -7  -4    6.01    5.95
   3   7   5  162.43   20.60
  -3  -7  -5  150.20   19.39
  -3  -7  -5  170.24   17.65
   3   7   6    2.07    7.13
  -3  -7  -6    6.58    7.02
  -3  -7  -6   13.03    7.59
   3   7   7   10.23    7.19
  -3  -7  -7   14.41   10.13
  -3  -7  -7    6.58    8.03
   3   7   8   -3.67    5.97
  -3  -7  -8    1.49    4.15
  -3  -7  -8   -7.14    6.61
   3   7   9   77.77   15.44
  -3  -7  -9  130.53   17.12
   3   7  10 2459.26  164.08
   3   7  11   62.80   15.91
   3   7  12  210.26   38.99
   3   7  13  284.84   33.67
   3   7  14  147.65   26.78
   3   7  15   17.60   14.57
   3   7  16    4.60   12.36
  -3  -8   6   -3.15   12.41
  -3  -8   5   57.53   20.66
  -3  -8   4  274.25   28.26
  -3  -8   4   64.97   14.84
  -3  -8   3  178.86   25.11
  -3  -8   3   73.67   16.31
  -3  -8   2  767.62   74.89
  -3  -8   2  398.34   47.04
  -3  -8   1  229.10   29.43
  -3  -8   1  178.02   24.48
  -3  -8   0  535.00   50.46
  -3  -8   0  598.89   60.98
  -3  -8  -1 1209.33   89.69
  -3  -8  -1 1072.58   83.41
   3   8   2  497.22   52.01
  -3  -8  -2  458.36   47.52
  -3  -8  -2  583.00   45.37
   3   8   3 1541.39  130.44
  -3  -8  -3 1419.43  112.92
  -3  -8  -3 1950.83  136.01
   3   8   4   34.29   13.67
  -3  -8  -4   30.46   13.47
  -3  -8  -4   35.40   12.30
   3   8   5   92.56   17.52
  -3  -8  -5   99.13   27.66
  -3  -8  -5  127.79   18.73
   3   8   6  409.01   46.43
  -3  -8  -6  420.67   36.09
   3   8   7   64.23   13.75
  -3  -8  -7   47.21   11.59
  -3  -8  -7   88.88   15.26
   3   8   8    9.63    7.49
  -3  -8  -8    5.75    5.65
  -3  -8  -8    1.05    9.43
   3   8   9   50.58   11.63
  -3  -8  -9   23.47    6.11
   3   8  10  107.55   18.68
   3   8  11   93.03   19.27
   3   8  12  631.08   56.70
   3   8  13  304.04   37.84
   3   8  14  486.38   73.05
   3   8  15   30.88   28.10
  -3  -9   4   67.00   25.99
  -3  -9   3    8.98   16.23
  -3  -9   2   34.78   30.02
  -3  -9   1   11.00   23.20
  -3  -9   1   10.33   11.64
  -3  -9   0  262.09   35.46
  -3  -9   0  131.37   31.99
  -3  -9  -1  390.23   45.37
  -3  -9  -1  274.17   45.15
  -3  -9  -2  459.07   50.54
  -3  -9  -2  393.02   41.32
   3   9   3  940.01   95.43
  -3  -9  -3  905.46  107.48
  -3  -9  -3 1040.37   82.44
   3   9   4  803.39   74.82
  -3  -9  -4  792.52   98.34
  -3  -9  -4 1047.45   77.04
   3   9   5   26.07   15.28
  -3  -9  -5   40.53   15.94
  -3  -9  -5   55.55   15.77
   3   9   6  177.10   23.80
  -3  -9  -6  156.03   23.98
   3   9   7   46.46   13.98
  -3  -9  -7   43.94   18.75
   3   9   8   26.39   10.73
  -3  -9  -8   10.60    6.88
   3   9   9  151.55   21.62
   3   9  10   77.84   17.19
   3   9  11    3.39   15.28
   3   9  12   36.33   16.29
   3   9  13  118.11   25.93
  -3 -10   0   72.69   44.57
  -3 -10  -1  178.08   59.35
  -3 -10  -2    3.05   22.61
   3  10   3  376.77   84.08
  -3 -10  -3  432.80   82.62
   3  10   4   28.98   24.36
  -3 -10  -4   12.97   17.09
   3  10   5  121.21   36.44
  -3 -10  -5  107.03   25.27
   3  10   6  414.56   45.69
   3  10   7  114.79   21.69
   3  10   8  180.66   39.05
   3  10   9   29.81   14.30
   3  10  10  200.95   28.61
  -4   9   7   19.63   20.89
  -4   9   7    6.40   13.75
  -4   9   6   11.20   17.87
  -4   9   6  -17.78   17.98
  -4   9   5   82.77   35.67
  -4   9   5   79.51   24.02
  -4   9   4  160.62   45.85
  -4   9   3   -1.98   16.81
  -4   9   2   65.23   47.76
  -4   9   1   25.16   23.24
  -4   9   0   24.14   23.08
  -4   9  -1  129.56   59.70
  -4   9  -2   18.66   21.59
  -4   8  10   14.81   15.68
  -4   8   9   -3.97   12.33
  -4   8   8   10.29   21.06
  -4   8   7  162.91   30.59
  -4   8   6  168.00   30.31
  -4   8   5   16.39   23.70
  -4   8   1   69.11   23.91
  -4   8   0   66.16   25.07
  -4   8  -1   36.37   19.58
  -4   8  -1   10.21    9.79
  -4   8  -2   57.24   26.60
  -4   8  -3   27.78   23.22
  -4   8  -4  153.11   63.29
  -4   8  -5   79.66   31.79
  -4   7  12   19.00   18.27
  -4   7  11   52.34   22.10
  -4   7  10    6.97   13.69
  -4   7   9   67.09   22.18
  -4   7   8    1.41    9.68
  -4   7   7  120.80   35.55
  -4   7   6   10.95   11.67
  -4   7   5 1734.46  142.92
   4  -7  -4  108.77   21.91
  -4   7   4  107.64   22.10
   4  -7  -3   56.68   17.42
   4  -7  -2  456.34   50.89
   4  -7  -1  125.34   24.99
   4  -7   0   94.01   33.94
   4  -7   1   35.69   25.35
   4  -7   2    4.82   14.84
  -4   7  -2    4.56    6.58
   4  -7   3    6.24    7.50
  -4   7  -3  -11.15   14.09
  -4   7  -3    3.90    5.32
   4  -7   4   32.89   11.85
  -4   7  -4  360.08   44.69
  -4   7  -5  -17.67   20.37
  -4   7  -6 1233.77  132.48
  -4   7  -7   36.63   26.26
  -4   7  -8  124.10   40.43
  -4   6  13  188.39   37.52
  -4   6  12   16.36   16.75
  -4   6  11  193.74   33.66
  -4   6  10   30.63   16.81
  -4   6   9    6.82   11.38
   4  -6  -8   57.61   16.41
  -4   6   8   76.24   18.83
   4  -6  -7  268.46   28.75
  -4   6   7  272.40   46.09
   4  -6  -6  509.48   57.26
  -4   6   6  615.97   50.68
   4  -6  -5  752.59   59.37
  -4   6   5  831.89   62.62
   4  -6  -4    8.05    9.16
  -4   6   4   10.86    9.61
   4  -6  -3  135.91   29.35
  -4   6   3  152.67   30.65
   4  -6  -2  118.41   18.83
   4  -6  -1  144.32   21.50
   4  -6   0  948.55   79.41
   4  -6   1  605.52   73.38
   4  -6   2    8.55    8.27
  -4   6  -2   -2.04    5.78
   4  -6   3  142.23   24.65
  -4   6  -3  108.10   15.21
   4  -6   4  328.61   41.75
  -4   6  -4  232.18   33.00
   4  -6   5   85.28   23.18
  -4   6  -5  292.55   37.13
   4  -6   6   18.66   15.36
  -4   6  -6  120.37   37.78
  -4   6  -7  173.35   40.06
  -4   6  -8  443.57   97.69
  -4   6  -9  109.91   36.79
  -4   6 -10  354.48   64.02
  -4   5  13   71.63   25.11
  -4   5  12  310.04   42.95
  -4   5  11  742.55   70.73
  -4   5  10  110.55   23.65
   4  -5  -9   15.85    9.74
  -4   5   9    0.18   10.84
   4  -5  -8   20.79   16.58
  -4   5   8   12.96   11.53
   4  -5  -7  415.23   36.40
  -4   5   7  503.75   53.19
   4  -5  -6  773.46   53.08
  -4   5   6  841.69   59.94
   4  -5  -5    4.31    8.56
  -4   5   5   19.66    8.90
   4  -5  -4  421.00   34.23
  -4   5   4  469.18   36.73
   4  -5  -3  227.58   22.92
  -4   5   3  276.25   34.17
   4  -5  -2    3.85    5.22
  -4   5   2   -3.93    4.99
   4  -5  -1  115.22   15.81
   4  -5   0  695.91   50.18
   4  -5   1  968.81   80.74
   4  -5   2 2388.97  179.69
  -4   5  -2 2310.84  170.27
   4  -5   3  582.89   50.56
  -4   5  -3  536.97   47.98
   4  -5   4 1635.65  144.42
  -4   5  -4 1787.88  125.77
   4  -5   5  223.57   29.46
   4  -5   6    4.83   10.00
   4  -5   7   77.01   35.04
  -4   5  -7  116.78   29.34
   4  -5   8  108.72   34.62
  -4   5  -8  351.24   43.70
  -4   5  -9  156.27   40.50
  -4   5 -10    7.89   18.25
  -4   5 -11  254.12   78.07
  -4   5 -12  212.25   51.46
  -4   4  14 1064.87  109.94
  -4   4  13  231.06   39.33
  -4   4  12  718.44   73.18
   4  -4 -11   12.77   10.97
  -4   4  11    3.01   12.62
   4  -4 -10  130.92   20.40
  -4   4  10  116.29   23.98
   4  -4  -9  432.87   40.50
  -4   4   9  523.15   45.15
   4  -4  -8  960.72   65.96
  -4   4   8 1110.91   94.27
   4  -4  -7   13.60    8.68
  -4   4   7    5.53    9.00
   4  -4  -6  602.50   42.35
  -4   4   6  651.39   45.90
   4  -4  -5   12.85    8.25
  -4   4   5   16.98   12.92
   4  -4  -4  636.87   54.60
  -4   4   4  722.49   46.48
   4  -4  -3   34.99    9.46
   4  -4  -2   81.92   18.27
  -4   4   2   80.77   11.82
   4  -4  -1  356.48   26.05
  -4   4   1  386.25   27.63
   4  -4   0  117.21   13.63
   4  -4   1  410.21   28.12
   4  -4   2 1454.93   89.61
  -4   4  -2 1492.20   91.57
   4  -4   3  185.76   23.23
  -4   4  -3  121.45   13.24
   4  -4   411495.30 1048.91
  -4   4  -410529.11  968.09
   4  -4   5 1024.94   74.70
   4  -4   6  119.86   24.13
   4  -4   7 1075.28   88.71
   4  -4   8    0.84   11.94
  -4   4  -8    0.88   10.97
   4  -4   9   10.99   12.17
  -4   4  -9   -4.37   26.04
   4  -4  10   -2.12   14.30
  -4   4 -10   13.37   16.10
   4  -4  11   44.47   47.68
  -4   4 -11   55.41   26.71
  -4   4 -12   47.32   43.65
  -4   4 -13  183.77   46.50
  -4   3  14   60.36   36.36
  -4   3  13   51.44   31.96
   4  -3 -12   16.26   11.39
  -4   3  12    0.13   13.23
   4  -3 -11  100.36   19.93
  -4   3  11  132.54   35.85
   4  -3 -10  438.35   41.69
  -4   3  10  498.57   63.44
   4  -3  -9  776.15   55.85
  -4   3   9  824.47   64.03
   4  -3  -8 2806.63  179.43
  -4   3   8 3020.99  202.40
   4  -3  -7 8049.61  592.78
  -4   3   7 9481.75  647.91
   4  -3  -6 1414.87   84.31
  -4   3   6 1609.64   90.73
   4  -3  -5  184.73   18.69
  -4   3   5  215.72   20.30
   4  -3  -4   25.47   12.90
  -4   3   4   30.91    8.80
   4  -3  -3   64.19   10.76
  -4   3   3   97.22   11.59
   4  -3  -2 1183.15   64.50
  -4   3   2 1373.78   83.07
   4  -3  -1  444.02   27.73
  -4   3   1  494.82   39.70
   4  -3   0    7.85    9.36
  -4   3   0   25.64    9.93
   4  -3   1  378.26   23.53
   4  -3   2    6.10    4.21
  -4   3  -2   -2.93    4.63
   4  -3   3   75.34    9.56
  -4   3  -3   83.60   14.72
   4  -3   4 4737.92  319.52
  -4   3  -4 4491.62  303.04
   4  -3   5 2539.61  166.82
   4  -3   6   56.87   10.51
   4  -3   7   13.49   11.31
   4  -3   8 1836.49  133.78
   4  -3   9   93.65   25.51
   4  -3  10    7.40   10.05
  -4   3 -10    3.23   15.46
   4  -3  11   21.82   21.41
  -4   3 -11    8.56   18.93
   4  -3  12   99.26   26.31
  -4   3 -12  169.37   35.26
   4  -3  13   66.54   23.62
  -4   3 -13  172.94   51.30
  -4   3 -14    1.50   16.25
  -4   2  14   22.51   17.24
  -4   2  13   31.14   17.58
   4  -2 -12    9.07   10.69
  -4   2  12    4.77   12.00
   4  -2 -11   91.10   29.02
  -4   2  11   87.32   20.81
   4  -2 -10  546.54   45.70
  -4   2  10  557.17   49.26
   4  -2  -9 1199.46   79.08
  -4   2   9 1227.52   87.67
   4  -2  -8  736.06   65.16
  -4   2   8  847.12   56.61
   4  -2  -7 3377.68  207.83
  -4   2   7 4187.52  269.09
   4  -2  -6 3108.81  180.96
  -4   2   6 3256.84  198.19
   4  -2  -5  559.46   34.67
  -4   2   5  596.19   38.77
   4  -2  -4  461.90   37.35
  -4   2   4  520.02   31.66
   4  -2  -3  234.79   17.07
  -4   2   3  260.42   18.84
   4  -2  -2  501.22   29.20
  -4   2   2  538.60   32.38
   4  -2  -1  127.97   11.82
  -4   2   1  153.36   13.73
   4  -2   0  131.05   11.60
  -4   2   0  126.41   12.24
   4  -2   1   52.33    7.70
  -4   2  -1   67.42    8.68
   4  -2   2   -0.62    7.18
  -4   2  -2    7.88    4.91
   4  -2   3 1311.87   77.59
  -4   2  -3 1393.44   71.66
   4  -2   4   73.19    9.43
  -4   2  -4   91.49    9.87
   4  -2   5  736.96   40.02
   4  -2   6  406.66   25.91
   4  -2   7 4140.22  272.47
   4  -2   8   68.68   11.06
   4  -2   9  985.67   65.23
   4  -2  10  208.87   23.32
   4  -2  11  834.89   93.89
  -4   2 -11 1284.77  109.09
   4  -2  12   35.21   14.69
  -4   2 -12   34.79   22.88
   4  -2  13  234.59   34.13
  -4   2 -13  333.79   49.18
   4  -2  14  158.20   28.70
  -4   2 -14  233.67   44.38
   4  -2  15    2.24    9.57
  -4   2 -15    3.18   27.20
  -4   1  14   51.89   28.21
  -4   1  14  128.02   40.18
  -4   1  13   20.94   26.95
   4  -1 -12   61.34   16.91
  -4   1  12   52.72   18.63
  -4   1  12   54.07   30.85
   4  -1 -11   26.66   13.27
  -4   1  11   31.06   13.28
  -4   1  11   25.08   23.43
   4  -1 -10  477.67   41.67
  -4   1  10  439.19   42.45
  -4   1  10  549.62   48.54
   4  -1  -9   66.76   14.94
  -4   1   9   84.71   15.90
  -4   1   9   76.68   16.99
   4  -1  -8  173.64   19.11
  -4   1   8  174.88   21.47
   4  -1  -7  448.34   33.00
  -4   1   7  469.28   35.41
   4  -1  -6 2731.00  157.35
   4  -1  -5 7959.23  543.23
  -4   1   5 9057.93  597.97
   4  -1  -4 1726.84   82.59
  -4   1   4 1481.71   76.89
   4  -1  -3   -0.38    5.05
  -4   1   3   11.15    5.29
   4  -1  -2   40.18    7.80
  -4   1   2   50.00    8.77
   4  -1  -1  117.01   11.09
  -4   1   1  137.49   12.20
   4  -1   0 2208.39  112.17
  -4   1   0 2465.49  138.08
   4  -1   1  278.54   18.23
  -4   1  -1  334.04   20.83
   4  -1   2   20.51    5.92
  -4   1  -2   32.21    6.48
   4  -1   3   97.56   10.16
  -4   1  -3  128.19   11.26
   4  -1   4    9.28    4.45
  -4   1  -4   -1.23    7.43
   4  -1   5  707.05   36.38
  -4   1  -5  750.76   40.42
   4  -1   6  333.26   27.25
   4  -1   7   65.41    9.65
   4  -1   8 1784.86  107.84
   4  -1   9   37.21   10.26
   4  -1  10   23.49    9.53
   4  -1  11 3449.77  238.62
   4  -1  12   -4.78    6.74
  -4   1 -12   28.25   17.25
   4  -1  13  501.43   61.49
  -4   1 -13  806.84  106.94
   4  -1  14   17.03   11.09
  -4   1 -14    5.14   18.40
   4  -1  15   27.58   14.80
  -4   1 -15   49.02   20.12
   4  -1  16   48.39   15.88
  -4   1 -16   50.79   21.53
  -4   0  14   85.74   30.16
  -4   0  14   97.16   28.49
  -4   0  13  201.60   38.46
  -4   0  13  245.69   40.18
   4   0 -12    0.21   10.74
  -4   0  12   10.39   12.50
  -4   0  12   16.32   13.25
   4   0 -11   84.31   18.37
  -4   0  11   66.30   19.15
  -4   0  11   88.47   21.01
   4   0 -10  172.21   21.96
  -4   0  10  151.19   23.76
  -4   0  10  188.92   37.82
   4   0  -9    1.30    7.11
  -4   0   9    3.61   11.52
   4   0  -8  553.20   50.80
  -4   0   8  525.88   40.02
  -4   0   8  507.02   41.78
   4   0  -7 1371.64   79.45
  -4   0   7 1563.74   95.42
  -4   0   7 1543.49   95.13
   4   0  -6  557.27   34.73
  -4   0   6  573.03   36.77
   4   0  -5   36.51    8.57
  -4   0   5   40.00    9.13
   4   0  -4  435.17   26.82
  -4   0   4  457.17   28.38
   4   0  -3   14.48    5.84
  -4   0   3   10.72    6.35
   4   0  -2  243.38   17.24
  -4   0   2  258.75   18.61
   4   0  -1 1192.67   58.96
  -4   0   1 1456.43   77.30
   4   0   0   17.90    6.09
  -4   0   0   14.37    6.07
   4   0   1 1556.34   69.73
  -4   0  -1 1108.49   56.23
   4   0   210526.77  676.13
  -4   0  -211155.57  779.64
   4   0   3 5465.14  309.36
  -4   0  -3 5789.13  331.09
   4   0   4   71.79    8.75
  -4   0  -4   98.22   10.24
   4   0   5  160.14   13.11
  -4   0  -5  164.70   13.01
   4   0   6   23.87    6.84
  -4   0  -6   19.72   10.44
   4   0   7  201.37   18.97
  -4   0  -7  404.86   23.87
   4   0   8   87.24   11.75
  -4   0  -8   85.20   12.02
   4   0   9   -7.31    9.82
  -4   0  -9   -3.77    6.91
   4   0  10  122.34   15.92
  -4   0 -10  112.56   16.26
   4   0  11  302.91   27.03
  -4   0 -11  269.03   27.46
   4   0  12  192.11   33.57
  -4   0 -12  237.66   33.23
  -4   0 -12  235.18   40.07
   4   0  13   46.78   13.84
  -4   0 -13   58.73   22.27
   4   0  14  693.76   58.61
  -4   0 -14  701.37   72.47
   4   0  15    7.41   10.62
  -4   0 -15   14.90   11.76
   4   0  16   41.27   15.09
  -4   0 -16   24.93   15.90
  -4  -1  13  107.90   28.40
  -4  -1  13  111.74   29.92
   4   1 -12    9.38   12.46
  -4  -1  12    2.09   14.28
  -4  -1  12   28.96   14.68
   4   1 -11  -13.11    9.14
  -4  -1  11    4.15    9.73
  -4  -1  11    4.42   10.29
   4   1 -10    9.60    9.95
  -4  -1  10   15.67   10.59
  -4  -1  10    3.69   11.12
   4   1  -9 1996.46  141.51
  -4  -1   9 2299.30  151.99
  -4  -1   9 2555.96  196.33
   4   1  -8   45.12   11.89
  -4  -1   8   51.10   13.03
  -4  -1   8   49.32   13.49
   4   1  -7  629.35   41.88
  -4  -1   7  664.80   46.00
  -4  -1   7  645.48   46.76
   4   1  -6  107.98   13.45
  -4  -1   6  116.10   15.44
  -4  -1   6  111.30   14.79
   4   1  -5  187.65   17.26
  -4  -1   5  223.58   19.40
   4   1  -4    1.73    5.43
  -4  -1   4    8.85    5.92
   4   1  -3   23.25    6.92
  -4  -1   3   17.00    7.07
   4   1  -2 3968.04  228.82
  -4  -1   2 4747.23  263.97
   4   1  -1  812.26   44.25
  -4  -1   1  977.80   56.11
   4   1   0  391.75   23.97
  -4  -1   0  524.48   27.71
   4   1   1 1462.55   70.78
  -4  -1  -1 1479.13   69.70
   4   1   2 1738.57   85.60
  -4  -1  -2 1667.83   78.22
   4   1   3   13.03    5.15
  -4  -1  -3    5.36    8.34
   4   1   4   45.16    7.67
  -4  -1  -4   45.66    7.36
   4   1   5  415.59   25.59
  -4  -1  -5  412.93   24.23
   4   1   6  299.06   20.39
  -4  -1  -6  327.12   21.24
   4   1   7   13.05    6.67
  -4  -1  -7   21.39    6.87
   4   1   8  308.44   23.18
  -4  -1  -8  313.30   23.45
   4   1   9   28.60   12.90
  -4  -1  -9   18.02    8.57
   4   1  10  127.21   16.27
  -4  -1 -10  135.95   17.07
   4   1  11  130.76   17.99
  -4  -1 -11  148.89   18.92
   4   1  12   18.99   11.53
  -4  -1 -12   56.14   13.21
   4   1  13  460.80   56.82
  -4  -1 -13  525.57   68.19
  -4  -1 -13  616.49   50.73
   4   1  14  151.75   23.05
  -4  -1 -14  144.16   35.23
   4   1  15   -0.02   10.11
  -4  -1 -15   12.05    8.84
   4   1  16    9.24   10.37
  -4  -1 -16    4.36    8.36
   4   1  17    9.74    9.81
  -4  -1 -17   -1.29    6.67
  -4  -2  13   65.96   39.42
  -4  -2  13   66.94   28.07
   4   2 -12   79.13   22.62
  -4  -2  12  108.20   24.85
  -4  -2  12   60.75   28.00
   4   2 -11  144.70   25.64
  -4  -2  11  167.78   27.19
  -4  -2  11  118.55   31.02
   4   2 -10  154.35   22.65
  -4  -2  10  104.59   23.86
  -4  -2  10  193.82   40.82
   4   2  -9  424.72   37.72
  -4  -2   9  468.96   42.04
  -4  -2   9  442.33   62.53
   4   2  -8 1543.39  109.16
  -4  -2   8 1743.57  113.29
  -4  -2   8 1788.87  131.78
   4   2  -7  249.40   23.44
  -4  -2   7  282.75   26.52
  -4  -2   7  284.68   27.54
   4   2  -6   23.08    7.92
  -4  -2   6   22.33    9.65
  -4  -2   6   15.51   14.88
   4   2  -5    8.46    6.30
  -4  -2   5   10.30    7.22
  -4  -2   5    2.49    6.79
   4   2  -4   12.99    7.19
  -4  -2   4   24.71    8.13
  -4  -2   4   30.86   12.42
   4   2  -3  726.54   52.57
  -4  -2   3  808.90   47.14
   4   2  -2  217.84   18.23
  -4  -2   2  253.58   19.80
   4   2  -1  179.39   15.51
  -4  -2   1  199.55   21.43
   4   2   0  331.49   19.34
  -4  -2   0  175.30   15.38
   4   2   1    1.81    5.01
  -4  -2  -1    8.14    4.66
   4   2   2    3.08    4.50
  -4  -2  -2    2.56    4.40
   4   2   3 1058.41   53.61
  -4  -2  -3 1069.88   51.87
   4   2   4  282.34   19.98
  -4  -2  -4  268.26   24.54
   4   2   5 1149.73   60.38
  -4  -2  -5 1307.73   74.62
   4   2   6  941.76   53.58
  -4  -2  -6 2116.64   97.12
   4   2   7  137.17   14.58
  -4  -2  -7  129.39   20.28
   4   2   8   54.90   15.94
  -4  -2  -8   63.08   15.95
   4   2   9 1798.96  102.92
  -4  -2  -9 2010.81  129.79
   4   2  10   37.63   16.77
  -4  -2 -10   37.67   10.76
   4   2  11  388.15   32.85
  -4  -2 -11  438.04   33.79
   4   2  12   25.05   10.51
  -4  -2 -12   13.61   11.28
   4   2  13  342.79   31.22
  -4  -2 -13  252.25   28.31
   4   2  14  170.24   22.71
  -4  -2 -14  111.51   28.09
   4   2  15  239.59   25.70
  -4  -2 -15  110.35   19.09
   4   2  16  165.70   22.80
  -4  -2 -16   66.65   14.39
   4   2  17  432.56   45.87
  -4  -3  12    4.91   15.22
  -4  -3  12   17.76   19.91
  -4  -3  11   75.83   22.96
  -4  -3  11   92.58   31.34
  -4  -3  10   69.26   31.43
  -4  -3  10   74.98   26.20
  -4  -3   9  421.28   42.40
  -4  -3   9  422.16   53.13
  -4  -3   8  366.03   37.16
  -4  -3   8  379.53   43.37
  -4  -3   7   13.11   13.95
  -4  -3   7   -2.58   14.38
  -4  -3   6  629.90   44.77
  -4  -3   6  655.73   54.05
  -4  -3   5   34.45   11.72
  -4  -3   5   65.27   13.01
  -4  -3   4    0.82    6.52
  -4  -3   4    6.14    7.10
   4   3  -3  117.24   13.80
  -4  -3   3  141.86   15.06
  -4  -3   3   92.78   14.67
   4   3  -2   24.60    8.42
  -4  -3   2   32.66   13.67
  -4  -3   2   28.78    8.08
   4   3  -1  440.39   28.29
  -4  -3   1  432.80   28.79
  -4  -3   1  452.74   27.42
   4   3   0  474.26   29.48
  -4  -3   0  446.77   33.11
   4   3   1  828.92   55.76
  -4  -3  -1  852.90   50.62
   4   3   2    8.45    9.17
  -4  -3  -2   10.41    5.53
   4   3   3  504.61   39.21
  -4  -3  -3  544.15   29.51
   4   3   4   83.07   11.94
  -4  -3  -4  109.21   11.14
   4   3   5  348.88   24.25
  -4  -3  -5  391.90   24.09
   4   3   6 3058.59  166.34
  -4  -3  -6 2993.23  165.16
   4   3   7 2697.90  163.32
  -4  -3  -7 2685.00  146.01
   4   3   8  170.21   17.67
  -4  -3  -8  183.48   18.21
   4   3   9  207.35   29.38
  -4  -3  -9  212.52   20.25
   4   3  10   12.61    9.62
  -4  -3 -10   33.49   14.31
   4   3  11  890.81   58.27
  -4  -3 -11  867.14   57.58
   4   3  12  256.47   40.15
  -4  -3 -12  314.88   29.75
   4   3  13   38.59   13.56
  -4  -3 -13   58.71   15.17
   4   3  14   12.34    8.96
  -4  -3 -14    2.12    5.36
   4   3  15  229.32   27.97
   4   3  16   24.93   13.75
   4   3  17  264.38   34.41
  -4  -4  11   10.92   16.08
  -4  -4  11   25.15   29.48
  -4  -4  10  519.04   55.21
  -4  -4  10  588.70  106.34
  -4  -4   9  387.06   43.05
  -4  -4   9  424.15   99.76
  -4  -4   8  228.26   30.44
  -4  -4   8  243.46   47.67
  -4  -4   7  348.12   35.74
  -4  -4   7  381.43   54.80
  -4  -4   6  121.18   19.16
  -4  -4   6   90.91   23.98
  -4  -4   5  197.83   24.53
  -4  -4   5  241.15   28.11
  -4  -4   4  178.28   21.32
  -4  -4   4  209.37   22.03
  -4  -4   3   49.15   18.37
  -4  -4   3   50.27   10.98
  -4  -4   2   17.81    7.91
  -4  -4   2    3.55   10.93
   4   4  -1  965.01   71.92
  -4  -4   1 1078.54   71.62
  -4  -4   1 1000.94   57.11
   4   4   0  116.01   14.42
  -4  -4   0  117.24   14.21
  -4  -4   0  119.02   12.79
   4   4   1  335.16   24.86
  -4  -4  -1  404.43   34.23
  -4  -4  -1  332.41   22.10
   4   4   2  870.09   51.30
  -4  -4  -2  913.71   52.34
  -4  -4  -2  904.56   58.39
   4   4   3   95.52   12.98
  -4  -4  -3   77.49   11.67
  -4  -4  -3   96.88   11.16
   4   4   4  995.49   56.81
  -4  -4  -4 1026.14   54.14
   4   4   5  910.47   62.56
  -4  -4  -5  889.76   49.21
   4   4   6  417.25   29.53
  -4  -4  -6  428.89   27.77
   4   4   7   97.27   13.95
  -4  -4  -7  113.50   20.26
   4   4   8  507.17   35.47
  -4  -4  -8  562.40   36.25
   4   4   9 3174.94  191.18
  -4  -4  -9 3148.55  186.94
   4   4  10  942.38   64.49
  -4  -4 -10 1098.77   66.62
   4   4  11   46.91   21.57
  -4  -4 -11   57.23   13.32
   4   4  12   53.86   14.85
  -4  -4 -12   76.39   15.70
   4   4  13  155.10   22.63
  -4  -4 -13  214.27   25.22
   4   4  14  753.02   58.71
   4   4  15    4.72    9.83
   4   4  16  323.91   38.12
   4   4  17  252.52   35.09
  -4  -5  10  153.47   32.63
  -4  -5  10  205.38   89.98
  -4  -5   9  361.84   44.93
  -4  -5   9  415.20  106.96
  -4  -5   8   13.51   13.92
  -4  -5   8   37.40   38.57
  -4  -5   7  157.67   25.75
  -4  -5   7  187.24   41.53
  -4  -5   6   65.63   17.45
  -4  -5   6   62.57   21.84
  -4  -5   5   17.80   11.86
  -4  -5   5   24.41   19.66
  -4  -5   4  926.56   66.82
  -4  -5   4 1004.45   82.57
  -4  -5   3 1061.79   72.33
  -4  -5   3 1192.38   96.23
  -4  -5   2  845.63   70.65
  -4  -5   2  829.06   59.80
  -4  -5   1   88.92   14.59
  -4  -5   1   87.49   12.72
  -4  -5   0   58.87   12.01
  -4  -5   0   47.77   10.07
   4   5   1 2029.75  129.33
  -4  -5  -1 2270.00  133.83
  -4  -5  -1 2337.58  130.06
   4   5   2 2880.38  181.94
  -4  -5  -2 3045.83  184.46
  -4  -5  -2 2949.15  166.37
   4   5   3  731.53   50.52
  -4  -5  -3  753.33   59.91
  -4  -5  -3  716.82   51.86
   4   5   4  751.33   50.49
  -4  -5  -4  810.07   51.50
  -4  -5  -4  780.14   45.54
   4   5   5 1536.52  109.14
  -4  -5  -5 1668.34  106.60
  -4  -5  -5 1709.92   88.68
   4   5   6    6.47    7.92
  -4  -5  -6    9.06    8.42
  -4  -5  -6   24.19   11.69
   4   5   7  471.23   35.93
  -4  -5  -7  525.03   55.18
  -4  -5  -7  545.60   35.20
  -4  -5  -8  190.70   23.16
  -4  -5  -8  148.94   18.03
   4   5   9  915.10   63.45
  -4  -5  -9  931.71   86.56
  -4  -5  -9 1021.82   60.61
   4   5  10  143.94   20.37
  -4  -5 -10  157.94   25.70
  -4  -5 -10  162.83   19.16
   4   5  11  351.99   33.28
  -4  -5 -11  290.49   45.24
  -4  -5 -11  451.54   34.84
   4   5  12   47.09   14.30
  -4  -5 -12   27.88   20.98
  -4  -5 -12   57.19   13.96
   4   5  13   79.49   19.62
  -4  -5 -13  133.59   20.29
   4   5  14  125.20   22.09
   4   5  15   -0.69    8.60
   4   5  16   89.51   21.63
  -4  -6   9   48.55   22.06
  -4  -6   9   52.74   72.64
  -4  -6   8   15.71   16.70
  -4  -6   8   61.63   53.58
  -4  -6   7  272.86   36.73
  -4  -6   7  190.01   69.52
  -4  -6   6   40.00   26.29
  -4  -6   6   37.87   25.84
  -4  -6   5  312.14   35.60
  -4  -6   5  333.98   55.32
  -4  -6   4  129.29   21.78
  -4  -6   4  105.53   25.49
  -4  -6   3   49.99   15.48
  -4  -6   3   42.96   15.46
  -4  -6   2  168.44   23.57
  -4  -6   2  174.34   23.47
  -4  -6   1  614.53   49.08
  -4  -6   1  643.77   51.07
  -4  -6   0  861.85   64.12
  -4  -6   0  885.16   60.70
  -4  -6  -1  242.81   26.59
  -4  -6  -1  257.85   22.91
   4   6   2  157.49   19.93
  -4  -6  -2  167.63   21.13
  -4  -6  -2  133.67   16.77
   4   6   3  234.57   25.42
  -4  -6  -3  255.92   35.76
  -4  -6  -3  189.87   26.91
   4   6   4  594.05   44.71
  -4  -6  -4  602.68   47.51
  -4  -6  -4  569.73   37.86
   4   6   5   22.32   13.49
  -4  -6  -5   14.27    9.36
  -4  -6  -5    3.19    7.49
   4   6   6   18.80    9.78
  -4  -6  -6   12.30   10.60
  -4  -6  -6   14.66    8.41
   4   6   7  140.82   18.19
  -4  -6  -7  113.21   20.25
  -4  -6  -7  112.90   16.30
   4   6   8  529.87   43.21
  -4  -6  -8  561.20   54.18
  -4  -6  -8  677.18   43.36
   4   6   9  191.81   23.96
  -4  -6  -9  168.34   24.40
  -4  -6  -9  193.26   21.58
   4   6  10   24.73   14.35
  -4  -6 -10   32.01   11.56
  -4  -6 -10   67.19   13.18
   4   6  11  127.20   20.27
  -4  -6 -11  105.89   18.70
   4   6  12    4.29    8.34
  -4  -6 -12    1.73    2.62
  -4  -6 -12   -4.94    7.80
   4   6  13   12.87   10.49
  -4  -6 -13   -0.01   10.70
   4   6  14  383.64   41.49
   4   6  15  211.17   31.86
   4   6  16  132.54   28.06
  -4  -7   7  228.56   37.35
  -4  -7   6  -13.13   21.85
  -4  -7   6   -1.77   26.21
  -4  -7   5  236.45   35.30
  -4  -7   5  244.59   95.89
  -4  -7   4   13.56   14.37
  -4  -7   4   19.28   20.07
  -4  -7   3   11.29   20.93
  -4  -7   3   16.89   16.29
  -4  -7   2   10.80   12.95
  -4  -7   2   26.75   21.56
  -4  -7   1   68.96   19.41
  -4  -7   1   76.35   18.95
  -4  -7   0  171.32   25.95
  -4  -7   0  186.82   25.17
  -4  -7  -1   14.30   20.51
  -4  -7  -1   21.14   10.27
  -4  -7  -2  195.73   28.25
  -4  -7  -2  200.78   22.28
   4   7   3    2.47    8.22
  -4  -7  -3    2.79    8.88
  -4  -7  -3   -0.38    6.62
   4   7   4   52.71   21.81
  -4  -7  -4   30.17   15.83
  -4  -7  -4   44.59   12.10
   4   7   5  131.92   20.93
  -4  -7  -5  155.84   24.72
  -4  -7  -5  120.07   17.70
   4   7   6  332.75   34.41
  -4  -7  -6  343.90   40.15
  -4  -7  -6  330.52   29.93
   4   7   7  169.49   25.04
  -4  -7  -7  163.82   27.30
  -4  -7  -7  207.00   21.50
   4   7   8 1817.77  132.11
  -4  -7  -8 1928.20  118.25
   4   7   9  162.65   22.94
  -4  -7  -9  119.31   29.68
  -4  -7  -9  223.89   23.30
   4   7  10  350.89   37.16
  -4  -7 -10  468.21   38.35
   4   7  11  -15.48    7.64
  -4  -7 -11   -0.96    2.78
  -4  -7 -11   18.80    7.25
   4   7  12   14.67   10.95
  -4  -7 -12    6.80   11.33
   4   7  13    3.02   10.07
   4   7  14   68.20   20.67
   4   7  15  102.86   26.28
  -4  -8   5    5.78   14.22
  -4  -8   4  122.37   26.45
  -4  -8   4   59.16   33.64
  -4  -8   3   83.45   32.40
  -4  -8   3   22.31   25.50
  -4  -8   2  497.74   55.97
  -4  -8   2  459.95   77.00
  -4  -8   1  456.68   54.82
  -4  -8   1  534.65   88.00
  -4  -8   0  437.67   51.69
  -4  -8   0  444.88   55.36
  -4  -8  -1   -3.68   11.74
  -4  -8  -1    8.49   10.72
  -4  -8  -2   65.74   22.31
  -4  -8  -2   70.39   28.13
   4   8   3    3.44    9.92
  -4  -8  -3    6.54   10.91
  -4  -8  -3   -2.81    8.48
   4   8   4   30.32   16.25
  -4  -8  -4   14.54   26.65
  -4  -8  -4   25.92   19.49
   4   8   5    3.33   12.50
  -4  -8  -5    9.92   22.58
  -4  -8  -5   19.15   10.71
   4   8   6   12.79    9.57
  -4  -8  -6   -3.47   11.16
  -4  -8  -6    2.66    8.83
   4   8   7   45.25   15.24
  -4  -8  -7   36.84   17.39
  -4  -8  -7   67.22   15.01
   4   8   8   68.37   17.13
  -4  -8  -8   62.75   17.11
  -4  -8  -8  113.87   18.04
   4   8   9   14.09    9.22
  -4  -8  -9    0.19    6.97
  -4  -8  -9    4.21   15.00
   4   8  10  206.34   29.09
  -4  -8 -10  271.81   29.59
   4   8  11  573.12   47.45
  -4  -8 -11  293.09   38.80
   4   8  12  175.34   36.05
   4   8  12   90.39   23.09
   4   8  13   96.01   22.65
   4   8  14  830.37   78.88
  -4  -9   2  282.50   52.11
  -4  -9   2   81.95   29.55
  -4  -9   1  465.41   59.26
  -4  -9   1  289.40   77.75
  -4  -9   0   47.53   24.38
  -4  -9   0   51.56   33.87
  -4  -9  -1   34.92   19.77
  -4  -9  -1   10.44   17.48
  -4  -9  -2  120.85   33.13
  -4  -9  -2  128.17   29.28
  -4  -9  -3  232.42   45.62
  -4  -9  -3  325.40   41.95
   4   9   4  116.39   31.78
  -4  -9  -4  100.07   31.74
  -4  -9  -4  175.21   40.38
   4   9   5   72.99   35.15
  -4  -9  -5   79.58   26.84
  -4  -9  -5   98.57   23.21
   4   9   6   19.43   14.46
  -4  -9  -6   17.90   16.71
  -4  -9  -6   28.51   14.70
   4   9   7   52.27   17.73
  -4  -9  -7   33.18   28.23
  -4  -9  -7   78.94   19.05
   4   9   8   -0.77   15.50
  -4  -9  -8    5.74    8.41
  -4  -9  -8    6.36   10.85
   4   9   9  127.96   20.75
  -4  -9  -9   44.22   19.44
   4   9  10   15.49   20.48
   4   9  11   29.89   15.69
   4   9  12    9.15   12.87
  -4 -10  -3   52.45   29.68
  -4 -10  -3   60.42   24.31
  -4 -10  -4   18.30   22.14
  -4 -10  -4   22.39   18.34
   4  10   5   28.75   19.67
  -4 -10  -5    7.94   32.87
  -4 -10  -5   30.95   18.86
   4  10   6   95.64   26.66
  -4 -10  -6   79.33   30.64
  -4 -10  -6  171.45   32.53
   4  10   7   72.69   28.66
  -4 -10  -7   29.46   18.33
   4  10   8   24.78   14.11
  -4 -10  -8    4.03   16.24
  -5   8   6   -2.08   12.74
  -5   8   5   43.67   21.63
  -5   8   4   -0.44   11.30
   5  -8  -2   -8.95   22.35
   5  -8  -1  139.27   49.88
   5  -8   0  169.63   57.54
   5  -8   1   46.34   28.91
  -5   8  -2   36.13   29.82
  -5   7   9   75.47   26.04
  -5   7   8  123.01   31.14
   5  -7  -7  344.93   46.57
  -5   7   7  381.91   51.67
   5  -7  -6   52.13   20.30
   5  -7  -5   16.44   16.04
  -5   7   5   19.81   14.83
   5  -7  -4    1.71   14.27
  -5   7   4   19.92   19.49
   5  -7  -3    3.92   17.11
  -5   7   3   25.21   14.46
   5  -7  -2  112.81   31.41
   5  -7  -1   60.08   26.89
   5  -7   0   56.28   45.22
   5  -7   1  103.60   55.31
  -5   7  -1   71.84   21.64
   5  -7   2    3.71   22.69
  -5   7  -2   16.56   16.70
   5  -7   3    9.71   19.89
   5  -7   4    2.05   27.75
  -5   7  -4   26.23   23.60
  -5   7  -5  424.44   79.98
  -5   7  -6  430.01  123.17
  -5   6  10   84.21   38.69
   5  -6  -9   55.50   19.39
  -5   6   9   71.92   34.16
   5  -6  -8   91.38   23.61
  -5   6   8  140.50   26.16
   5  -6  -7  123.06   25.61
  -5   6   7  160.79   27.68
   5  -6  -6    0.42    8.29
  -5   6   6   -0.83   12.92
   5  -6  -5  162.27   41.40
  -5   6   5  175.89   27.25
   5  -6  -4   50.72   17.91
  -5   6   4   43.98   15.73
   5  -6  -3  209.17   31.60
  -5   6   3  245.63   31.37
   5  -6  -2    6.53   18.67
  -5   6   2    8.89   10.58
   5  -6  -1   26.73   15.82
   5  -6   0   65.75   21.65
   5  -6   1   37.98   26.36
  -5   6  -1   16.58   19.49
   5  -6   2   20.68   16.93
  -5   6  -2   10.62    9.84
   5  -6   3  162.23   36.84
  -5   6  -3  104.14   19.62
   5  -6   4  124.84   37.42
  -5   6  -4   80.33   17.48
   5  -6   5   83.88   38.75
   5  -6   6  214.74   68.10
  -5   6  -7    1.22   19.45
  -5   6  -8 1382.23  171.89
   5  -5 -11    6.96   12.16
  -5   5  11   -0.78   21.32
   5  -5 -10   49.52   18.09
  -5   5  10   58.38   32.27
   5  -5  -9   48.20   18.93
  -5   5   9   64.25   20.72
   5  -5  -8    7.04   10.64
  -5   5   8    2.47   11.06
   5  -5  -7   65.19   27.78
  -5   5   7   75.14   19.44
   5  -5  -6   11.74   10.93
   5  -5  -5   69.26   23.19
  -5   5   5   42.18   14.92
   5  -5  -4  192.74   24.87
  -5   5   4  200.60   25.22
   5  -5  -3  618.33   49.18
  -5   5   3  564.09   51.26
   5  -5  -2  379.57   39.19
  -5   5   2  441.28   39.38
   5  -5  -1   22.26   13.01
  -5   5   1   46.09   18.84
   5  -5   0   63.28   16.32
  -5   5   0   63.94   14.09
   5  -5   1   24.49   12.28
   5  -5   2   20.70   18.65
  -5   5  -2   14.09   14.93
   5  -5   3  506.87   53.52
  -5   5  -3  465.12   42.67
   5  -5   4  227.71   34.86
  -5   5  -4  191.92   23.78
   5  -5   5   40.92   29.70
   5  -5   6   79.18   27.95
   5  -5   7  554.36   96.92
   5  -5   8   82.89   48.78
  -5   5  -8  211.71   46.34
  -5   5  -9  856.13  121.03
  -5   5 -10   31.98   34.58
   5  -4 -12   12.85   15.07
  -5   4  12   29.98   29.03
   5  -4 -11  354.62   42.89
  -5   4  11  444.35   53.21
   5  -4 -10    6.35   11.53
  -5   4  10    3.23   12.70
   5  -4  -9  139.32   23.57
  -5   4   9  137.83   26.71
   5  -4  -8   23.88   12.71
  -5   4   8   24.30   13.88
   5  -4  -7    1.17    8.08
  -5   4   7    2.03    8.57
   5  -4  -6   13.69   11.22
  -5   4   6   29.54   11.23
   5  -4  -5   10.97   13.50
  -5   4   5    5.01    8.67
   5  -4  -4   19.83    9.92
  -5   4   4   14.31   15.81
   5  -4  -3  616.57   60.91
  -5   4   3  709.51   52.82
   5  -4  -2   53.05   12.16
  -5   4   2   50.52   12.87
   5  -4  -1  853.00   73.77
  -5   4   1 1147.90   90.43
   5  -4   0  211.22   21.77
  -5   4   0  223.04   22.51
   5  -4   1  133.55   17.06
  -5   4  -1  118.38   17.24
   5  -4   2  111.46   16.98
  -5   4  -2  157.96   27.05
   5  -4   3   63.26   13.87
  -5   4  -3   73.64   13.29
   5  -4   4  122.44   19.71
  -5   4  -4  150.21   18.15
   5  -4   5  315.41   36.65
  -5   4  -5  341.85   41.54
   5  -4   6  218.95   32.51
   5  -4   7  202.37   47.22
   5  -4   8   62.50   23.38
   5  -4   9   19.45   21.36
   5  -4  10   79.58   76.86
  -5   4 -10  200.21   50.13
  -5   4 -11  560.06   95.91
  -5   4 -12  626.49  158.90
   5  -3 -12  219.60   34.16
  -5   3  12  295.71   43.69
   5  -3 -11   37.76   17.26
  -5   3  11   25.12   20.22
  -5   3  11   49.05   19.91
   5  -3 -10   39.33   16.16
  -5   3  10   40.14   18.36
   5  -3  -9    8.07    9.74
  -5   3   9    0.37   10.81
   5  -3  -8  200.38   38.93
  -5   3   8  230.92   42.18
   5  -3  -7   29.93   12.15
  -5   3   7   36.85   13.01
   5  -3  -6   59.13   13.42
  -5   3   6   47.43   14.24
   5  -3  -5  157.18   19.86
  -5   3   5  155.01   19.69
   5  -3  -4   39.78   11.31
  -5   3   4   53.35   12.30
   5  -3  -3  100.72   19.88
  -5   3   3   88.23   15.43
   5  -3  -2  817.99   53.17
  -5   3   2 1043.21   66.89
   5  -3  -1 1051.61   64.90
  -5   3   1 1150.74   72.72
   5  -3   0  706.95   57.50
  -5   3   0  827.68   66.26
   5  -3   1  189.35   18.45
   5  -3   2  101.00   13.67
  -5   3  -2   82.08   20.58
   5  -3   3 1306.73   87.87
  -5   3  -3 1418.44   92.89
   5  -3   4   70.26   13.27
  -5   3  -4   65.43   12.49
   5  -3   5 1718.79  140.39
  -5   3  -5 1700.69  117.87
   5  -3   6  334.74   33.66
   5  -3   7  740.19   81.73
   5  -3   8  666.09   63.72
   5  -3   9   15.57   13.31
   5  -3  10   -5.34   21.11
   5  -3  11   86.18   30.91
  -5   3 -11  142.84   41.40
   5  -3  12   43.85   26.12
  -5   3 -12   88.41   37.32
   5  -3  13    5.85   15.09
  -5   3 -13   -1.69   39.77
   5  -2 -12   -0.30   17.94
  -5   2  12    4.37   20.63
  -5   2  12    3.72   12.96
   5  -2 -11   92.50   21.08
  -5   2  11   60.43   23.95
  -5   2  11   85.48   36.43
   5  -2 -10   79.38   19.34
  -5   2  10   71.38   23.75
   5  -2  -9 1332.05  114.90
  -5   2   9 1304.84  123.71
   5  -2  -8   -3.43    7.62
  -5   2   8    6.32    8.10
   5  -2  -7  397.27   36.61
  -5   2   7  406.67   37.18
   5  -2  -6    6.31    9.22
  -5   2   6   21.96    9.47
   5  -2  -5  514.57   38.62
  -5   2   5  622.69   43.37
   5  -2  -4  484.53   34.82
  -5   2   4  546.70   40.02
   5  -2  -3   93.36   20.27
  -5   2   3  117.59   16.19
   5  -2  -2  125.43   14.49
  -5   2   2  107.07   15.84
   5  -2  -1  176.52   17.27
  -5   2   1  202.85   19.60
   5  -2   0  217.21   19.26
  -5   2   0  241.04   21.94
   5  -2   1  269.30   22.97
  -5   2  -1  335.60   26.88
   5  -2   2  209.85   19.75
  -5   2  -2  269.00   22.18
   5  -2   3  298.42   25.38
  -5   2  -3  369.28   27.11
   5  -2   4 2385.14  139.79
  -5   2  -4 2307.02  149.60
   5  -2   5  136.62   16.88
  -5   2  -5  191.01   17.99
   5  -2   6 1912.09  138.09
   5  -2   7 2617.77  181.65
   5  -2   8  714.22   69.97
   5  -2   9   -0.62    7.29
   5  -2  10  196.96   41.42
   5  -2  11  250.37   34.58
   5  -2  12   25.62   15.68
  -5   2 -12   35.24   27.15
   5  -2  13   -0.21   11.31
  -5   2 -13  -13.40   21.16
   5  -2  14   15.11   14.70
  -5   2 -14   58.79   49.76
   5  -1 -12  202.99   34.30
  -5   1  12  217.46   56.61
  -5   1  12  213.95   38.96
   5  -1 -11   51.83   28.77
  -5   1  11   62.07   21.54
  -5   1  11   54.66   20.63
   5  -1 -10  106.19   22.07
  -5   1  10  116.05   26.41
  -5   1  10  128.70   24.36
   5  -1  -9  -10.78    8.50
  -5   1   9    6.52   10.69
  -5   1   9    0.36    9.10
   5  -1  -8    4.62   11.14
  -5   1   8   -1.69    7.40
   5  -1  -7 1576.02  101.29
  -5   1   7 1566.91  109.69
   5  -1  -6    1.06    6.29
  -5   1   6    0.44    6.79
   5  -1  -5 4171.24  278.30
  -5   1   5 4928.32  317.65
   5  -1  -4 1569.88   95.75
  -5   1   4 1812.37  111.11
   5  -1  -3   79.18   12.94
  -5   1   3  106.42   14.51
   5  -1  -2 1053.96   63.92
  -5   1   2 1318.17   74.27
   5  -1  -1   30.38    8.20
  -5   1   1   13.78    8.86
   5  -1   0   15.86    7.31
  -5   1   0   21.17   12.99
   5  -1   1   11.92   10.42
  -5   1  -1   11.43    7.89
   5  -1   2  556.69   37.22
  -5   1  -2  630.99   40.16
   5  -1   3   94.10   13.26
  -5   1  -3  129.78   14.55
   5  -1   4  664.02   51.53
  -5   1  -4  718.35   43.53
   5  -1   5 1628.69   97.26
  -5   1  -5 2243.11  131.67
   5  -1   6   88.73   13.61
  -5   1  -6  109.71   13.79
   5  -1   7  294.20   36.02
  -5   1  -7  338.40   27.53
   5  -1   8  282.03   26.51
  -5   1  -8  335.28   29.82
   5  -1   9   96.90   24.74
   5  -1  10  184.26   24.61
   5  -1  11 1070.48   85.44
   5  -1  12   42.31   24.62
   5  -1  13  317.18   63.19
  -5   1 -13  503.85   75.29
   5  -1  14  102.16   25.65
  -5   1 -14  113.40   47.98
   5   0 -12  -10.27   10.93
  -5   0  12   -4.27   12.09
  -5   0  12   30.16   18.67
   5   0 -11   79.50   20.47
  -5   0  11   62.44   34.55
  -5   0  11   59.85   23.53
   5   0 -10    8.62   14.37
  -5   0  10    6.74   10.73
  -5   0  10   -4.90   10.56
   5   0  -9   18.07   11.04
  -5   0   9    7.18   13.18
  -5   0   9   16.74   12.40
   5   0  -8  116.31   18.84
  -5   0   8  115.61   23.29
  -5   0   8  108.29   20.70
   5   0  -7   39.82   12.75
  -5   0   7   56.14   13.75
   5   0  -6  290.71   36.29
  -5   0   6  326.29   29.60
   5   0  -5  101.44   14.88
  -5   0   5  122.52   16.95
   5   0  -4  485.30   36.69
  -5   0   4  605.95   52.72
   5   0  -3 1866.16  113.60
  -5   0   3 2200.54  129.44
   5   0  -2  236.01   22.06
  -5   0   2  309.97   24.95
   5   0  -1  955.81   56.98
  -5   0   1 1069.06   63.71
   5   0   0  156.82   17.62
  -5   0   0  196.17   19.51
   5   0   1   37.50   14.30
  -5   0  -1   32.17    9.60
   5   0   2 1288.65   72.48
  -5   0  -2 1527.14   84.68
   5   0   3 1240.13   71.04
  -5   0  -3 1329.63   74.68
   5   0   4  302.94   23.95
  -5   0  -4  350.69   25.32
   5   0   5  245.36   21.19
  -5   0  -5  284.08   21.49
   5   0   6  363.76   26.68
  -5   0  -6  403.37   29.29
   5   0   7   33.65   14.42
  -5   0  -7   29.96    9.89
   5   0   8 1420.24   91.85
  -5   0  -8 1532.25   99.11
   5   0   9 1804.34  139.46
  -5   0  -9 1801.04  122.70
   5   0  10 3490.05  265.08
  -5   0 -10 3852.78  278.09
   5   0  11   52.04   15.05
  -5   0 -11   27.22   15.15
   5   0  12  171.93   40.02
  -5   0 -12  213.73   29.88
   5   0  13  355.00   42.92
  -5   0 -13  486.61   50.30
   5   0  14  135.49   27.60
  -5   0 -14  240.23   76.18
  -5   0 -14  160.80   33.32
   5   0  15  147.45   28.05
  -5   0 -15  144.77   59.74
   5   1 -12   62.10   21.41
  -5  -1  12   47.51   24.14
  -5  -1  12   66.79   38.76
   5   1 -11   36.36   16.90
  -5  -1  11   45.34   30.71
  -5  -1  11   51.94   32.09
   5   1 -10   90.94   21.04
  -5  -1  10  102.33   24.03
  -5  -1  10   86.29   37.57
   5   1  -9   78.92   27.35
  -5  -1   9   75.13   21.56
  -5  -1   9   92.80   21.46
   5   1  -8  141.62   21.92
  -5  -1   8  167.32   27.04
  -5  -1   8  171.31   24.66
   5   1  -7    9.82    8.63
  -5  -1   7   -2.97   17.04
  -5  -1   7    9.52    9.48
   5   1  -6   78.27   14.38
  -5  -1   6   94.06   19.01
  -5  -1   6   94.10   24.44
   5   1  -5   39.71   11.22
  -5  -1   5   35.68   11.28
   5   1  -4  303.70   26.71
  -5  -1   4  318.61   27.08
   5   1  -3  217.84   21.99
  -5  -1   3  255.38   24.17
   5   1  -2 4341.78  313.55
  -5  -1   2 5889.22  345.07
   5   1  -1  406.54   41.31
  -5  -1   1  509.08   36.22
   5   1   0  903.74   55.68
  -5  -1   0 1004.03   59.96
   5   1   1    8.91    6.82
  -5  -1  -1    7.97   11.14
   5   1   2  195.23   15.96
  -5  -1  -2   95.18   14.62
   5   1   3 1190.38   68.47
  -5  -1  -3 1295.56   69.77
   5   1   4  324.04   33.55
  -5  -1  -4  385.52   27.23
   5   1   5  703.47   42.03
  -5  -1  -5  707.33   43.55
   5   1   6  525.34   36.67
  -5  -1  -6  611.51   39.16
   5   1   7   90.33   20.56
  -5  -1  -7   91.23   14.27
   5   1   8    8.45    8.66
  -5  -1  -8   15.34    8.41
   5   1   9  224.64   34.85
  -5  -1  -9  193.49   22.99
   5   1  10   22.25   11.33
  -5  -1 -10   28.45   11.99
   5   1  11   45.02   14.36
  -5  -1 -11   49.23   15.02
   5   1  12  291.84   48.44
  -5  -1 -12  310.22   36.02
   5   1  13   61.12   25.45
  -5  -1 -13   40.65   18.41
   5   1  14  431.44   47.58
  -5  -1 -14  409.34   73.63
  -5  -1 -14  542.40   58.03
   5   1  15   20.62   13.40
  -5  -1 -15    9.75   15.66
  -5  -1 -15    7.23   17.68
   5   2 -11   10.17   14.32
  -5  -2  11   24.22   16.45
  -5  -2  11   12.89   29.47
   5   2 -10   12.30   12.27
  -5  -2  10    3.15   14.36
  -5  -2  10   22.89   23.54
   5   2  -9  200.98   40.92
  -5  -2   9  206.81   31.53
  -5  -2   9  205.25   33.08
   5   2  -8   44.18   23.94
  -5  -2   8   63.06   28.89
  -5  -2   8   67.89   17.78
   5   2  -7   84.56   16.22
  -5  -2   7   81.71   20.23
  -5  -2   7   88.93   18.67
   5   2  -6    9.45    6.00
  -5  -2   6   -9.97    7.28
  -5  -2   6   -9.36   10.48
   5   2  -5   19.89   10.60
  -5  -2   5   48.68   20.44
  -5  -2   5   29.17   11.64
   5   2  -4   -0.12    5.87
  -5  -2   4   -5.34    7.65
  -5  -2   4    5.93    6.55
   5   2  -3  998.12   68.32
  -5  -2   3 1286.70   83.30
   5   2  -2  718.32   47.98
  -5  -2   2  728.49   51.03
   5   2  -1   12.54    8.57
  -5  -2   1   17.63    8.48
   5   2   0  198.90   20.82
  -5  -2   0  240.42   21.44
   5   2   1 1405.04   76.24
  -5  -2  -1  993.94   59.55
   5   2   2 5304.54  341.08
  -5  -2  -2 5613.80  347.19
   5   2   3   18.65   14.85
  -5  -2  -3   30.67    8.97
   5   2   4 2498.06  141.49
  -5  -2  -4 2656.84  148.87
   5   2   5   34.74    9.99
  -5  -2  -5   45.96    9.84
  -5  -2  -6  387.96   28.69
   5   2   7  106.10   16.46
  -5  -2  -7  111.76   15.29
   5   2   8  125.23   17.47
  -5  -2  -8  144.95   26.95
   5   2   9  155.95   20.21
  -5  -2  -9  172.13   20.30
   5   2  10   25.91   16.72
  -5  -2 -10   16.81   11.08
   5   2  11   67.72   15.54
  -5  -2 -11   51.17   15.74
   5   2  12  413.87   41.90
  -5  -2 -12  436.27   42.33
   5   2  13 1146.46   89.80
  -5  -2 -13 1478.88  110.47
   5   2  14  413.06   63.54
  -5  -2 -14  546.39   74.15
   5   2  15    3.01   18.11
  -5  -2 -15    0.19   10.03
  -5  -2 -15   16.81   13.39
   5   2  16   38.21   22.93
  -5  -2 -16   12.31   10.61
   5   3 -10   45.70   29.95
  -5  -3  10   56.54   22.75
  -5  -3  10   58.27   28.20
   5   3  -9  123.60   37.96
  -5  -3   9  151.82   30.01
  -5  -3   9  190.68   36.48
   5   3  -8    6.17   19.02
  -5  -3   8    2.39   22.30
  -5  -3   8   36.96   15.83
   5   3  -7  530.62   63.89
  -5  -3   7  615.86   54.04
  -5  -3   7  593.32   63.42
   5   3  -6  764.88   72.96
  -5  -3   6  804.28   65.93
  -5  -3   6  905.01   99.13
   5   3  -5   -7.64   11.22
  -5  -3   5   -0.00    8.35
  -5  -3   5    0.18    9.15
   5   3  -4   32.19   16.79
  -5  -3   4   33.01   12.40
  -5  -3   4   21.69   13.26
   5   3  -3   19.92   14.89
  -5  -3   3   12.39   16.48
  -5  -3   3   13.99   10.31
   5   3  -2    1.37    9.09
  -5  -3   2   -6.66    6.63
  -5  -3   2    4.37    6.15
   5   3  -1  114.19   25.64
  -5  -3   1  135.68   16.90
   5   3   0  188.17   20.58
  -5  -3   0  193.86   19.67
   5   3   1 1563.73   95.74
  -5  -3  -1 1652.40   91.07
   5   3   2   21.97    9.80
  -5  -3  -2   32.91    9.03
   5   3   3  201.37   20.10
  -5  -3  -3  224.01   18.77
   5   3   4  207.42   20.92
  -5  -3  -4  222.64   19.07
   5   3   5    4.36    6.60
  -5  -3  -5    1.41    9.87
   5   3   6  312.53   28.63
  -5  -3  -6  354.03   27.76
   5   3   7   89.05   22.42
  -5  -3  -7   90.53   14.67
   5   3   8   -5.30    6.23
  -5  -3  -8    3.98    5.92
   5   3   9  351.16   44.81
  -5  -3  -9  383.18   33.21
   5   3  10 1117.59   80.92
  -5  -3 -10 1419.85  109.01
   5   3  11   15.56   12.19
  -5  -3 -11   28.50   12.16
   5   3  12  296.97   47.47
  -5  -3 -12  358.60   36.43
   5   3  13  218.69   31.39
  -5  -3 -13  306.15   34.39
   5   3  14  -10.00    9.59
  -5  -3 -14   23.74   16.27
   5   3  15   14.34   11.78
  -5  -3 -15    5.51   12.65
  -5  -3 -15   -1.93   13.18
   5   3  16  307.78   41.06
  -5  -4   9    9.47   12.78
  -5  -4   9  -14.00   19.99
   5   4  -8   89.34   32.97
  -5  -4   8  119.92   38.58
  -5  -4   8   97.71   39.34
   5   4  -7    7.81   17.74
  -5  -4   7   21.97   13.74
  -5  -4   7    0.16   27.24
   5   4  -6    6.58   14.47
  -5  -4   6    0.15   17.80
  -5  -4   6   13.97   13.93
   5   4  -5   46.63   23.14
  -5  -4   5   61.82   17.90
  -5  -4   5   91.38   21.03
   5   4  -4   16.70   10.71
  -5  -4   4   13.50   11.84
  -5  -4   4   18.49   19.96
   5   4  -3   35.67   13.34
  -5  -4   3   41.97   14.64
  -5  -4   3   65.81   14.93
   5   4  -2  326.82   31.84
  -5  -4   2  294.17   31.78
  -5  -4   2  360.07   42.75
   5   4  -1    7.82   13.94
  -5  -4   1    9.46    9.35
  -5  -4   1   10.03    8.12
   5   4   0  149.89   28.02
  -5  -4   0  132.75   19.47
  -5  -4   0  141.84   17.22
   5   4   1 1015.92   81.29
  -5  -4  -1  978.49   67.96
  -5  -4  -1  972.20   60.19
   5   4   2   -2.96    6.46
  -5  -4  -2   -0.16    6.70
  -5  -4  -2    0.69    5.21
   5   4   3   37.41   10.40
  -5  -4  -3   23.17    9.22
   5   4   4 3729.39  250.07
  -5  -4  -4 4510.26  272.15
   5   4   5   19.60   11.00
  -5  -4  -5   31.92    9.67
   5   4   6   15.14    9.31
  -5  -4  -6    9.79    8.32
   5   4   7  343.18   30.25
  -5  -4  -7  378.14   29.54
   5   4   8   78.04   17.42
  -5  -4  -8  157.67   17.90
   5   4   9  149.21   21.91
  -5  -4  -9  195.13   22.35
   5   4  10   14.46    8.72
  -5  -4 -10   -6.92    8.08
   5   4  11    2.11   14.29
  -5  -4 -11    4.60   13.88
   5   4  12   12.64   12.07
  -5  -4 -12   20.48   11.65
   5   4  13   -0.84   10.52
  -5  -4 -13   11.42   10.85
   5   4  14   72.36   21.04
  -5  -4 -14   89.25   21.70
   5   4  15   32.63   18.72
  -5  -4 -15   61.79   19.67
   5   4  16   29.87   17.64
  -5  -5   8  -11.37   21.74
  -5  -5   8   28.98   25.56
  -5  -5   7   20.64   16.50
  -5  -5   7   32.89   27.76
  -5  -5   6    8.36   13.37
  -5  -5   6   14.15   19.13
  -5  -5   5    4.23   11.68
  -5  -5   5    9.81   22.48
   5   5  -4   -7.78   14.76
  -5  -5   4   15.67   10.84
  -5  -5   4    1.52   11.57
   5   5  -3  321.02   36.90
  -5  -5   3  404.40   37.52
  -5  -5   3  358.66   40.00
   5   5  -2    4.12    9.56
  -5  -5   2    1.41    9.43
  -5  -5   2   13.45    9.26
   5   5  -1   13.11   11.91
  -5  -5   1   26.88   12.80
  -5  -5   1   37.12   11.28
   5   5   0  426.20   40.86
  -5  -5   0  471.05   40.12
  -5  -5   0  429.20   35.37
   5   5   1 1117.37   80.45
  -5  -5  -1 1078.93   94.67
  -5  -5  -1 1085.86   82.94
   5   5   2  307.63   42.69
  -5  -5  -2  327.79   32.80
  -5  -5  -2  352.24   28.42
   5   5   3  264.10   26.86
  -5  -5  -3  256.62   28.50
  -5  -5  -3  282.26   24.30
   5   5   4   75.68   15.91
  -5  -5  -4   98.65   17.42
  -5  -5  -4   74.44   13.87
   5   5   5  275.78   30.14
  -5  -5  -5  290.12   31.87
  -5  -5  -5  304.40   26.30
   5   5   6  854.80   80.24
  -5  -5  -6  804.40   71.72
  -5  -5  -6  882.64   57.14
   5   5   7  351.17   33.96
  -5  -5  -7  378.79   31.65
   5   5   8   72.93   24.88
  -5  -5  -8   70.93   15.29
   5   5   9    9.26   10.19
  -5  -5  -9    7.87    9.25
   5   5  10  240.75   32.52
  -5  -5 -10  470.81   37.09
   5   5  11   24.55   13.13
  -5  -5 -11   22.41   12.60
   5   5  12    7.85   10.98
  -5  -5 -12    2.40   16.71
   5   5  13   83.66   21.32
  -5  -5 -13   93.14   21.75
   5   5  14   45.32   20.53
  -5  -5 -14   85.86   20.60
   5   5  15   30.48   25.92
  -5  -5 -15   23.59   17.41
  -5  -6   7   39.72   21.63
  -5  -6   7   63.68   61.65
  -5  -6   6  102.23   27.31
  -5  -6   6  115.94   42.89
  -5  -6   5  220.50   35.98
  -5  -6   5  265.80   51.74
  -5  -6   4   18.27   14.76
  -5  -6   4   20.68   28.29
  -5  -6   3   74.20   30.75
  -5  -6   3   55.53   20.38
  -5  -6   2  339.93   39.90
  -5  -6   2  324.75   41.19
   5   6  -1    3.31    9.64
  -5  -6   1    2.34   10.40
  -5  -6   1    7.25    9.64
   5   6   0  405.46   43.88
  -5  -6   0  436.46   43.26
  -5  -6   0  460.40   42.61
   5   6   1  156.53   25.00
  -5  -6  -1  137.32   25.01
  -5  -6  -1  171.71   22.00
   5   6   2  441.32   54.87
  -5  -6  -2  422.16   44.40
  -5  -6  -2  453.75   39.28
   5   6   3  336.92   35.15
  -5  -6  -3  360.09   55.73
  -5  -6  -3  381.81   32.42
   5   6   4   25.62   12.11
  -5  -6  -4   25.98   14.32
  -5  -6  -4   23.36   10.67
   5   6   5   14.75   12.20
  -5  -6  -5   22.60   14.34
  -5  -6  -5   18.65    9.69
   5   6   6    7.57   18.76
  -5  -6  -6   16.55   14.93
  -5  -6  -6   21.27   14.98
   5   6   7   -2.40    9.11
  -5  -6  -7   24.95   20.69
  -5  -6  -7    7.05    8.35
   5   6   8   12.69   15.88
  -5  -6  -8    8.93   24.04
  -5  -6  -8    3.99    8.72
   5   6   9   47.74   16.33
  -5  -6  -9   70.48   39.67
  -5  -6  -9   46.03   14.27
   5   6  10   62.73   31.92
  -5  -6 -10  113.49   49.96
  -5  -6 -10  103.78   18.76
   5   6  11  974.22   76.16
  -5  -6 -11  481.98  145.48
   5   6  12  137.38   25.77
  -5  -6 -12   47.92   26.85
  -5  -6 -12  161.95   24.27
   5   6  13   23.11   16.32
  -5  -6 -13   27.11   23.70
   5   6  14   49.37   35.10
  -5  -6 -14   85.38   21.90
  -5  -7   5   50.71   22.63
  -5  -7   5   69.02   44.37
  -5  -7   4  370.91   48.63
  -5  -7   4  368.30   82.99
  -5  -7   3   18.70   16.04
  -5  -7   3    3.95   33.72
  -5  -7   2    2.91   14.69
  -5  -7   2   28.74   17.27
  -5  -7   1   74.68   22.30
  -5  -7   1   62.35   23.12
   5   7   0  145.80   42.94
  -5  -7   0  175.85   32.57
  -5  -7   0  196.84   44.24
   5   7   1  824.29  106.40
  -5  -7  -1 1027.20  112.45
  -5  -7  -1  922.94   82.96
   5   7   2   81.39   22.02
  -5  -7  -2   92.88   25.79
  -5  -7  -2  112.15   20.44
   5   7   3   25.99   14.58
  -5  -7  -3   26.66   18.01
  -5  -7  -3   28.69   12.51
   5   7   4   45.23   17.36
  -5  -7  -4   41.59   22.44
  -5  -7  -4   51.03   14.11
   5   7   5  241.60   34.75
  -5  -7  -5  231.70   42.46
  -5  -7  -5  240.52   28.45
   5   7   6   22.35   16.07
  -5  -7  -6   21.73   33.83
  -5  -7  -6   38.08   12.75
   5   7   7   43.34   18.18
  -5  -7  -7   65.69   43.71
  -5  -7  -7   68.38   15.24
   5   7   8   35.81   25.61
  -5  -7  -8   35.06   39.81
  -5  -7  -8   40.07   13.54
   5   7   9  322.41   37.45
  -5  -7  -9  175.50   77.04
  -5  -7  -9  296.53   31.51
   5   7  10   73.65   21.31
  -5  -7 -10   34.04   24.86
  -5  -7 -10  100.17   18.60
   5   7  11  197.74   33.33
  -5  -7 -11  243.13   29.92
   5   7  12   -8.20   15.14
  -5  -7 -12  -32.67   21.18
   5   7  13   11.16   14.65
  -5  -7 -13   14.07   13.61
  -5  -8   2    5.64   30.18
  -5  -8   2   38.26   29.18
  -5  -8   1   -4.68   12.69
  -5  -8   1   22.40   24.79
  -5  -8   0   53.36   23.57
  -5  -8   0   38.67   24.09
   5   8   1  365.85   53.33
  -5  -8  -1  378.20   56.87
  -5  -8  -1  402.08   55.04
   5   8   2  654.93   76.87
  -5  -8  -2  751.30   84.49
  -5  -8  -2  734.85  100.23
   5   8   3   -0.53   13.81
  -5  -8  -3   -4.38   28.58
  -5  -8  -3   22.66   13.03
   5   8   4  344.08   47.21
  -5  -8  -4  446.07   87.94
  -5  -8  -4  347.24   41.53
  -5  -8  -5  182.96   44.40
  -5  -8  -5  173.94   26.69
   5   8   6   51.81   22.61
  -5  -8  -6   47.16   30.47
  -5  -8  -6   64.15   16.97
   5   8   7  365.91   46.59
  -5  -8  -7  252.19   92.30
  -5  -8  -7  390.17   39.05
   5   8   8   18.67   12.40
  -5  -8  -8   21.86   29.44
  -5  -8  -8    3.04   11.36
   5   8   9  113.42   21.96
  -5  -8  -9   51.32   27.86
  -5  -8  -9  118.78   31.85
   5   8  10  128.71   26.09
  -5  -8 -10  151.55   25.81
   5   8  11   -6.66   19.87
  -5  -8 -11  -13.07   19.40
   5   8  12    3.16   13.53
  -5  -8 -12   16.31   13.17
  -5  -9  -1   17.90   21.64
  -5  -9  -1    0.33   35.61
   5   9   2   30.65   25.83
  -5  -9  -2   32.97   25.41
  -5  -9  -2    5.16   22.23
   5   9   3   86.58   50.05
  -5  -9  -3  106.60   39.47
  -5  -9  -3   81.70   30.58
   5   9   4   42.34   38.86
  -5  -9  -4   39.75   33.09
  -5  -9  -4   56.02   33.36
   5   9   5  119.14   33.87
  -5  -9  -5  117.02   47.99
  -5  -9  -5  164.64   30.00
   5   9   6   -1.24   12.12
  -5  -9  -6   14.28   17.96
  -5  -9  -6   -1.26   10.75
   5   9   7    9.32   20.23
  -5  -9  -7   -0.30   17.98
  -5  -9  -7    3.93   18.76
   5   9   8   10.27   13.36
  -5  -9  -8   23.97   17.08
  -5  -9  -8    2.05   13.52
   5   9   9   84.22   36.10
  -5  -9  -9   24.65   33.20
  -5  -9  -9  141.59   24.69
   6  -7  -4   14.34   19.88
  -6   7   4   11.55   16.94
   6  -7  -3   37.42   25.71
  -6   7   3   27.94   32.20
   6  -7  -2   21.69   24.45
  -6   7   2   22.85   18.12
   6  -7  -1   15.02   24.96
   6  -7   0  162.75   60.88
  -6   7   0  191.14   40.30
   6  -7   1  709.77  120.45
  -6   7  -1  320.51   67.35
   6  -6  -7  238.60   38.84
  -6   6   7  246.88   58.00
   6  -6  -6   33.93   30.16
  -6   6   6   37.75   19.41
   6  -6  -5   14.86   18.41
  -6   6   5   49.04   18.44
   6  -6  -4   79.30   23.02
  -6   6   4   57.21   22.37
   6  -6  -3   -9.58   19.48
  -6   6   3   -0.76   11.63
   6  -6  -2   -3.07   11.87
  -6   6   2    5.33   10.49
   6  -6  -1  244.39   43.65
  -6   6   1  255.82   40.39
   6  -6   0   84.31   44.36
  -6   6   0   75.92   35.86
   6  -6   1    6.48   19.55
  -6   6  -1   26.31   22.73
   6  -6   2   18.98   21.89
  -6   6  -2   13.20   21.96
   6  -6   3  163.33   51.48
  -6   6  -3  132.03   28.23
   6  -6   4  190.82   81.72
  -6   6  -4  121.50   27.50
   6  -6   5   32.08   61.27
   6  -5  -8  874.71  107.52
  -6   5   8  905.99   89.20
   6  -5  -7    8.63   13.13
  -6   5   7   18.89   21.80
   6  -5  -6   28.24   13.60
  -6   5   6    7.21   14.19
   6  -5  -5    7.15   10.64
  -6   5   5    0.84   11.17
   6  -5  -4  475.29   48.37
  -6   5   4  529.62   55.05
   6  -5  -3   10.46   10.75
  -6   5   3    0.68   11.04
   6  -5  -2   32.58   14.72
  -6   5   2   31.89   14.87
   6  -5  -1  335.40   56.94
  -6   5   1  354.75   57.02
   6  -5   0   23.74   13.77
  -6   5   0   17.60   21.69
   6  -5   1    9.18    9.41
  -6   5  -1   -6.72    9.70
   6  -5   2   53.13   26.09
  -6   5  -2   30.05   15.46
   6  -5   3   -2.34   10.40
  -6   5  -3    3.82    8.76
   6  -5   4  544.46   77.64
  -6   5  -4  628.56   81.85
   6  -5   5    1.81   24.23
   6  -5   5   10.88   23.37
   6  -5   6  107.05   35.56
   6  -5   7  400.49   82.63
   6  -5   8   33.00   34.01
   6  -4  -9   69.10   21.48
  -6   4   9   74.62   23.56
   6  -4  -8  222.57   32.74
  -6   4   8  290.21   52.84
   6  -4  -7    6.39    9.38
  -6   4   7   -3.88   10.16
   6  -4  -6   41.45   15.59
  -6   4   6   50.69   16.78
   6  -4  -5   24.77   14.03
  -6   4   5   61.26   23.43
   6  -4  -4    2.18    9.50
  -6   4   4   10.43   10.44
   6  -4  -3    9.46   10.93
  -6   4   3   46.70   19.48
   6  -4  -2  247.69   27.73
  -6   4   2  284.29   32.04
   6  -4  -1   -2.48   11.92
  -6   4   1   -2.85    8.89
   6  -4   0  198.44   25.23
  -6   4   0  255.59   41.94
   6  -4   1   68.78   25.47
  -6   4  -1   74.24   18.93
   6  -4   2   26.77   13.73
  -6   4  -2   38.12   14.18
   6  -4   3   25.24   22.36
  -6   4  -3   30.66   13.18
   6  -4   4   41.31   15.83
  -6   4  -4   27.41   13.19
   6  -4   5   65.61   19.35
  -6   4  -5   30.75   14.68
   6  -4   6  255.37   63.35
   6  -4   7  236.26   48.15
   6  -4   8   55.72   30.14
   6  -4   9   83.14   64.95
   6  -3 -10    5.19   13.15
  -6   3  10   14.92   22.35
   6  -3  -9  234.40   34.01
  -6   3   9  244.62   53.85
   6  -3  -8   27.05   14.84
  -6   3   8   31.96   16.73
   6  -3  -7   16.94   11.05
  -6   3   7    7.01   12.29
   6  -3  -6   10.86   10.45
  -6   3   6    6.67   11.22
   6  -3  -5  543.63   60.85
  -6   3   5  584.16   53.04
   6  -3  -4   30.34   12.27
  -6   3   4   36.85   13.51
   6  -3  -3  384.64   46.24
  -6   3   3  424.74   39.52
   6  -3  -2  577.92   45.39
  -6   3   2  646.74   52.53
   6  -3  -1  566.01   44.60
  -6   3   1  619.24   53.27
   6  -3   0  539.15   44.44
  -6   3   0  714.79   73.16
   6  -3   1  312.17   32.86
  -6   3  -1  429.38   39.41
   6  -3   2  612.61   52.10
  -6   3  -2  721.44   59.61
   6  -3   3 1107.87   90.86
  -6   3  -3 1302.66   97.72
   6  -3   4  107.44   20.80
  -6   3  -4  119.62   19.68
   6  -3   5   58.46   16.74
  -6   3  -5   60.53   14.97
   6  -3   6   96.64   21.52
   6  -3   7  448.38   74.91
   6  -3   8  167.20   36.09
   6  -3   9   19.87   19.97
   6  -3  11   -6.79   18.80
   6  -2 -10  437.45   49.99
  -6   2  10  368.89   73.54
  -6   2  10  545.66   59.77
   6  -2  -9  200.62   29.49
  -6   2   9  200.88   33.67
   6  -2  -8   75.59   18.61
  -6   2   8   68.00   20.94
   6  -2  -7    1.33    8.68
  -6   2   7    0.86   14.23
   6  -2  -6  421.45   54.03
  -6   2   6  448.50   44.44
   6  -2  -5  376.25   34.53
  -6   2   5  411.33   39.93
   6  -2  -4   34.07   11.83
  -6   2   4   48.22   21.58
   6  -2  -3  263.56   25.95
  -6   2   3  329.16   30.27
   6  -2  -2   69.03   15.37
  -6   2   2  146.86   26.33
   6  -2  -1  201.42   24.18
  -6   2   1  306.45   29.21
   6  -2   0  392.52   33.85
  -6   2   0  499.72   42.05
   6  -2   1   77.15   14.33
  -6   2  -1   65.34   24.09
   6  -2   2  112.82   25.84
  -6   2  -2  112.55   18.40
   6  -2   3   -2.51    5.77
  -6   2  -3    2.70    6.09
   6  -2   4   49.08   21.69
  -6   2  -4   56.02   13.80
   6  -2   5  183.93   24.28
  -6   2  -5  177.39   23.33
  -6   2  -6   98.37   17.20
   6  -2   7   85.57   19.09
  -6   2  -7  100.03   18.38
   6  -2   8  104.84   21.82
  -6   2  -8  120.65   31.16
   6  -2   9   11.00   12.96
   6  -2  10   13.36   14.63
   6  -2  11    3.88   13.44
   6  -2  12   82.67   42.22
   6  -1 -10   21.91   26.36
  -6   1  10   20.46   36.20
  -6   1  10   42.68   19.80
   6  -1  -9  544.28   55.43
  -6   1   9  548.63   77.60
  -6   1   9  620.47   85.49
   6  -1  -8  248.76   31.35
  -6   1   8  251.39   35.83
   6  -1  -7   19.26   14.63
  -6   1   7   -3.44   10.06
   6  -1  -6  270.47   29.79
  -6   1   6  290.42   32.99
   6  -1  -5   89.65   17.57
  -6   1   5  127.92   28.80
   6  -1  -4   16.94   16.67
  -6   1   4   30.67   11.91
   6  -1  -3   43.31   13.36
  -6   1   3   59.13   21.32
   6  -1  -2  177.97   22.08
  -6   1   2  206.87   24.16
   6  -1  -1   16.15   13.82
  -6   1   1    3.00   15.71
   6  -1   0   -4.00    7.45
  -6   1   0   14.58    8.74
   6  -1   1   67.29   14.40
  -6   1  -1   88.36   15.83
   6  -1   2   58.51   19.36
  -6   1  -2   52.10   14.15
   6  -1   3  851.48   60.83
  -6   1  -3  936.67   79.95
   6  -1   4  382.87   42.57
  -6   1  -4  319.70   30.59
   6  -1   5  478.37   40.57
  -6   1  -5  600.84   43.77
   6  -1   6  757.42   60.70
  -6   1  -6  920.26   61.08
   6  -1   7  108.76   18.99
  -6   1  -7  122.32   19.60
   6  -1   8  248.70   44.17
  -6   1  -8  277.07   30.60
   6  -1   9  244.70   32.29
  -6   1  -9  270.12   44.92
   6  -1  10  485.66   51.07
  -6   1 -10  512.31   69.05
   6  -1  11  156.25   42.09
  -6   1 -11  176.20   47.65
   6  -1  12   81.27   24.01
  -6   1 -12  109.22   40.29
   6  -1  13    2.76   11.98
   6   0 -10  143.74   29.88
  -6   0  10  158.78   59.38
  -6   0  10  207.72   35.38
   6   0  -9  809.06   74.78
  -6   0   9 1059.17  114.46
  -6   0   9 1009.97   98.04
   6   0  -8   13.82   12.23
  -6   0   8   12.24   17.58
  -6   0   8    9.45   13.50
   6   0  -7   -2.02    8.26
  -6   0   7   -0.32   14.08
   6   0  -6   23.35   13.65
  -6   0   6  -15.38    9.02
   6   0  -5    8.60   10.87
  -6   0   5   30.45   11.47
   6   0  -4  458.94   40.57
  -6   0   4  484.69   55.60
   6   0  -3  304.01   30.87
  -6   0   3  324.66   31.93
   6   0  -2   77.92   24.48
   6   0  -1  290.83   29.47
  -6   0   1  371.00   34.66
   6   0   0   53.41   13.84
  -6   0   0   82.02   15.40
   6   0   1   68.30   13.88
  -6   0  -1   52.75   14.41
   6   0   2  128.91   19.09
  -6   0  -2  156.57   20.00
   6   0   3    7.62    7.56
  -6   0  -3    2.28    7.64
   6   0   4  983.99   79.87
  -6   0  -4 1045.18   72.69
   6   0   5   84.20   15.66
  -6   0  -5   91.82   14.97
   6   0   6  951.26   83.45
  -6   0  -6 1032.87   88.08
   6   0   7  875.63   67.95
  -6   0  -7 1121.09   91.63
   6   0   8    7.83   15.46
  -6   0  -8   16.89   15.99
   6   0   9  365.57   38.36
  -6   0  -9  426.34   40.61
   6   0  10  648.93   56.07
  -6   0 -10  659.59   61.57
   6   0  11  582.28   82.41
  -6   0 -11  792.73   72.53
   6   0  12   35.61   18.41
  -6   0 -12   45.80   19.03
   6   0  13   95.31   25.46
  -6   0 -13  106.01   28.52
   6   1 -10   30.09   18.27
  -6  -1  10   41.12   36.54
  -6  -1  10   41.33   20.16
   6   1  -9   -2.92   12.34
  -6  -1   9   18.64   16.02
  -6  -1   9   11.63   13.63
   6   1  -8  161.08   27.49
  -6  -1   8  175.06   35.80
  -6  -1   8  170.32   29.89
   6   1  -7   40.40   15.22
  -6  -1   7   35.57   22.06
  -6  -1   7   50.88   16.75
   6   1  -6  -11.45    6.67
  -6  -1   6   11.95   10.30
  -6  -1   6   20.28   11.75
   6   1  -5  196.46   26.04
  -6  -1   5  200.45   27.16
   6   1  -4  222.21   38.83
  -6  -1   4  238.61   28.21
   6   1  -3 1112.76   79.70
  -6  -1   3 1194.49   93.07
   6   1  -2 3253.48  240.73
  -6  -1   2 4320.57  294.10
   6   1  -1 1736.97  118.96
  -6  -1   1 2004.91  134.08
   6   1   0  295.61   43.19
  -6  -1   0  331.00   32.25
   6   1   1 1781.88  114.20
  -6  -1  -1 1768.13  120.44
   6   1   2   26.39   11.71
  -6  -1  -2   48.08   12.12
   6   1   3   38.63   17.76
  -6  -1  -3   32.57   11.28
   6   1   4  120.63   18.26
  -6  -1  -4  152.63   18.59
   6   1   5 1151.11   77.60
  -6  -1  -5 1147.37   77.81
   6   1   6    7.77    9.73
  -6  -1  -6   21.14    9.52
   6   1   7   65.03   14.24
  -6  -1  -7   51.74   13.96
   6   1   8    1.27    7.49
  -6  -1  -8   -4.59    7.61
   6   1   9  177.60   25.60
  -6  -1  -9  197.84   37.17
   6   1  10  356.47   38.73
  -6  -1 -10  372.24   38.51
   6   1  11   24.36   23.22
  -6  -1 -11   29.07   15.41
   6   1  12   65.57   23.36
  -6  -1 -12   93.25   22.98
   6   1  13  204.04   35.24
  -6  -1 -13  204.52   36.86
   6   1  14 1070.18  114.82
  -6  -1 -14 1328.58  131.24
   6   2  -9   34.43   17.18
  -6  -2   9   23.25   21.19
  -6  -2   9   26.26   20.23
   6   2  -8   19.99   23.73
  -6  -2   8   28.93   19.61
  -6  -2   8   29.84   17.73
   6   2  -7   41.33   16.69
  -6  -2   7   86.44   34.06
  -6  -2   7   45.88   19.26
   6   2  -6  100.78   21.11
  -6  -2   6  123.94   29.13
  -6  -2   6  117.78   35.24
   6   2  -5   91.27   20.12
  -6  -2   5  106.02   27.08
  -6  -2   5  105.17   22.43
   6   2  -4  138.44   22.94
  -6  -2   4  173.71   32.58
  -6  -2   4  182.54   26.95
   6   2  -3  398.39   40.39
  -6  -2   3  518.01   62.05
   6   2  -2   24.58   18.66
  -6  -2   2   20.70   12.08
   6   2  -1  196.45   25.10
  -6  -2   1  221.56   38.29
   6   2   0  674.48   52.89
  -6  -2   0  690.51   54.01
   6   2   1  377.68   34.72
  -6  -2  -1  430.36   35.68
   6   2   2   74.18   24.29
  -6  -2  -2   95.70   16.44
   6   2   3  580.89   45.12
  -6  -2  -3  637.76   47.19
   6   2   4 1083.41   71.69
  -6  -2  -4 1024.01   67.77
   6   2   5  154.40   21.89
  -6  -2  -5  273.84   32.46
   6   2   6   37.56   11.55
  -6  -2  -6   28.20   11.43
   6   2   7   52.55   20.61
  -6  -2  -7   50.10   13.74
   6   2   8   21.27   11.27
  -6  -2  -8   17.92   10.82
   6   2   9   22.10   13.03
  -6  -2  -9   29.03   12.30
   6   2  10  246.96   32.77
   6   2  11  220.78   32.91
  -6  -2 -11  227.06   31.49
   6   2  12  363.89   45.81
  -6  -2 -12  411.95   46.35
   6   2  13  137.87   44.30
  -6  -2 -13  168.16   31.22
   6   2  14   15.88   15.11
  -6  -2 -14   13.26   16.52
   6   3  -8   17.00   23.82
  -6  -3   8   26.84   19.49
  -6  -3   8   21.36   22.30
   6   3  -7   11.96   17.95
  -6  -3   7    5.97   22.89
  -6  -3   7    3.39   15.04
   6   3  -6   12.18   12.91
  -6  -3   6   24.12   17.45
  -6  -3   6   32.58   17.21
   6   3  -5    8.35   11.69
  -6  -3   5    8.08   14.78
  -6  -3   5   21.23   13.38
   6   3  -4  225.78   31.76
  -6  -3   4  299.66   40.01
  -6  -3   4  294.23   36.87
   6   3  -3   37.85   14.24
  -6  -3   3   38.33   18.22
  -6  -3   3   22.75   15.45
   6   3  -2   39.53   15.10
  -6  -3   2   51.58   19.68
  -6  -3   2   56.56   16.37
   6   3  -1  103.81   20.75
  -6  -3   1  112.17   19.77
   6   3   0  422.08   55.90
  -6  -3   0  455.58   40.69
   6   3   1 3576.79  266.84
  -6  -3  -1 4530.59  315.45
   6   3   2 1151.54   83.23
  -6  -3  -2 1270.04   86.52
   6   3   3  257.53   39.17
  -6  -3  -3  237.75   24.41
   6   3   4 3659.87  260.06
  -6  -3  -4 4433.30  293.17
   6   3   5  676.30   52.27
  -6  -3  -5  708.21   52.14
   6   3   6   78.32   22.95
  -6  -3  -6   60.05   14.62
   6   3   7   11.16   10.09
  -6  -3  -7   12.94   15.24
   6   3   8   38.22   21.18
  -6  -3  -8   33.71   13.20
   6   3   9  226.64   30.80
  -6  -3  -9  255.66   28.82
   6   3  10   45.78   17.58
  -6  -3 -10   46.41   16.38
   6   3  11   69.39   32.61
  -6  -3 -11  115.83   32.63
   6   3  12   10.41    9.61
  -6  -3 -12   -7.82    9.58
   6   3  13    7.55   12.66
  -6  -3 -13    7.48   12.46
   6   3  14   50.87   21.20
  -6  -3 -14   57.09   22.51
   6   4  -7   27.70   21.29
  -6  -4   7   10.91   27.96
  -6  -4   7    0.38   20.76
   6   4  -6   14.76   12.79
  -6  -4   6   10.11   16.29
  -6  -4   6   22.12   28.79
   6   4  -5   87.10   23.19
  -6  -4   5  136.32   40.93
  -6  -4   5  112.10   29.14
   6   4  -4  329.10   42.46
  -6  -4   4  409.54   48.96
  -6  -4   4  456.73   54.00
   6   4  -3   30.74   15.80
  -6  -4   3   55.80   27.83
  -6  -4   3   39.25   17.38
   6   4  -2   27.70   13.34
  -6  -4   2   16.67   15.12
  -6  -4   2   25.40   14.45
   6   4  -1   13.58   12.39
  -6  -4   1   -0.78   21.48
  -6  -4   1   16.83   11.34
   6   4   0    9.12   17.34
  -6  -4   0    3.53   13.54
  -6  -4   0   19.85   10.64
   6   4   1  132.25   23.53
  -6  -4  -1  168.39   29.12
  -6  -4  -1  173.54   22.24
   6   4   2  102.18   18.28
  -6  -4  -2   63.68   15.22
   6   4   3  219.04   28.05
  -6  -4  -3  227.20   33.68
   6   4   4   44.68   20.72
  -6  -4  -4   38.33   12.44
   6   4   5  224.57   26.84
  -6  -4  -5  249.99   25.84
   6   4   6   37.59   13.95
  -6  -4  -6   37.53   20.30
   6   4   7 1839.48  130.69
  -6  -4  -7 1935.43  133.75
   6   4   8  335.31   38.50
  -6  -4  -8  372.01   35.18
   6   4   9  294.41   37.52
  -6  -4  -9  332.21   47.00
   6   4  10   53.40   29.70
  -6  -4 -10   80.36   19.64
   6   4  11   15.53   11.69
  -6  -4 -11   -0.80   11.15
   6   4  12   34.11   18.09
  -6  -4 -12   68.80   27.57
   6   4  13   12.61   15.13
  -6  -4 -13   20.00   14.75
   6   4  14   57.06   34.76
  -6  -4 -14   68.16   23.42
   6   5  -6   18.70   15.56
  -6  -5   6   17.72   19.13
  -6  -5   6   37.51   26.63
   6   5  -5  476.31   65.76
  -6  -5   5  668.05   69.14
  -6  -5   5  694.39  101.73
   6   5  -4   77.83   25.28
  -6  -5   4  124.27   27.48
  -6  -5   4  162.26   33.91
   6   5  -3   88.17   23.38
  -6  -5   3   81.29   25.06
  -6  -5   3  131.32   40.98
   6   5  -2    2.05    9.97
  -6  -5   2    0.98   10.86
  -6  -5   2    2.30   10.47
   6   5  -1  107.06   23.98
  -6  -5   1  120.39   24.28
  -6  -5   1   85.69   22.33
   6   5   0  232.32   33.53
  -6  -5   0  273.93   50.34
  -6  -5   0  248.85   29.64
   6   5   1  245.26   44.21
  -6  -5  -1  195.97   32.13
  -6  -5  -1  236.07   26.55
   6   5   2  154.30   24.93
  -6  -5  -2  131.69   26.96
  -6  -5  -2  149.21   20.99
   6   5   3  136.46   23.36
  -6  -5  -3  114.64   26.31
  -6  -5  -3  140.58   20.63
   6   5   4 1463.88  108.28
  -6  -5  -4 1425.16  130.42
  -6  -5  -4 1484.63  102.03
   6   5   5 1391.66  104.82
  -6  -5  -5 1374.87  132.29
  -6  -5  -5 1730.96  128.17
   6   5   6   39.19   13.69
  -6  -5  -6   -7.91   16.72
  -6  -5  -6   33.22   12.52
   6   5   7  138.08   36.39
  -6  -5  -7  162.65   22.26
   6   5   8  924.01   78.82
  -6  -5  -8  981.22   73.44
   6   5   9  107.09   26.39
  -6  -5  -9  169.87   24.93
   6   5  10  124.31   24.78
  -6  -5 -10  115.79   35.04
   6   5  11  272.31   37.00
  -6  -5 -11  261.73   35.45
   6   5  12   34.43   18.93
  -6  -5 -12   50.44   18.21
   6   5  13    9.35   17.29
  -6  -5 -13  -10.21   16.44
   6   6  -4   10.56   14.43
  -6  -6   4    6.63   16.46
  -6  -6   4   29.66   34.27
   6   6  -3  110.81   28.48
  -6  -6   3  110.67   31.15
  -6  -6   3  150.04   33.92
   6   6  -2  278.02   41.35
  -6  -6   2  248.97   59.99
  -6  -6   2  296.92   43.68
   6   6  -1  187.54   34.64
  -6  -6   1  165.52   33.05
  -6  -6   1  232.95   47.28
   6   6   0   91.79   24.59
  -6  -6   0  100.69   25.11
  -6  -6   0  100.78   22.87
   6   6   1  495.76   77.84
  -6  -6  -1  511.32   76.52
  -6  -6  -1  536.31   51.23
   6   6   2   39.97   17.16
  -6  -6  -2   27.83   18.25
  -6  -6  -2   35.28   14.34
   6   6   3   37.95   16.77
  -6  -6  -3   35.28   18.10
  -6  -6  -3   31.24   13.60
   6   6   4  443.82   47.92
  -6  -6  -4  491.60   76.79
  -6  -6  -4  508.16   44.73
   6   6   5   -7.22   10.41
  -6  -6  -5   21.67   12.54
  -6  -6  -5    3.22    9.28
   6   6   6   18.57   12.80
  -6  -6  -6    6.00   16.27
  -6  -6  -6   14.51   11.04
  -6  -6  -7   83.68   32.00
  -6  -6  -7  117.09   20.20
   6   6   8  185.57   31.48
  -6  -6  -8  188.28   44.51
  -6  -6  -8  192.21   27.51
   6   6   9   73.06   31.25
  -6  -6  -9   42.12   32.13
  -6  -6  -9   44.01   26.70
   6   6  10  308.66   40.41
  -6  -6 -10  240.65   79.45
  -6  -6 -10  335.23   38.73
   6   6  11  139.86   29.48
  -6  -6 -11   74.53   67.15
  -6  -6 -11  185.97   28.24
   6   6  12   10.74   23.78
  -6  -6 -12   21.00   31.64
  -6  -6 -12   11.35   13.73
   6   7  -2  140.28   36.60
  -6  -7   2  178.96   37.03
  -6  -7   2  210.83   66.87
   6   7  -1  151.15   36.60
  -6  -7   1  141.63   35.89
  -6  -7   1  197.10   38.97
   6   7   0   64.23   38.31
  -6  -7   0   69.41   26.29
  -6  -7   0   78.62   25.88
   6   7   1   26.69   19.50
  -6  -7  -1   35.80   21.64
  -6  -7  -1   42.19   29.06
   6   7   2  222.87   42.51
  -6  -7  -2  255.43   65.88
  -6  -7  -2  306.69   39.61
   6   7   3   11.82   13.47
  -6  -7  -3    6.39   15.78
  -6  -7  -3    1.88   11.75
   6   7   4   63.39   21.05
  -6  -7  -4   69.90   28.17
  -6  -7  -4   61.26   18.86
   6   7   5    9.25   13.46
  -6  -7  -5   15.87   19.47
  -6  -7  -5    7.43   11.81
   6   7   6   -0.76   11.62
  -6  -7  -6   -5.07   18.66
  -6  -7  -6    9.82   10.48
   6   7   7   30.66   26.34
  -6  -7  -7   29.55   29.99
  -6  -7  -7   21.14   14.90
   6   7   8   13.39   17.98
  -6  -7  -8   22.57   51.90
  -6  -7  -8   32.54   14.42
   6   7   9   66.65   24.05
  -6  -7  -9   51.43   75.91
  -6  -7  -9   73.99   20.02
   6   7  10   78.96   25.27
  -6  -7 -10   75.41   52.48
  -6  -7 -10  102.67   22.34
   6   7  11  409.08   50.24
  -6  -7 -11  173.12   83.76
  -6  -7 -11  421.73   46.63
   6   8   2   37.39   21.90
  -6  -8  -2   16.47   26.70
  -6  -8  -2   31.99   21.49
   6   8   3  293.48   51.63
  -6  -8  -3  349.57   65.79
  -6  -8  -3  314.16   48.08
   6   8   4   49.08   38.91
  -6  -8  -4   51.92   35.65
  -6  -8  -4   53.16   21.55
   6   8   5   15.58   18.71
  -6  -8  -5   39.96   52.25
  -6  -8  -5   29.13   17.34
   6   8   6   30.64   20.27
  -6  -8  -6   19.63   37.57
  -6  -8  -6   38.34   26.45
   6   8   7   16.62   16.08
  -6  -8  -7   13.80   33.62
  -6  -8  -7    7.84   13.55
   6   8   8   38.52   23.77
  -6  -8  -8   44.59   77.63
  -6  -8  -8   53.01   19.06
   7  -5  -3   31.34   18.25
  -7   5   3   45.93   29.98
   7  -5  -2   20.00   16.54
  -7   5   2   30.39   18.46
   7  -5  -1  151.87   47.09
  -7   5   1  186.64   37.97
   7  -5   0   -2.91   10.31
  -7   5   0    4.49   11.39
   7  -5   1    9.70   13.13
  -7   5  -1   -1.69   12.66
   7  -5   2   32.75   34.04
  -7   5  -2   40.72   19.84
   7  -5   3   76.10   29.59
  -7   5  -3   83.39   25.11
   7  -4  -5   -3.23    9.78
  -7   4   5    0.62   10.70
   7  -4  -4    1.33   11.40
  -7   4   4   11.08   12.10
   7  -4  -3   19.43   18.52
  -7   4   3    5.18   13.36
   7  -4  -2    2.38   11.03
  -7   4   2   12.95   12.78
   7  -4  -1   -7.75   16.29
  -7   4   1   -1.78   12.33
   7  -4   0   93.13   22.60
  -7   4   0  124.08   27.63
   7  -4   1   -4.78   10.74
  -7   4  -1   13.47   11.50
   7  -4   2   63.75   21.69
  -7   4  -2   55.02   20.72
   7  -4   3   17.68   17.14
  -7   4  -3   27.86   15.31
   7  -4   4  132.19   47.27
  -7   4  -4  129.17   40.15
   7  -4   5   60.79   26.28
  -7   4  -5   62.80   29.39
   7  -4   6  195.10   47.44
   7  -3  -6  252.66   34.77
  -7   3   6  262.19   38.00
   7  -3  -5   96.07   22.94
  -7   3   5  117.99   24.76
   7  -3  -4   61.19   19.18
  -7   3   4   90.65   20.54
   7  -3  -3   15.06   12.34
  -7   3   3   22.06   14.47
   7  -3  -2   -0.45   10.26
  -7   3   2   20.85   12.17
   7  -3  -1    2.30   10.90
  -7   3   1   24.99   13.67
   7  -3   0   16.73   12.08
  -7   3   0    9.57   22.81
   7  -3   1   88.55   21.11
  -7   3  -1  115.71   24.26
   7  -3   2    8.27   10.13
  -7   3  -2   -0.95   10.57
   7  -3   3   -1.31    9.06
  -7   3  -3   -0.83    9.21
   7  -3   4   13.87   14.75
  -7   3  -4   38.42   22.46
   7  -3   5   28.23   16.48
  -7   3  -5   14.26   22.52
   7  -3   6    9.29   17.48
  -7   3  -6   -4.50   14.64
   7  -3   7  106.44   31.22
  -7   3  -7  106.44   37.83
   7  -3   8   59.26   27.88
   7  -2  -7   36.82   17.58
  -7   2   7   35.67   18.68
   7  -2  -6   87.42   34.07
  -7   2   6  118.60   24.48
   7  -2  -5   12.77   13.55
  -7   2   5   29.60   14.22
   7  -2  -4   37.52   21.39
  -7   2   4   24.55   15.64
   7  -2  -3   -7.22    8.82
  -7   2   3    3.51   10.15
   7  -2  -2  344.76   37.76
  -7   2   2  422.99   62.42
   7  -2  -1  100.07   21.17
  -7   2   1  134.74   25.61
   7  -2   0    2.25    8.13
  -7   2   0   -4.94    9.08
   7  -2   1   26.29   13.53
  -7   2  -1   38.03   15.58
   7  -2   2   20.98   12.90
  -7   2  -2   24.06   13.97
   7  -2   3   -1.29    8.08
  -7   2  -3    2.52    8.43
   7  -2   4   14.18   11.60
  -7   2  -4    7.49   18.66
   7  -2   5   -1.93   10.27
  -7   2  -5   11.92   10.55
   7  -2   6   19.62   22.10
  -7   2  -6   12.60   11.92
   7  -2   7   28.32   17.09
  -7   2  -7   25.70   14.73
   7  -2   8   54.85   25.02
  -7   2  -8   91.79   21.17
   7  -2   9   14.78   27.37
  -7   2  -9   17.78   15.14
   7  -1  -7   29.00   17.44
  -7   1   7   36.92   18.14
   7  -1  -6   17.63   15.10
  -7   1   6   37.29   15.73
   7  -1  -5   -2.81   18.19
  -7   1   5   14.18   12.52
   7  -1  -4   70.29   17.55
  -7   1   4   72.36   20.17
   7  -1  -3   -5.07   10.31
  -7   1   3   -9.97   16.98
   7  -1  -2  114.03   31.46
  -7   1   2  111.08   24.10
   7  -1  -1   95.89   18.37
  -7   1   1   57.44   20.01
   7  -1   0   13.16   17.13
  -7   1   0    8.23   11.76
   7  -1   1   71.62   17.83
  -7   1  -1   75.89   28.78
   7  -1   2  171.92   26.02
  -7   1  -2  216.44   29.21
   7  -1   3  739.32   63.06
  -7   1  -3  850.58   72.36
   7  -1   4  134.52   22.29
  -7   1  -4  110.04   22.94
   7  -1   5  123.91   23.27
  -7   1  -5  141.11   32.96
   7  -1   6   89.54   31.70
  -7   1  -6  113.54   30.88
   7  -1   7   39.46   16.00
  -7   1  -7   41.13   16.09
   7  -1   8    5.88   12.45
  -7   1  -8   12.31   11.65
   7  -1   9   83.22   24.41
  -7   1  -9   87.41   22.98
   7  -1  10  405.80   58.25
  -7   1 -10  467.08   56.23
   7   0  -7  105.85   25.76
  -7   0   7   84.83   41.16
  -7   0   7  148.24   27.64
   7   0  -6  177.82   29.58
  -7   0   6  181.87   32.41
   7   0  -5   15.61   12.57
  -7   0   5   11.41   13.60
   7   0  -4   11.04   12.65
  -7   0   4   21.56   21.35
   7   0  -3   24.28   13.95
  -7   0   3   28.08   15.11
   7   0  -2  184.52   26.65
  -7   0   2  159.54   28.62
   7   0  -1   95.91   21.87
  -7   0   1  126.93   22.53
   7   0   0  127.89   20.92
  -7   0   0   79.15   21.33
   7   0   1   16.87   11.97
  -7   0  -1   21.24   13.01
   7   0   2  108.26   20.38
  -7   0  -2  147.22   32.24
   7   0   3   98.27   19.85
  -7   0  -3  102.51   20.82
   7   0   4   60.33   25.21
  -7   0  -4   45.92   16.36
   7   0   5  518.70   48.67
  -7   0  -5  560.84   50.23
   7   0   6   68.84   18.18
  -7   0  -6  118.57   29.14
   7   0   7   17.96   12.38
  -7   0  -7   14.15   12.38
   7   0   8   11.49   14.38
  -7   0  -8   29.55   13.47
   7   0   9  201.86   49.21
  -7   0  -9  216.16   33.08
   7   0  10   38.45   19.06
  -7   0 -10   40.32   17.34
   7   0  11    1.56   10.92
  -7   0 -11   -0.47   10.70
   7   1  -7  415.50   50.79
  -7  -1   7  525.56  109.46
  -7  -1   7  450.26   56.76
   7   1  -6   53.87   20.47
  -7  -1   6   92.24   33.51
  -7  -1   6   51.40   35.29
   7   1  -5   18.74   12.27
  -7  -1   5    0.12   13.87
   7   1  -4   17.96   13.85
  -7  -1   4   15.21   14.39
   7   1  -3   14.82   12.46
  -7  -1   3    6.17   20.06
   7   1  -2   12.95   22.11
  -7  -1   2   36.19   14.97
   7   1  -1   22.45   11.04
  -7  -1   1   -9.64   11.37
   7   1   0   -6.98    9.60
  -7  -1   0    0.47   10.19
   7   1   1   18.77   12.48
  -7  -1  -1   27.30   21.26
   7   1   2   15.15   11.88
  -7  -1  -2   17.95   11.87
   7   1   3  248.70   42.41
  -7  -1  -3  293.65   34.08
   7   1   4  409.87   41.02
  -7  -1  -4  396.76   39.49
   7   1   5  443.57   56.88
  -7  -1  -5  442.85   43.01
   7   1   6  322.50   35.50
  -7  -1  -6  378.84   38.08
   7   1   7   72.31   30.51
  -7  -1  -7   95.71   19.48
   7   1   8    2.66   10.95
  -7  -1  -8    8.43   10.37
   7   1   9  341.82   42.89
  -7  -1  -9  354.83   41.75
   7   1  10    9.73   15.07
  -7  -1 -10   33.39   14.98
   7   1  11   30.85   18.83
  -7  -1 -11   51.60   19.81
   7   2  -6  108.68   27.21
  -7  -2   6  163.11   41.61
  -7  -2   6  153.71   32.87
   7   2  -5   67.83   22.00
  -7  -2   5   75.38   33.14
  -7  -2   5   92.10   35.18
   7   2  -4  136.15   41.76
  -7  -2   4  169.17   43.00
  -7  -2   4  153.49   29.08
   7   2  -3   75.31   21.57
  -7  -2   3   92.17   21.93
   7   2  -2   17.25   13.71
  -7  -2   2   16.87   13.68
   7   2  -1   42.18   27.35
  -7  -2   1   58.64   18.31
   7   2   0   34.68   15.00
  -7  -2   0   38.88   24.13
   7   2   1   -9.29    9.33
  -7  -2  -1    6.33    8.93
   7   2   2  185.24   39.93
  -7  -2  -2  166.98   26.57
   7   2   3  252.07   32.81
  -7  -2  -3  311.07   33.31
   7   2   4  125.32   34.71
  -7  -2  -4  158.15   22.77
   7   2   5   -4.55    9.09
  -7  -2  -5   19.70   13.94
   7   2   6  113.25   22.34
  -7  -2  -6  126.28   21.24
   7   2   7  160.29   26.93
  -7  -2  -7  179.89   25.62
   7   2   8    3.08   20.73
  -7  -2  -8   25.11   13.28
   7   2   9   15.15   11.64
  -7  -2  -9    0.30   11.80
   7   2  10   56.57   21.10
  -7  -2 -10   83.08   20.40
   7   2  11  191.84   51.88
  -7  -2 -11  248.26   36.77
   7   2  12  419.90   55.40
  -7  -2 -12  465.48   76.24
   7   3  -5  178.91   34.79
  -7  -3   5  256.46   48.60
  -7  -3   5  171.48   36.91
   7   3  -4  300.21   43.86
  -7  -3   4  420.69   60.70
  -7  -3   4  375.52   48.40
   7   3  -3   67.75   32.50
  -7  -3   3   79.08   32.05
  -7  -3   3   70.09   23.13
   7   3  -2  132.29   28.81
  -7  -3   2  193.15   40.86
  -7  -3   2  140.69   28.98
   7   3  -1    5.19   12.40
  -7  -3   1   11.02   12.24
   7   3   0  119.38   37.99
  -7  -3   0  128.83   25.02
   7   3   1  499.92   52.39
  -7  -3  -1  548.22   52.14
   7   3   2  171.30   28.88
  -7  -3  -2  207.68   29.54
   7   3   3   -2.09   11.02
  -7  -3  -3   14.48   10.08
   7   3   4  123.12   22.43
  -7  -3  -4  116.07   32.00
   7   3   5  144.02   37.29
  -7  -3  -5  149.81   24.15
   7   3   6   22.44   15.29
  -7  -3  -6   45.04   14.45
   7   3   7   18.57   22.25
  -7  -3  -7   33.74   14.02
   7   3   8    3.84   11.54
  -7  -3  -8   12.46   11.49
   7   3   9  173.11   28.52
  -7  -3  -9  201.97   28.90
   7   3  10   56.79   19.84
  -7  -3 -10   53.99   18.62
   7   3  11   47.11   19.87
  -7  -3 -11   39.52   19.97
   7   3  12  130.45   31.17
  -7  -3 -12  163.66   31.26
   7   4  -4    9.70   16.15
  -7  -4   4   28.03   22.02
  -7  -4   4   27.00   28.91
   7   4  -3  -21.09   20.38
  -7  -4   3   34.47   26.70
  -7  -4   3   -7.13   13.93
   7   4  -2    8.98   15.04
  -7  -4   2   17.87   19.92
  -7  -4   2   19.26   15.49
   7   4  -1   98.27   26.01
  -7  -4   1  122.91   52.37
  -7  -4   1  110.42   38.64
   7   4   0   84.82   26.05
  -7  -4   0  114.13   33.63
  -7  -4   0  115.21   24.75
   7   4   1   28.09   22.58
  -7  -4  -1  -14.49   20.43
  -7  -4  -1   29.10   19.81
   7   4   2  291.07   39.99
  -7  -4  -2  343.50   37.12
   7   4   3  312.37   39.70
  -7  -4  -3  337.39   51.17
   7   4   4   24.38   13.76
  -7  -4  -4   14.46   12.49
   7   4   5  506.54   52.31
  -7  -4  -5  549.47   49.89
   7   4   6  388.89   43.90
  -7  -4  -6  453.21   43.30
   7   4   7   85.98   20.77
  -7  -4  -7   86.94   20.60
   7   4   8   85.56   21.22
  -7  -4  -8   92.34   32.37
   7   4   9   14.50   15.38
  -7  -4  -9   32.03   14.25
   7   4  10   45.55   19.42
  -7  -4 -10   40.24   18.75
   7   4  11  -12.90   14.23
  -7  -4 -11   -4.92   14.08
   7   5  -2   95.15   27.67
  -7  -5   2  118.51   32.45
  -7  -5   2   68.73   29.98
   7   5  -1   81.67   26.51
  -7  -5   1   88.24   32.15
  -7  -5   1  111.78   40.00
   7   5   0   10.82   15.06
  -7  -5   0    4.47   18.04
  -7  -5   0   14.52   13.33
  -7  -5  -1   25.67   21.37
  -7  -5  -1   24.05   14.91
   7   5   2  107.16   26.43
  -7  -5  -2  144.96   52.86
  -7  -5  -2  122.42   23.67
   7   5   3  237.87   37.13
  -7  -5  -3  263.55   52.69
  -7  -5  -3  264.28   33.79
   7   5   4  107.56   37.46
  -7  -5  -4  113.06   37.43
  -7  -5  -4  109.15   22.08
   7   5   5  114.01   24.68
  -7  -5  -5  112.56   39.57
  -7  -5  -5  104.90   22.05
   7   5   6   29.39   24.99
  -7  -5  -6   30.80   14.57
   7   5   7  426.78   49.03
  -7  -5  -7  491.22   63.45
   7   5   8  141.33   42.12
  -7  -5  -8  148.33   25.54
   7   5   9   14.90   14.86
  -7  -5  -9   12.97   22.04
   7   5  10    3.19   13.43
  -7  -5 -10   11.36   12.94
   7   6   1   12.43   16.50
  -7  -6  -1   -6.57   12.34
  -7  -6  -1   -0.33    9.39
   7   6   2    6.48   17.10
  -7  -6  -2   22.67   20.96
  -7  -6  -2   28.68   15.06
   7   6   3   53.40   23.57
  -7  -6  -3   35.44   29.10
  -7  -6  -3   83.19   19.73
   7   6   4   49.43   30.66
  -7  -6  -4   40.84   25.97
  -7  -6  -4   33.13   26.70
   7   6   5  139.42   27.89
  -7  -6  -5   80.99   37.15
  -7  -6  -5  107.17   24.03
   7   6   6   13.68   14.20
  -7  -6  -6    1.54   21.63
  -7  -6  -6   16.27   19.79
   7   6   7   10.06   13.21
  -7  -6  -7    9.60   21.12
  -7  -6  -7    3.89   11.55
   7   6   8   92.57   37.31
  -7  -6  -8   37.46   61.17
  -7  -6  -8   78.65   33.51
   8  -2  -1   52.65   20.21
  -8   2   1   63.23   21.99
   8  -2   0   20.72   15.35
  -8   2   0   23.21   26.51
   8  -2   1   15.98   14.20
  -8   2  -1   15.22   15.78
   8  -2   2   -1.32   11.23
  -8   2  -2    8.98   12.27
   8  -2   3    5.87   21.33
  -8   2  -3   10.99   14.50
   8  -1  -2  269.22   41.16
  -8   1   2  352.08   46.21
   8  -1  -1   -0.09   21.70
  -8   1   1  -17.47   14.98
   8  -1   0   11.57   13.52
  -8   1   0   14.92   14.71
   8  -1   1   16.31   18.56
  -8   1  -1    1.18   13.21
   8  -1   2   31.73   17.86
  -8   1  -2   55.80   19.55
   8  -1   3    0.15   10.84
  -8   1  -3    9.62   18.57
   8  -1   4  114.06   25.80
  -8   1  -4  144.63   29.09
   8  -1   5   28.07   17.35
  -8   1  -5   40.25   17.13
   8  -1   6   29.78   27.71
  -8   1  -6   21.62   16.69
   8   0  -2  230.24   53.83
  -8   0   2  262.35   40.49
   8   0  -1  140.16   29.14
  -8   0   1  160.09   31.49
   8   0   0   -2.77   16.16
  -8   0   0    2.88   10.89
   8   0   1   59.13   19.98
  -8   0  -1   54.53   21.83
   8   0   2  268.76   54.80
  -8   0  -2  336.55   43.70
   8   0   3  237.84   36.39
  -8   0  -3  295.38   40.80
   8   0   4   93.72   34.29
  -8   0  -4   86.54   23.93
   8   0   5    9.06   13.54
  -8   0  -5   10.88   12.86
   8   0   6  131.95   30.31
  -8   0  -6  174.46   29.71
   8   0   7    3.34   13.40
  -8   0  -7   15.14   20.53
   8   1  -2   12.07   16.25
  -8  -1   2   25.40   16.50
   8   1  -1   75.27   36.48
  -8  -1   1   95.53   25.64
   8   1   0   99.92   27.01
  -8  -1   0  153.39   40.98
   8   1   1  234.63   56.45
  -8  -1  -1  326.68   43.15
   8   1   2  121.16   26.95
  -8  -1  -2  167.05   42.97
   8   1   3  394.86   67.45
  -8  -1  -3  451.71   52.87
   8   1   4   60.80   19.28
  -8  -1  -4   36.06   18.43
  -8  -1  -5   14.13   13.88
   8   1   6  163.45   31.55
  -8  -1  -6  200.32   32.89
   8   1   7  213.96   35.43
  -8  -1  -7  240.32   36.11
   8   2  -1   16.95   18.13
  -8  -2   1   36.03   17.53
   8   2   0   81.00   23.84
  -8  -2   0   86.81   24.31
   8   2   1  139.57   28.67
  -8  -2  -1  173.79   46.77
   8   2   2  927.15  115.33
  -8  -2  -2  945.63   92.98
   8   2   3   18.75   13.89
  -8  -2  -3    1.13   12.86
  -8  -2  -4   92.13   24.11
   8   2   5   32.58   16.32
  -8  -2  -5   19.23   16.10
   8   2   6   51.09   23.56
  -8  -2  -6  136.96   24.64
   8   2   7    3.62   13.75
  -8  -2  -7   14.83   13.34
   8   3   1    7.10   13.78
  -8  -3  -1    9.65   14.27
   8   3   2  272.52   41.71
  -8  -3  -2  257.37   39.13
   8   3   3   60.23   24.18
  -8  -3  -3   95.38   23.17
   8   3   4   89.68   27.37
  -8  -3  -4  166.52   28.07
   8   3   5    4.85   12.13
  -8  -3  -5    4.86   12.02
   8   3   6   -0.17   10.27
  -8  -3  -6    1.19    9.71
   0   0   0    0.00    0.00
;
_shelx_hkl_checksum              58280
loop_
_space_group_symop_operation_xyz
'x, y, z'
'-x, -y, -z'
loop_
_atom_site_label
_atom_site_type_symbol
_atom_site_fract_x
_atom_site_fract_y
_atom_site_fract_z
_atom_site_U_iso_or_equiv
_atom_site_adp_type
_atom_site_occupancy
_atom_site_site_symmetry_order
_atom_site_calc_flag
_atom_site_refinement_flags_posn
_atom_site_refinement_flags_adp
F001 F 0.08980(15) 0.59338(12) 0.56739(7) 0.0365(3) Uani 1 1 d . .
F002 F 0.04315(16) 0.82695(12) 0.61469(7) 0.0382(3) Uani 1 1 d . .
N003 N 0.2917(2) 0.62682(16) 0.68997(9) 0.0287(3) Uani 1 1 d . .
N004 N 0.3635(2) 0.78337(17) 0.51360(9) 0.0295(3) Uani 1 1 d . .
C005 C 0.2253(3) 0.65332(19) 0.78430(11) 0.0296(4) Uani 1 1 d . .
C006 C 0.5570(3) 0.7112(2) 0.50814(11) 0.0289(4) Uani 1 1 d . .
C007 C 0.7107(3) 0.7744(2) 0.42893(11) 0.0330(4) Uani 1 1 d . .
H1 H 0.8465 0.7238 0.4240 0.040 Uiso 1 1 calc R U
C008 C 0.5224(3) 0.3880(2) 0.74844(11) 0.0288(4) Uani 1 1 d . .
C009 C 0.3582(3) 0.2975(2) 0.80832(11) 0.0317(4) Uani 1 1 d . .
H2 H 0.2173 0.3386 0.8074 0.038 Uiso 1 1 calc R U
C00A C 0.5975(3) 0.5738(2) 0.58527(11) 0.0292(4) Uani 1 1 d . .
H3 H 0.7155 0.5053 0.5741 0.035 Uiso 1 1 calc R U
C00B C 0.4742(3) 0.5368(2) 0.67396(11) 0.0279(4) Uani 1 1 d . .
C00C C 0.3709(3) 0.6655(2) 0.84555(12) 0.0328(4) Uani 1 1 d . .
H4 H 0.5173 0.6559 0.8241 0.039 Uiso 1 1 calc R U
C00D C 0.7282(3) 0.3273(2) 0.75316(12) 0.0326(4) Uani 1 1 d . .
H5 H 0.8421 0.3891 0.7145 0.039 Uiso 1 1 calc R U
C00E C 0.0115(3) 0.6691(2) 0.81689(13) 0.0348(4) Uani 1 1 d . .
H6 H -0.0900 0.6602 0.7762 0.042 Uiso 1 1 calc R U
C00F C 0.3991(3) 0.1483(2) 0.86891(12) 0.0370(4) Uani 1 1 d . .
H7 H 0.2863 0.0873 0.9091 0.044 Uiso 1 1 calc R U
C00G C 0.6030(3) 0.0878(2) 0.87121(12) 0.0383(4) Uani 1 1 d . .
H8 H 0.6303 -0.0154 0.9122 0.046 Uiso 1 1 calc R U
C00H C 0.3181(3) 0.9159(2) 0.44290(12) 0.0346(4) Uani 1 1 d . .
H9 H 0.1809 0.9641 0.4475 0.042 Uiso 1 1 calc R U
C00I C 0.6647(3) 0.9093(2) 0.35862(12) 0.0359(4) Uani 1 1 d . .
H10 H 0.7689 0.9535 0.3054 0.043 Uiso 1 1 calc R U
C00J C 0.4645(3) 0.9813(2) 0.36557(12) 0.0372(4) Uani 1 1 d . .
H11 H 0.4304 1.0746 0.3171 0.045 Uiso 1 1 calc R U
C00K C 0.3038(3) 0.6913(2) 0.93766(13) 0.0383(4) Uani 1 1 d . .
H12 H 0.4043 0.6968 0.9796 0.046 Uiso 1 1 calc R U
C00L C 0.7680(3) 0.1776(2) 0.81380(13) 0.0373(4) Uani 1 1 d . .
H13 H 0.9087 0.1364 0.8160 0.045 Uiso 1 1 calc R U
C00M C -0.0535(3) 0.6978(2) 0.90829(13) 0.0400(4) Uani 1 1 d . .
H14 H -0.1996 0.7097 0.9297 0.048 Uiso 1 1 calc R U
C00N C 0.0922(3) 0.7091(2) 0.96870(13) 0.0416(5) Uani 1 1 d . .
H15 H 0.0467 0.7291 1.0313 0.050 Uiso 1 1 calc R U
B00O B 0.1860(3) 0.7061(2) 0.60004(14) 0.0307(4) Uani 1 1 d . .
loop_
_atom_site_aniso_label
_atom_site_aniso_U_11
_atom_site_aniso_U_22
_atom_site_aniso_U_33
_atom_site_aniso_U_23
_atom_site_aniso_U_13
_atom_site_aniso_U_12
F001 0.0349(6) 0.0379(6) 0.0383(5) -0.0096(5) -0.0087(4) -0.0049(4)
F002 0.0397(6) 0.0350(6) 0.0377(5) -0.0074(5) -0.0063(4) 0.0104(4)
N003 0.0308(7) 0.0272(8) 0.0274(7) -0.0063(6) -0.0030(6) 0.0011(6)
N004 0.0356(8) 0.0262(8) 0.0273(7) -0.0055(6) -0.0085(6) -0.0004(6)
C005 0.0345(9) 0.0231(9) 0.0296(8) -0.0053(7) -0.0018(7) -0.0010(7)
C006 0.0327(8) 0.0257(9) 0.0301(8) -0.0089(7) -0.0058(7) -0.0027(7)
C007 0.0364(9) 0.0334(10) 0.0302(8) -0.0095(7) -0.0032(7) -0.0051(7)
C008 0.0352(9) 0.0261(9) 0.0263(7) -0.0074(7) -0.0073(7) 0.0008(7)
C009 0.0356(9) 0.0315(9) 0.0283(8) -0.0085(7) -0.0046(7) 0.0003(7)
C00A 0.0299(8) 0.0280(9) 0.0305(8) -0.0080(7) -0.0047(6) -0.0017(7)
C00B 0.0300(8) 0.0245(8) 0.0302(8) -0.0075(7) -0.0063(6) -0.0010(6)
C00C 0.0333(9) 0.0302(9) 0.0345(8) -0.0084(7) -0.0015(7) -0.0032(7)
C00D 0.0348(9) 0.0319(10) 0.0316(8) -0.0082(7) -0.0070(7) 0.0008(7)
C00E 0.0345(9) 0.0339(10) 0.0362(9) -0.0093(8) -0.0046(7) 0.0003(7)
C00F 0.0470(10) 0.0336(10) 0.0289(8) -0.0052(7) -0.0035(7) -0.0042(8)
C00G 0.0535(11) 0.0280(10) 0.0316(8) -0.0028(7) -0.0102(8) 0.0031(8)
C00H 0.0435(10) 0.0281(9) 0.0332(8) -0.0069(7) -0.0115(7) 0.0017(7)
C00I 0.0480(10) 0.0320(10) 0.0280(8) -0.0073(7) -0.0026(7) -0.0086(8)
C00J 0.0534(11) 0.0276(9) 0.0299(8) -0.0033(7) -0.0102(8) -0.0021(8)
C00K 0.0446(10) 0.0386(11) 0.0339(9) -0.0118(8) -0.0059(8) -0.0045(8)
C00L 0.0401(10) 0.0364(11) 0.0368(9) -0.0106(8) -0.0114(8) 0.0084(8)
C00M 0.0358(9) 0.0401(11) 0.0426(10) -0.0129(8) 0.0031(8) 0.0017(8)
C00N 0.0474(11) 0.0431(11) 0.0352(9) -0.0155(8) 0.0017(8) -0.0012(9)
B00O 0.0306(9) 0.0302(10) 0.0314(9) -0.0079(8) -0.0049(8) 0.0004(8)
loop_
_atom_type_symbol
_atom_type_description
_atom_type_scat_dispersion_real
_atom_type_scat_dispersion_imag
_atom_type_scat_source
C C 0.0033 0.0016 'International Tables Vol C Tables 4.2.6.8 and 6.1.1.4'
H H 0.0000 0.0000 'International Tables Vol C Tables 4.2.6.8 and 6.1.1.4'
N N 0.0061 0.0033 'International Tables Vol C Tables 4.2.6.8 and 6.1.1.4'
B B 0.0013 0.0007 'International Tables Vol C Tables 4.2.6.8 and 6.1.1.4'
F F 0.0171 0.0103 'International Tables Vol C Tables 4.2.6.8 and 6.1.1.4'
loop_
_geom_angle_atom_site_label_1
_geom_angle_atom_site_label_2
_geom_angle_atom_site_label_3
_geom_angle
C00B N003 C005 120.06(14)
C00B N003 B00O 116.17(13)
C005 N003 B00O 123.48(14)
C006 N004 C00H 120.38(15)
C006 N004 B00O 119.37(14)
C00H N004 B00O 120.16(15)
C00C C005 C00E 118.79(15)
C00C C005 N003 121.05(15)
C00E C005 N003 120.15(15)
N004 C006 C007 119.48(16)
N004 C006 C00A 118.09(14)
C007 C006 C00A 122.42(16)
C00I C007 C006 119.82(17)
C00I C007 H1 120.1
C006 C007 H1 120.1
C009 C008 C00D 118.74(16)
C009 C008 C00B 119.78(15)
C00D C008 C00B 121.15(15)
C00F C009 C008 120.46(17)
C00F C009 H2 119.8
C008 C009 H2 119.8
C00B C00A C006 122.75(16)
C00B C00A H3 118.6
C006 C00A H3 118.6
C00A C00B N003 120.08(15)
C00A C00B C008 119.20(15)
N003 C00B C008 120.28(14)
C00K C00C C005 120.49(16)
C00K C00C H4 119.8
C005 C00C H4 119.8
C00L C00D C008 120.45(16)
C00L C00D H5 119.8
C008 C00D H5 119.8
C00M C00E C005 120.22(17)
C00M C00E H6 119.9
C005 C00E H6 119.9
C00G C00F C009 120.28(17)
C00G C00F H7 119.9
C009 C00F H7 119.9
C00F C00G C00L 119.93(17)
C00F C00G H8 120.0
C00L C00G H8 120.0
N004 C00H C00J 121.62(17)
N004 C00H H9 119.2
C00J C00H H9 119.2
C007 C00I C00J 119.71(16)
C007 C00I H10 120.1
C00J C00I H10 120.1
C00H C00J C00I 118.99(17)
C00H C00J H11 120.5
C00I C00J H11 120.5
C00N C00K C00C 120.31(17)
C00N C00K H12 119.8
C00C C00K H12 119.8
C00D C00L C00G 120.10(17)
C00D C00L H13 119.9
C00G C00L H13 119.9
C00N C00M C00E 120.55(17)
C00N C00M H14 119.7
C00E C00M H14 119.7
C00K C00N C00M 119.62(17)
C00K C00N H15 120.2
C00M C00N H15 120.2
F002 B00O F001 110.20(15)
F002 B00O N003 113.19(14)
F001 B00O N003 111.14(15)
F002 B00O N004 107.68(14)
F001 B00O N004 106.31(13)
N003 B00O N004 107.99(14)
loop_
_geom_bond_atom_site_label_1
_geom_bond_atom_site_label_2
_geom_bond_distance
F001 B00O 1.393(2)
F002 B00O 1.380(2)
N003 C00B 1.386(2)
N003 C005 1.417(2)
N003 B00O 1.515(2)
N004 C006 1.353(2)
N004 C00H 1.359(2)
N004 B00O 1.587(2)
C005 C00C 1.391(2)
C005 C00E 1.393(2)
C006 C007 1.402(2)
C006 C00A 1.429(2)
C007 C00I 1.370(2)
C007 H1 0.9500
C008 C009 1.396(2)
C008 C00D 1.392(2)
C008 C00B 1.484(2)
C009 C00F 1.383(2)
C009 H2 0.9500
C00A C00B 1.360(2)
C00A H3 0.9500
C00C C00K 1.386(2)
C00C H4 0.9500
C00D C00L 1.385(3)
C00D H5 0.9500
C00E C00M 1.384(2)
C00E H6 0.9500
C00F C00G 1.378(3)
C00F H7 0.9500
C00G C00L 1.384(3)
C00G H8 0.9500
C00H C00J 1.362(2)
C00H H9 0.9500
C00I C00J 1.392(3)
C00I H10 0.9500
C00J H11 0.9500
C00K C00N 1.377(3)
C00K H12 0.9500
C00L H13 0.9500
C00M C00N 1.381(3)
C00M H14 0.9500
C00N H15 0.9500
loop_
_geom_torsion_atom_site_label_1
_geom_torsion_atom_site_label_2
_geom_torsion_atom_site_label_3
_geom_torsion_atom_site_label_4
_geom_torsion
C00B N003 C005 C00C 32.3(2)
B00O N003 C005 C00C -141.21(17)
C00B N003 C005 C00E -148.32(16)
B00O N003 C005 C00E 38.2(2)
C00H N004 C006 C007 0.1(2)
B00O N004 C006 C007 176.62(14)
C00H N004 C006 C00A 178.99(14)
B00O N004 C006 C00A -4.5(2)
N004 C006 C007 C00I 0.8(2)
C00A C006 C007 C00I -178.06(15)
C00D C008 C009 C00F -1.9(2)
C00B C008 C009 C00F 171.54(15)
N004 C006 C00A C00B -17.0(2)
C007 C006 C00A C00B 161.82(16)
C006 C00A C00B N003 5.1(2)
C006 C00A C00B C008 177.40(14)
C005 N003 C00B C00A -146.00(15)
B00O N003 C00B C00A 27.9(2)
C005 N003 C00B C008 41.7(2)
B00O N003 C00B C008 -144.32(15)
C009 C008 C00B C00A -142.51(16)
C00D C008 C00B C00A 30.8(2)
C009 C008 C00B N003 29.8(2)
C00D C008 C00B N003 -156.88(15)
C00E C005 C00C C00K 0.6(3)
N003 C005 C00C C00K -179.98(15)
C009 C008 C00D C00L 2.1(2)
C00B C008 C00D C00L -171.23(15)
C00C C005 C00E C00M 0.6(3)
N003 C005 C00E C00M -178.88(15)
C008 C009 C00F C00G 0.4(3)
C009 C00F C00G C00L 1.0(3)
C006 N004 C00H C00J -0.8(2)
B00O N004 C00H C00J -177.29(15)
C006 C007 C00I C00J -1.0(3)
N004 C00H C00J C00I 0.6(3)
C007 C00I C00J C00H 0.3(3)
C005 C00C C00K C00N -1.5(3)
C008 C00D C00L C00G -0.8(3)
C00F C00G C00L C00D -0.8(3)
C005 C00E C00M C00N -0.8(3)
C00C C00K C00N C00M 1.3(3)
C00E C00M C00N C00K -0.2(3)
C00B N003 B00O F002 -163.14(13)
C005 N003 B00O F002 10.6(2)
C00B N003 B00O F001 72.22(18)
C005 N003 B00O F001 -114.08(17)
C00B N003 B00O N004 -44.03(19)
C005 N003 B00O N004 129.68(15)
C006 N004 B00O F002 155.48(14)
C00H N004 B00O F002 -28.0(2)
C006 N004 B00O F001 -86.42(17)
C00H N004 B00O F001 90.11(18)
C006 N004 B00O N003 32.9(2)
C00H N004 B00O N003 -150.54(14)
