#------------------------------------------------------------------------------
#$Date: 2019-11-24 01:32:28 +0200 (Sun, 24 Nov 2019) $
#$Revision: 236023 $
#$URL: file:///home/coder/svn-repositories/cod/cif/1/55/37/1553781.cif $
#------------------------------------------------------------------------------
#
# This file is available in the Crystallography Open Database (COD),
# http://www.crystallography.net/
#
# All data on this site have been placed in the public domain by the
# contributors.
#
data_1553781
loop_
_publ_author_name
'Wan, Huabin'
'Li, Hongmin'
'Xu, Jian'
'Wu, Zhuang'
'Liu, Qifan'
'Chu, Xianxu'
'Abe, Manabu'
'B\'egu\'e, Didier'
'Zeng, Xiaoqing'
_publ_section_title
;
 &#x000D; N-Methylcarbamoyl azide: spectroscopy, X-ray structure and
 decomposition via methylcarbamoyl nitrene
;
_journal_issue                   9
_journal_name_full               'Organic Chemistry Frontiers'
_journal_page_first              1839
_journal_paper_doi               10.1039/C7QO00277G
_journal_volume                  4
_journal_year                    2017
_chemical_formula_sum            'C2 H4 N4 O'
_chemical_formula_weight         100.09
_chemical_name_common            N-Methylcarbamoyl
_space_group_crystal_system      orthorhombic
_space_group_IT_number           62
_space_group_name_Hall           '-P 2ac 2n'
_space_group_name_H-M_alt        'P n m a'
_atom_sites_solution_hydrogens   geom
_audit_creation_method           SHELXL-2014
_audit_update_record
;
2017-02-21 deposited with the CCDC.
2017-06-12 downloaded from the CCDC.
;
_cell_angle_alpha                90
_cell_angle_beta                 90
_cell_angle_gamma                90
_cell_formula_units_Z            4
_cell_length_a                   5.0951(4)
_cell_length_b                   6.0539(6)
_cell_length_c                   14.8931(15)
_cell_measurement_reflns_used    3181
_cell_measurement_temperature    273(2)
_cell_measurement_theta_max      27.498
_cell_measurement_theta_min      3.633
_cell_volume                     459.38(7)
_computing_structure_refinement  'SHELXL-2014 (Sheldrick, 2014)'
_diffrn_ambient_temperature      273(2)
_diffrn_measured_fraction_theta_full 0.987
_diffrn_measured_fraction_theta_max 0.990
_diffrn_measurement_device_type  graphite
_diffrn_radiation_type           MoK\a
_diffrn_radiation_wavelength     0.71073
_diffrn_reflns_av_R_equivalents  0.0217
_diffrn_reflns_av_unetI/netI     0.0156
_diffrn_reflns_Laue_measured_fraction_full 0.987
_diffrn_reflns_Laue_measured_fraction_max 0.990
_diffrn_reflns_limit_h_max       6
_diffrn_reflns_limit_h_min       -6
_diffrn_reflns_limit_k_max       7
_diffrn_reflns_limit_k_min       -7
_diffrn_reflns_limit_l_max       19
_diffrn_reflns_limit_l_min       -19
_diffrn_reflns_number            3181
_diffrn_reflns_point_group_measured_fraction_full 0.987
_diffrn_reflns_point_group_measured_fraction_max 0.990
_diffrn_reflns_theta_full        25.242
_diffrn_reflns_theta_max         27.498
_diffrn_reflns_theta_min         3.633
_exptl_absorpt_coefficient_mu    0.119
_exptl_absorpt_correction_type   multi-scan
_exptl_absorpt_process_details   'SADABS, BRUKER'
_exptl_crystal_colour            colorless
_exptl_crystal_density_diffrn    1.447
_exptl_crystal_description       needle
_exptl_crystal_F_000             208
_exptl_crystal_recrystallization_method Sublimation
_exptl_crystal_size_max          0.500
_exptl_crystal_size_mid          0.100
_exptl_crystal_size_min          0.100
_exptl_transmission_factor_max   0.988
_exptl_transmission_factor_min   0.986
_refine_diff_density_max         0.458
_refine_diff_density_min         -0.392
_refine_diff_density_rms         0.056
_refine_ls_extinction_method     none
_refine_ls_goodness_of_fit_ref   2.174
_refine_ls_hydrogen_treatment    constr
_refine_ls_matrix_type           full
_refine_ls_number_parameters     47
_refine_ls_number_reflns         575
_refine_ls_number_restraints     0
_refine_ls_restrained_S_all      2.174
_refine_ls_R_factor_all          0.0512
_refine_ls_R_factor_gt           0.0451
_refine_ls_shift/su_max          0.000
_refine_ls_shift/su_mean         0.000
_refine_ls_structure_factor_coef Fsqd
_refine_ls_weighting_details
'w=1/[\s^2^(Fo^2^)+(0.0283P)^2^+0.0944P] where P=(Fo^2^+2Fc^2^)/3'
_refine_ls_weighting_scheme      calc
_refine_ls_wR_factor_gt          0.1313
_refine_ls_wR_factor_ref         0.1346
_reflns_Friedel_coverage         0.000
_reflns_number_gt                512
_reflns_number_total             575
_reflns_threshold_expression     'I > 2\s(I)'
_cod_data_source_file            c7qo00277g2.cif
_cod_data_source_block           A
_cod_depositor_comments
;
The following automatic conversions were performed:

data item '_exptl_absorpt_correction_type' value 'MULTI-SCAN' was
changed to 'multi-scan' in accordance with the
/home/saulius/struct/COD-crude-data/automatic-downloads/DataCite-retrospective/RSC/depositions/lib/dictionaries/cif_core.dic
dictionary named 'cif_core.dic' version 2.4.2 last updated on
2011-04-26.

Automatic conversion script
Id: cif_fix_values 6909 2019-04-08 15:41:33Z antanas 
;
_cod_database_code               1553781
_shelx_space_group_comment
;
The symmetry employed for this shelxl refinement is uniquely defined
by the following loop, which should always be used as a source of
symmetry information in preference to the above space-group names.
They are only intended as comments.
;
_shelx_estimated_absorpt_t_min   0.943
_shelx_estimated_absorpt_t_max   0.988
_shelxl_version_number           2014-3
_shelx_res_file
;
REM  A in Pnma
REM R1 =  0.0286 for    512 Fo > 4sig(Fo)  and  0.0338 for all    575 data
REM     47 parameters refined using      0 restraints
REM Highest difference peak  0.199,  deepest hole -0.152,  1-sigma level  0.030
TITL A in Pnma
CELL 0.71073 5.0951 6.0539 14.8931 90.000 90.000 90.000
ZERR 4.0000 0.0004 0.0006 0.0015 0.000 0.000 0.000
LATT 1
SYMM 0.5-X, -Y, 0.5+Z
SYMM 0.5+X, 0.5-Y, 0.5-Z
SYMM -X, 0.5+Y, -Z
SFAC C H N O
UNIT 8 16 16 4
MERG 2
FMAP 2
GRID
PLAN 20
TEMP 0
BOND
L.S. 20
ACTA
WGHT    0.028300    0.094400
FVAR       0.77420
O1    4    0.480596    0.250000    0.539091    10.50000    0.01542    0.03798 =
         0.03479    0.00000    0.00571    0.00000
N3    3    0.766178    0.250000    0.415851    10.50000    0.01764    0.03375 =
         0.02738    0.00000    0.00146    0.00000
N4    3    0.923419    0.250000    0.557870    10.50000    0.01569    0.03407 =
         0.02767    0.00000    0.00315    0.00000
AFIX  43
H4A   2    1.071416    0.250000    0.530104    10.50000   -1.20000
AFIX   0
N2    3    0.566618    0.250000    0.367595    10.50000    0.02423    0.03101 =
         0.02892    0.00000    0.00228    0.00000
C1    1    0.705339    0.250000    0.509822    10.50000    0.01724    0.01927 =
         0.02865    0.00000    0.00368    0.00000
N1    3    0.401350    0.250000    0.317753    10.50000    0.03276    0.05844 =
         0.03503    0.00000   -0.00595    0.00000
C2    1    0.924720    0.250000    0.654966    10.50000    0.03006    0.03713 =
         0.02728    0.00000    0.00083    0.00000
AFIX  33
H2A   2    1.102647    0.250000    0.676174    10.50000   -1.50000
H2B   2    0.836189    0.379476    0.676592    10.50000   -1.50000
H2C   2    0.836189    0.120524    0.676592    10.50000   -1.50000

AFIX   0
HKLF 4

REM  A in Pnma
REM R1 =  0.0451 for     512 Fo > 4sig(Fo)  and  0.0512 for all     575 data
REM     43 parameters refined using      0 restraints

END

WGHT      0.0663      0.3900

REM Highest difference peak  0.458,  deepest hole -0.392,  1-sigma level  0.056
Q1    1   1.0093  0.1067  0.6776  11.00000  0.05    0.46
Q2    1   0.7467  0.2500  0.6725  10.50000  0.05    0.45
Q3    1   0.9136  0.2500  0.6062  10.50000  0.05    0.21
Q4    1   0.7354  0.2500  0.4638  10.50000  0.05    0.18
Q5    1   0.4048  0.2500  0.4697  10.50000  0.05    0.15
Q6    1   0.8261  0.1989  0.5366  11.00000  0.05    0.13
Q7    1   0.9820  0.2500  0.5494  10.50000  0.05    0.12
Q8    1   0.7011  0.2500  0.4019  10.50000  0.05    0.12
Q9    1   0.2868  0.2500  0.4920  10.50000  0.05    0.11
Q10   1   0.4752  0.2500  0.5896  10.50000  0.05    0.10
Q11   1   0.6118  0.2500  0.5212  10.50000  0.05    0.10
Q12   1   0.8653  0.2500  0.4065  10.50000  0.05    0.09
Q13   1   0.6138  0.1045  0.7403  11.00000  0.05    0.07
Q14   1   0.3349  0.2500  0.2579  10.50000  0.05    0.07
Q15   1   0.7259  0.0764  0.3597  11.00000  0.05    0.07
Q16   1   1.0272  0.0655  0.5213  11.00000  0.05    0.07
Q17   1   0.9190  0.2500  0.3185  10.50000  0.05    0.06
Q18   1   0.2452  0.1791  0.2900  11.00000  0.05    0.06
Q19   1   0.3923  0.1109  0.2834  11.00000  0.05    0.06
Q20   1   0.9606  0.0703  0.5009  11.00000  0.05    0.06
;
_shelx_res_checksum              18295
_shelx_hkl_file
;
  -1   0   0    0.02    0.10
  -1   0   0   -0.15    0.17
   1   0   0   -0.02    0.16
  -2   0   0  518.48    9.90
   2   0   0  507.87   10.09
   3   0   0    0.10    0.19
  -3   0   0    0.11    0.17
  -3   0   0    0.11    0.24
   3   0   0   -0.22    0.27
   4   0   0   46.08    1.17
   4   0   0   47.32    1.52
   5   0   0    0.08    0.29
   5   0   0    0.27    0.55
  -5   0   0    0.41    0.77
   6   0   0   83.48    2.48
  -1  -1   0   -0.01    0.12
   1  -1   0   -0.02    0.18
  -1  -1   0   -0.03    0.16
   1   1   0    0.05    0.16
  -2   1   0  419.44    8.35
  -2  -1   0  424.06    8.10
   2   1   0  417.82    8.23
   2  -1   0  419.94    8.31
  -2  -1   0  400.83    8.23
   2  -1   0  423.48    8.05
   3   1   0    0.23    0.27
  -3  -1   0    0.10    0.30
  -3  -1   0   -0.33    0.18
   3  -1   0   -0.24    0.15
  -3   1   0    0.31    0.53
   3  -1   0    0.09    0.35
  -4   1   0  142.61    3.56
   4   1   0  147.47    3.10
  -4  -1   0  148.48    3.48
   4  -1   0  149.53    3.03
  -4  -1   0  144.72    3.08
   4  -1   0  145.25    3.46
   5   1   0   -0.42    0.27
  -5   1   0   -0.33    0.63
   5  -1   0    0.34    0.51
   5  -1   0   -0.23    0.27
  -5  -1   0   -0.85    0.65
   5   1   0   -0.29    0.49
   6   1   0    0.14    0.45
   6  -1   0   -0.24    0.33
  -1   2   0   -0.08    0.21
  -1  -2   0   -0.09    0.12
   2  -2   0  244.67    4.69
  -2  -2   0  246.79    4.79
   2  -2   0  246.25    5.00
  -2  -2   0  240.86    4.83
   2   2   0  233.94    4.84
  -2   2   0  239.69    5.06
  -3  -2   0   -0.06    0.30
   3   2   0    0.24    0.37
   3  -2   0    0.09    0.15
   3  -2   0    0.00    0.37
  -3  -2   0    0.08    0.20
  -3   2   0   -0.07    0.36
   4  -2   0   32.34    0.85
   4  -2   0   33.62    1.39
  -4   2   0   31.70    1.47
   4   2   0   31.78    1.20
  -4  -2   0   31.58    0.97
  -4  -2   0   33.52    1.31
   5   2   0    0.02    0.36
   5  -2   0    0.30    0.80
   5   2   0   -0.86    0.52
   5  -2   0   -0.04    0.27
  -5   2   0   -0.32    0.61
   6   2   0   65.52    1.83
   6  -2   0   65.54    1.63
   0  -3   0    0.28    0.12
   0   3   0    0.22    0.17
  -1   3   0    0.03    0.24
  -1  -3   0    0.09    0.16
   1  -3   0    0.21    0.10
   2  -3   0  116.52    2.64
   2   3   0  113.78    2.38
   2  -3   0  118.58    2.28
  -2  -3   0  110.36    2.49
  -2   3   0  118.97    2.73
   3   3   0   -0.05    0.26
  -3   3   0   -0.41    0.40
  -3  -3   0    0.08    0.23
   3  -3   0    0.11    0.17
  -3  -3   0   -0.11    0.35
   3  -3   0    0.10    0.38
   4  -3   0   89.32    2.55
  -4  -3   0   85.96    2.06
  -4  -3   0   89.08    2.32
   4  -3   0   89.66    1.89
  -4   3   0   91.33    2.66
   5  -3   0   -0.35    0.28
   5   3   0   -0.43    0.39
   5   3   0   -0.15    0.77
  -5   3   0    0.34    0.91
  -5  -3   0    0.09    0.36
   6   3   0    0.53    0.49
   6  -3   0    0.02    0.38
   1  -4   0    0.05    0.13
  -1  -4   0   -0.02    0.19
  -1   4   0   -0.14    0.31
   2  -4   0   49.32    1.05
  -2   4   0   52.62    1.60
  -2  -4   0   51.76    1.24
   3   4   0   -0.18    0.24
  -3  -4   0    0.08    0.26
  -3   4   0    0.14    0.50
   3  -4   0   -0.05    0.16
  -4  -4   0   17.88    0.79
  -4   4   0   19.17    1.52
   4  -4   0   17.40    0.59
   4   4   0   17.22    0.84
  -5   4   0   -0.03    1.09
   0   5   0    8.52    0.58
   1  -5   0    0.32    0.19
  -1  -5   0    0.07    0.25
  -1   5   0    0.32    0.41
  -2  -5   0   22.94    0.77
  -3   5   0    0.17    0.61
  -3  -5   0    0.38    0.33
  -4   5   0   37.77    1.98
  -4  -5   0   38.40    1.23
  -5  -5   0    0.03    0.47
   5   5   0   -0.04    0.46
  -5   5   0   -1.09    1.04
   0  -6   0  498.45    9.93
   0   6   0  525.48   10.16
  -1   6   0    0.54    0.50
  -1  -6   0   -0.21    0.31
  -2  -6   0    8.14    0.63
  -2   6   0    9.17    1.07
  -3  -6   0    0.20    0.39
  -3   6   0    0.74    0.75
  -4   6   0    7.99    1.24
  -4  -6   0    7.70    0.77
   0   7   0   54.69    1.58
  -1   7   0    0.15    0.65
  -1  -7   0    1.29    0.41
  -2  -7   0    4.00    0.55
  -2   7   0    5.01    0.96
  -3  -7   0   -0.49    0.58
  -3   7   0   -1.13    0.93
   1   0  -1  196.22    3.82
  -1   0  -1  186.24    3.68
  -1   0  -1  189.05    3.78
   1   0   1  188.46    3.77
   1   0  -1  190.28    3.69
   2   0   1   31.34    0.92
  -2   0  -1   33.29    0.96
   2   0  -1   32.92    0.76
  -2   0  -1   33.50    0.76
   2   0  -1   32.05    0.96
  -3   0  -1   45.18    1.07
   3   0   1   44.20    1.29
   3   0  -1   44.91    1.07
  -3   0  -1   44.38    1.34
   3   0  -1   45.70    1.35
   4   0  -1   74.97    1.73
   4   0  -1   75.78    2.11
   4   0   1   76.88    1.74
  -4   0  -1   76.51    1.73
  -4   0  -1   76.05    2.17
   4   0   1   78.35    2.09
   5   0   1   62.33    1.58
  -5   0  -1   62.99    2.21
   5   0   1   65.21    2.06
   5   0  -1   65.23    1.58
   5   0  -1   63.76    2.08
   6   0  -1    7.98    0.95
   6   0   1    6.75    0.62
   0  -1  -1   75.82    1.50
   0   1   1   74.55    1.51
   2   1  -1   51.96    1.31
  -2  -1  -1   51.65    1.29
  -2  -1  -1   53.81    1.16
   2  -1   1   52.28    1.36
   2  -1   1   54.85    1.12
  -2  -1   1   51.73    1.33
  -2   1  -1   52.16    1.40
   2  -1  -1   54.31    1.12
   2   1   1   48.73    1.25
  -2  -1   1   55.41    1.17
   3  -1   1    6.81    0.34
   3   1  -1    7.29    0.55
   3   1  -1    6.79    0.39
  -3   1   1    6.41    0.69
  -3  -1  -1    7.01    0.60
  -3  -1  -1    6.81    0.39
   3  -1   1    5.75    0.64
   3  -1  -1    6.79    0.34
   3   1   1    6.54    0.53
   3  -1  -1    7.16    0.64
  -3  -1   1    6.95    0.64
  -3   1  -1    6.38    0.71
  -3  -1   1    7.67    0.39
   4  -1   1    1.67    0.27
  -4   1   1    1.22    0.64
  -4  -1  -1    1.89    0.52
  -4  -1  -1    1.99    0.32
   4   1  -1    2.26    0.51
   4  -1   1    1.33    0.41
   4   1  -1    1.57    0.30
  -4   1  -1    1.99    0.60
   4  -1  -1    2.22    0.54
   4   1   1    1.65    0.52
   4  -1  -1    1.92    0.27
   5   1  -1   44.40    1.25
  -5   1   1   41.56    1.85
  -5  -1  -1   41.26    1.70
   5  -1   1   45.84    1.76
   5   1  -1   45.84    1.69
   5  -1   1   45.03    1.18
  -5   1  -1   41.65    1.85
   5   1   1   44.00    1.63
   5   1   1   44.74    1.26
   5  -1  -1   44.36    1.19
   5  -1  -1   42.84    1.73
   6  -1   1    6.28    0.60
   6   1  -1    7.24    0.85
   6   1   1    7.71    0.67
   6  -1  -1    6.93    0.60
   0   2   1    0.29    0.16
   0  -2  -1    0.32    0.10
  -1   2   1  155.51    3.21
   1   2  -1  152.71    3.06
  -1  -2  -1  150.32    3.02
  -1   2  -1  149.28    3.17
   1  -2  -1  153.36    2.97
  -1  -2   1  155.84    3.02
  -2  -2  -1   19.69    0.57
  -2   2   1   18.72    0.85
   2  -2   1   20.21    0.47
   2  -2   1   19.26    0.79
   2   2  -1   19.91    0.75
  -2  -2  -1   19.91    0.63
   2   2   1   19.20    0.62
   2  -2  -1   20.12    0.49
  -2  -2   1   20.47    0.59
  -2  -2   1   19.85    0.72
  -2   2  -1   18.01    0.80
   2  -2  -1   19.67    0.79
   3  -2   1   27.39    1.07
  -3  -2  -1   27.03    0.79
  -3   2   1   27.28    1.18
  -3  -2  -1   27.44    0.95
   3  -2   1   28.25    0.68
   3   2  -1   25.40    0.94
  -3   2  -1   27.55    1.13
  -3  -2   1   27.86    0.79
  -3  -2   1   26.49    0.99
   3  -2  -1   29.99    1.13
   3  -2  -1   27.91    0.69
   3   2   1   29.09    1.05
  -4  -2  -1   55.85    1.44
   4  -2   1   59.25    1.32
  -4   2   1   58.12    1.97
  -4  -2  -1   57.88    1.76
   4  -2   1   61.69    1.88
   4   2  -1   56.15    1.69
  -4  -2   1   57.53    1.80
  -4   2  -1   60.27    1.95
  -4  -2   1   56.74    1.44
   4   2   1   55.19    1.66
   4  -2  -1   60.56    1.33
   5   2  -1   53.43    1.80
  -5   2   1   52.25    2.16
   5   2  -1   53.06    1.45
   5  -2   1   51.54    1.97
  -5  -2  -1   52.08    1.44
   5  -2   1   53.40    1.30
   5  -2  -1   52.33    1.30
  -5   2  -1   54.64    2.18
   5   2   1   52.70    1.75
   5  -2  -1   53.47    2.01
   6   2  -1    5.78    0.68
   6  -2   1    5.64    0.59
   6   2   1    5.51    0.65
   6  -2  -1    6.05    0.59
   0   3   1   61.32    1.36
   0  -3   1   60.82    1.24
   0  -3  -1   61.17    1.26
  -1   3   1  403.14    7.93
  -1  -3  -1  398.85    7.71
  -1   3  -1  389.26    7.90
   1  -3  -1  392.79    7.64
   1  -3  -1  389.20    7.84
  -1  -3   1  410.44    7.71
   2  -3   1   12.03    0.30
  -2  -3  -1   12.38    0.47
   2   3  -1   11.29    0.50
  -2   3   1   12.35    0.76
  -2   3  -1   12.15    0.73
   2  -3  -1   11.79    0.35
   2  -3  -1   11.54    0.69
   2   3   1   11.12    0.40
  -3  -3  -1    3.16    0.35
   3  -3   1    2.83    0.26
  -3   3   1    2.91    0.59
   3   3  -1    3.05    0.39
  -3  -3   1    2.55    0.32
   3  -3  -1    3.00    0.24
  -3   3  -1    3.63    0.60
   3  -3  -1    3.22    0.53
  -3  -3   1    2.93    0.50
   3   3   1    2.45    0.35
  -4  -3  -1    0.30    0.30
   4   3  -1   -0.19    0.40
  -4   3   1    0.58    0.55
  -4  -3  -1    0.28    0.54
   4  -3   1    0.40    0.23
   4  -3  -1   -0.03    0.21
  -4  -3   1    0.21    0.30
  -4   3  -1    0.29    0.64
  -4  -3   1    0.52    0.64
   4   3   1    0.50    0.38
   4  -3  -1   -0.56    0.68
  -5  -3  -1   30.49    1.08
  -5   3   1   30.18    1.91
   5  -3   1   31.07    0.88
   5   3  -1   31.12    1.11
  -5   3  -1   31.25    1.89
   5   3   1   33.45    1.66
   5  -3  -1   29.96    0.90
   6  -3   1    3.57    0.45
   6   3  -1    4.05    0.59
   6   3   1    3.55    0.60
   6  -3  -1    3.62    0.47
   0  -4   1   -0.09    0.17
   0   4   1    0.53    0.25
  -1   4   1   44.08    1.28
  -1  -4  -1   42.62    1.03
   1  -4  -1   43.46    0.94
  -1  -4   1   44.06    1.02
  -1   4  -1   43.00    1.27
  -2   4   1   10.93    0.84
  -2  -4  -1   10.19    0.51
  -2   4  -1   10.93    0.81
  -2  -4   1   10.43    0.51
   2  -4  -1   10.31    0.35
  -3  -4  -1    5.94    0.52
  -3   4   1    5.72    0.77
   3   4  -1    5.84    0.52
   3  -4  -1    6.37    0.34
  -3  -4   1    6.15    0.50
  -3   4  -1    5.60    0.76
   4   4  -1   32.51    1.16
  -4  -4  -1   32.14    1.06
  -4   4   1   33.32    1.72
  -4   4  -1   32.20    1.69
  -4  -4   1   31.79    1.04
   4  -4  -1   33.05    0.86
  -5   4   1   32.89    2.10
   5  -4  -1   32.28    0.92
  -5   4  -1   32.71    2.10
   0   5   1    7.32    0.59
   0  -5  -1    7.84    0.42
   0  -5   1    7.21    0.39
   0   5  -1    7.13    0.57
  -1   5   1  109.46    2.64
  -1  -5  -1  112.22    2.33
  -1  -5   1  107.76    2.42
   1  -5  -1  111.25    2.22
  -1   5  -1  108.12    2.63
  -2  -5  -1    4.92    0.49
  -2   5   1    4.12    1.21
  -2  -5   1    5.12    0.49
   2  -5  -1    5.50    0.32
  -3   5   1   -0.11    0.62
  -3  -5  -1    0.67    0.34
  -3   5  -1    1.44    0.69
  -3  -5   1    0.32    0.31
  -4   5   1    0.66    0.92
  -4  -5  -1    0.01    0.41
  -4  -5   1    0.10    0.37
  -4   5  -1    1.53    0.91
   5   5  -1   16.77    0.99
  -5   5   1   16.95    2.11
  -5  -5  -1   16.57    0.95
  -5   5  -1   14.45    1.91
   0   6  -1   -0.20    0.44
   0   6   1    0.64    0.44
   0  -6   1    1.15    0.29
   0  -6  -1    0.99    0.55
  -1   6   1    7.69    0.95
  -1  -6  -1    6.96    0.56
  -1   6  -1    6.47    0.69
  -1  -6   1    6.89    0.55
  -2   6   1    4.76    0.78
  -2  -6  -1    5.46    0.56
  -2  -6   1    5.23    0.47
  -2   6  -1    5.23    0.75
  -3  -6  -1    0.33    0.41
  -3   6   1    0.90    0.93
  -3   6  -1    0.73    0.76
  -3  -6   1    0.26    0.39
  -4   6   1   14.07    1.85
   4   6  -1   10.66    1.32
  -4  -6  -1   12.65    0.95
  -4   6  -1   14.26    1.51
   0   7  -1    0.60    0.51
   0   7  -1    0.06    0.52
  -1   7   1   32.07    1.58
  -1  -7  -1   36.89    1.10
  -1  -7   1   35.54    1.00
  -1   7  -1   32.53    1.50
  -2   7   1    1.80    0.87
  -2  -7  -1    1.79    0.48
  -2   7  -1    2.29    0.74
  -2  -7   1    1.41    0.44
  -3   7   1   -1.07    0.95
  -3   7  -1   -0.09    0.93
  -1   0  -2    2.04    0.17
   1   0  -2    2.76    0.18
   1   0  -2    1.97    0.27
   2   0   2    0.04    0.21
   2   0  -2    0.31    0.13
  -2   0  -2    0.01    0.14
  -2   0  -2    0.24    0.24
   2   0  -2    0.03    0.26
  -2   0   2   -0.05    0.14
  -3   0  -2  193.72    4.10
   3   0  -2  189.47    4.11
   3   0   2  189.65    4.03
  -3   0  -2  190.28    3.78
   3   0  -2  179.44    3.84
  -4   0  -2  141.45    3.37
   4   0   2  140.00    3.27
   4   0  -2  137.86    3.34
   4   0  -2  137.30    2.92
  -4   0  -2  139.05    2.92
   5   0   2   14.18    1.17
   5   0  -2   13.15    0.65
  -5   0  -2   14.83    1.26
   5   0   2   13.54    0.69
   5   0  -2   12.86    1.16
   6   0   2    1.63    0.48
   6   0  -2    1.59    0.42
   0   1  -2    0.19    0.19
   0   1   2    0.13    0.21
   0  -1  -2   -0.01    0.09
   0  -1  -2    0.01    0.17
  -2   1   2    6.83    0.59
  -2  -1  -2    6.11    0.44
  -2  -1  -2    5.61    0.31
   2   1  -2    6.35    0.32
   2   1  -2    6.07    0.51
  -2   1  -2    6.34    0.27
   2   1   2    5.79    0.40
  -2  -1   2    6.33    0.51
   2  -1  -2    9.42    0.89
  -2   1  -2    6.21    0.56
   2  -1  -2    6.47    0.28
   3   1  -2    0.33    0.19
   3  -1   2    0.46    0.40
   3   1  -2    0.00    0.31
  -3   1   2   -0.23    0.34
  -3  -1  -2    0.49    0.32
  -3  -1  -2    0.44    0.20
   3  -1  -2    0.10    0.31
  -3   1  -2    0.21    0.16
   3  -1  -2    0.08    0.16
   3   1   2    0.12    0.26
  -3   1  -2    0.50    0.37
  -4   1   2   51.11    1.79
   4  -1   2   51.46    1.22
   4   1  -2   50.84    1.60
   4  -1   2   52.10    1.67
   4   1  -2   50.19    1.29
  -4  -1  -2   48.68    1.27
  -4  -1  -2   51.00    1.64
   4  -1  -2   51.34    1.69
   4   1   2   50.59    1.55
  -4   1  -2   49.53    1.75
   4  -1  -2   51.49    1.23
   5  -1   2  162.25    3.33
   5   1  -2  160.15    3.86
  -5  -1  -2  156.38    3.40
  -5  -1  -2  150.34    3.84
  -5   1   2  156.27    4.15
   5   1  -2  154.89    3.40
   5   1   2  161.17    3.79
  -5   1  -2  154.17    4.04
   5  -1  -2  162.24    3.96
   5  -1  -2  161.31    3.39
   6  -1   2    3.08    0.45
   6   1   2    2.34    0.51
   6  -1  -2    2.79    0.45
  -1   2   2    4.86    0.47
   1   2  -2    5.12    0.42
  -1  -2  -2    5.54    0.27
   1  -2  -2    5.36    0.42
  -1   2  -2    5.28    0.41
  -1  -2   2    5.45    0.37
  -1  -2   2    5.73    0.26
   1  -2  -2    5.49    0.21
  -2  -2  -2    0.05    0.17
  -2  -2  -2    0.24    0.21
   2  -2   2    0.38    0.11
  -2   2   2    0.11    0.33
   2   2  -2    0.27    0.27
  -2   2  -2    0.08    0.24
  -2  -2   2    0.73    0.31
   2  -2  -2    0.40    0.14
  -2  -2   2    0.29    0.17
   2  -2  -2   -0.29    0.31
  -3  -2  -2  117.13    2.47
  -3   2   2  116.53    2.90
  -3  -2  -2  118.91    2.61
   3  -2   2  116.93    2.35
   3   2  -2  110.64    2.66
   3   2  -2  116.38    2.48
  -3  -2   2  115.77    2.47
   3  -2  -2  116.27    2.80
  -3   2  -2  116.23    2.85
   3   2   2  114.74    2.58
  -3  -2   2  118.77    2.72
   3  -2  -2  116.26    2.37
  -4  -2  -2  101.34    2.55
   4  -2   2  104.81    2.14
   4   2  -2   97.67    2.55
  -4   2   2  103.03    2.84
  -4  -2  -2  100.17    2.27
   4   2  -2  100.35    2.28
  -4  -2   2  104.73    2.67
  -4   2  -2  103.19    2.80
   4  -2  -2  101.72    2.16
   4  -2  -2  106.86    2.73
   4   2   2   95.70    2.46
  -5   2   2   12.04    1.43
   5   2  -2   11.54    0.70
   5   2  -2    8.95    0.99
   5  -2   2   12.29    0.56
  -5  -2  -2   10.46    0.69
  -5   2  -2   11.72    1.38
   5  -2  -2    9.77    0.54
   5  -2  -2   11.09    1.25
   6   2  -2    1.14    0.51
   6  -2   2    0.66    0.38
   6   2   2    0.47    0.50
   6  -2  -2    0.38    0.35
   0  -3   2    0.00    0.11
   0  -3  -2    0.03    0.13
   0   3   2    0.17    0.21
  -1  -3  -2  283.10    5.70
  -1   3   2  291.14    5.93
   1   3  -2  293.31    5.82
   1  -3  -2  299.73    5.86
   1  -3  -2  294.69    5.65
  -1  -3   2  293.98    5.69
  -1   3  -2  285.37    5.89
  -2  -3  -2    1.89    0.26
   2   3  -2    1.57    0.30
  -2   3   2    1.24    0.39
  -2  -3   2    1.25    0.31
   2  -3  -2    1.58    0.37
   2  -3  -2    1.80    0.18
  -2   3  -2    1.40    0.39
   3  -3   2   -0.24    0.15
  -3   3   2   -0.26    0.48
   3   3  -2    0.17    0.36
  -3  -3  -2    0.21    0.23
   3  -3  -2   -0.02    0.44
  -3   3  -2   -0.03    0.43
   3  -3  -2    0.12    0.19
  -3  -3   2    0.27    0.24
  -3  -3   2   -0.04    0.47
   4   3  -2   36.29    1.09
   4  -3   2   36.07    0.88
  -4  -3  -2   34.70    1.05
  -4  -3  -2   34.19    1.28
   4   3  -2   34.68    1.32
  -4   3   2   38.02    1.68
   4  -3  -2   34.99    1.55
  -4  -3   2   33.90    1.56
   4  -3  -2   35.18    0.91
  -4   3  -2   35.57    1.62
  -5   3   2   97.78    3.15
   5  -3   2   98.01    2.09
  -5  -3  -2   94.24    2.36
   5   3  -2   96.09    2.34
  -5   3  -2   98.43    3.13
   5  -3  -2   98.13    2.13
   6   3  -2    1.42    0.51
  -6  -3  -2    1.48    0.50
   6  -3   2    1.03    0.38
   6   3   2    0.01    0.50
   6  -3  -2    0.88    0.41
   0  -4   2  270.55    5.19
   0  -4  -2  264.58    5.23
   0   4   2  267.84    5.37
  -1   4   2    3.32    0.46
  -1  -4  -2    3.27    0.32
   1   4  -2    3.57    0.41
  -1  -4   2    3.15    0.27
   1  -4  -2    2.97    0.26
  -1   4  -2    2.47    0.40
  -2  -4  -2    0.11    0.24
  -2   4   2    0.06    0.45
   2   4  -2    0.39    0.25
  -2   4  -2   -0.11    0.42
  -2  -4   2   -0.04    0.24
   2  -4  -2   -0.14    0.38
   2  -4  -2    0.12    0.16
   3   4  -2   38.35    1.17
  -3   4   2   43.77    1.68
  -3  -4  -2   42.05    1.15
   3  -4  -2   41.86    0.96
  -3  -4   2   41.80    1.13
  -3   4  -2   42.78    1.61
   4   4  -2   47.45    1.37
  -4   4   2   51.30    2.30
   4   4  -2   47.41    1.47
   4  -4  -2   48.30    1.14
  -4   4  -2   46.08    1.99
  -5   4   2    6.56    1.25
  -5  -4  -2    6.36    0.71
   5  -4  -2    6.14    0.54
  -5   4  -2    5.44    1.19
   0   5   2    0.02    0.31
   0  -5   2    0.00    0.19
   0   5  -2   -0.05    0.28
   0  -5  -2    0.01    0.22
  -1   5   2   67.93    1.88
  -1  -5  -2   66.37    1.53
   1  -5  -2   67.35    1.44
  -1   5  -2   65.91    1.82
  -1  -5   2   67.03    1.49
  -2  -5  -2    0.24    0.28
  -2   5   2    0.04    0.64
   2  -5  -2    0.65    0.23
  -2   5  -2    0.49    1.03
  -2  -5   2    0.32    0.26
  -3   5   2    0.73    0.73
  -3  -5  -2    0.10    0.32
  -3  -5   2    0.20    0.34
  -3   5  -2    0.83    0.62
   3  -5  -2    0.94    0.23
  -4   5   2   18.08    1.68
   4   5  -2   18.76    0.87
   4   5  -2   18.38    0.94
  -4  -5  -2   18.91    1.02
  -4   5  -2   18.15    1.60
  -5   5   2   43.08    2.58
  -5  -5  -2   38.14    1.40
   5   5  -2   41.56    1.41
  -5   5  -2   42.89    2.52
   0  -6  -2   67.30    1.49
   0   6  -2   62.25    1.75
   0   6   2   64.13    1.69
   0   6  -2   63.89    1.72
  -1   6   2    1.01    0.63
  -1  -6  -2    1.02    0.33
   1  -6  -2    0.68    0.29
  -1  -6   2    0.69    0.32
  -1   6  -2    1.67    0.51
  -2   6   2    0.35    0.66
  -2  -6   2    2.22    0.39
  -2   6  -2    1.64    0.61
  -3  -6  -2   12.52    0.78
   3   6  -2   11.53    0.78
  -3   6   2   12.92    1.50
  -3   6  -2   12.31    1.42
  -3  -6   2   12.53    0.73
  -4   6   2   16.27    1.66
  -4  -6  -2   15.00    1.01
  -4   6  -2   15.77    1.80
   0   7  -2   -0.23    0.47
   0   7  -2   -0.66    0.53
   0  -7  -2    0.31    0.38
  -1  -7  -2   17.27    0.82
  -1   7   2   16.15    1.23
  -1   7  -2   15.78    1.22
   2   7  -2   -0.23    0.42
  -2   7   2   -0.71    0.64
  -2  -7  -2    0.20    0.46
  -2   7  -2    0.77    0.71
   0   0  -3   -0.09    0.09
   0   0  -3    0.18    0.25
   0   0   3    0.17    0.25
  -1   0   3    0.79    0.22
  -1   0  -3    1.19    0.12
   1   0  -3    1.29    0.13
   1   0  -3    0.42    0.24
   2   0  -3  316.69    6.29
   2   0  -3  304.74    6.00
  -2   0  -3  302.00    6.18
  -2   0  -3  306.97    5.98
  -3   0  -3   10.84    0.44
   3   0  -3   11.63    0.75
   3   0  -3   10.38    0.44
  -3   0  -3   11.31    0.70
   4   0  -3  222.81    4.98
  -4   0  -3  222.38    4.52
   4   0  -3  223.44    4.53
  -4   0  -3  224.96    4.98
  -5   0  -3  112.85    3.14
   5   0  -3  111.64    2.52
  -5   0  -3  114.40    2.57
   5   0   3  113.60    2.55
   5   0  -3  116.76    3.09
   6   0   3    0.93    0.46
   6   0  -3    1.43    0.42
   0  -1  -3  142.68    2.85
   0   1  -3  150.58    3.15
   0   1   3  140.75    3.10
   0  -1  -3  150.37    3.00
  -1  -1  -3   70.60    1.57
   1   1  -3   70.17    1.65
   1   1  -3   70.88    1.46
  -1  -1  -3   71.18    1.46
   1  -1  -3   74.05    1.45
   1  -1  -3   71.67    1.66
   2   1  -3  545.04   10.75
  -2   1   3  540.84   10.84
  -2  -1  -3  532.74   10.51
   2   1  -3  538.67   10.52
  -2  -1  -3  539.74   10.64
   2  -1  -3  551.98   10.81
   2  -1  -3  551.16   10.49
  -2   1  -3  553.36   10.46
  -3  -1  -3   64.79    1.65
   3   1  -3   63.69    1.72
  -3  -1  -3   62.57    1.42
  -3   1   3   61.87    1.84
   3   1  -3   63.04    1.42
  -3   1  -3   63.32    1.36
  -3   1  -3   62.07    1.75
   3  -1  -3   56.54    1.43
   4   1  -3    9.24    0.84
  -4   1   3    8.86    1.07
   4   1  -3    9.74    0.54
  -4  -1  -3   10.07    0.53
  -4  -1  -3    9.13    0.90
  -4   1  -3    9.17    1.02
  -4   1  -3    9.94    0.47
   4  -1  -3    8.67    0.48
   4  -1  -3    9.41    1.00
   5   1  -3   24.90    1.35
  -5   1   3   25.55    1.70
   5   1  -3   24.40    0.89
   5  -1   3   24.34    0.82
  -5  -1  -3   25.62    0.91
  -5  -1  -3   24.10    1.32
   5  -1  -3   24.93    1.45
   5  -1  -3   23.67    0.83
  -5   1  -3   24.24    1.58
   6   1  -3    3.31    0.54
   6  -1   3    4.15    0.50
   6   1   3    3.51    0.61
   6  -1  -3    3.81    0.66
   0   2  -3   -0.06    0.12
   0  -2  -3    0.06    0.11
   0  -2  -3    0.12    0.19
   0   2   3   -0.05    0.22
   0   2  -3   -0.08    0.21
  -1   2   3    2.54    0.32
   1   2  -3    3.42    0.39
  -1  -2  -3    3.36    0.25
   1   2  -3    3.08    0.22
   1  -2  -3    3.58    0.40
   1  -2  -3    2.75    0.20
  -1  -2   3    3.32    0.35
  -2   2   3  185.66    4.03
  -2  -2  -3  183.35    3.72
   2   2  -3  183.25    3.88
   2  -2   3  186.55    3.58
  -2  -2  -3  179.33    3.69
   2   2  -3  181.77    3.69
   2  -2  -3  189.81    4.00
  -2  -2   3  186.78    3.91
  -2   2  -3  177.95    3.94
   2  -2  -3  188.25    3.63
   3  -2   3    2.90    0.27
  -3  -2  -3    3.14    0.41
   3   2  -3    2.21    0.28
   3   2  -3    2.76    0.43
  -3   2   3    2.94    0.55
  -3  -2  -3    3.49    0.32
  -3   2  -3    3.61    0.56
   3  -2  -3    2.42    0.28
   3  -2  -3    2.76    0.51
  -3  -2   3    3.08    0.53
  -4  -2  -3  167.09    3.54
  -4  -2  -3  172.09    3.82
   4  -2   3  169.28    3.41
  -4   2   3  170.32    4.15
   4   2  -3  162.19    3.85
   4   2  -3  164.26    3.54
   4  -2  -3  164.69    3.43
  -4  -2   3  170.70    3.97
   4  -2  -3  172.28    4.01
  -4   2  -3  170.87    4.07
   5  -2   3   88.32    1.96
   5   2  -3   90.39    2.13
  -5   2   3   91.14    2.97
  -5  -2  -3   88.25    2.13
  -5   2  -3   91.60    2.86
   5  -2  -3   83.68    2.70
   5  -2  -3   87.80    2.08
   6  -2   3    0.61    0.40
   6   2  -3    0.57    0.48
  -6  -2  -3    0.91    0.51
   6  -2  -3    1.04    0.38
   6   2   3    0.62    0.51
   0   3   3   48.47    1.19
   0  -3  -3   48.88    1.09
   0  -3  -3   48.52    1.05
   0   3  -3   47.38    0.99
   1   3  -3   32.34    0.78
  -1  -3  -3   31.17    0.80
  -1   3   3   33.46    1.05
  -1   3  -3   32.73    0.99
   1  -3  -3   34.00    0.99
   1  -3  -3   33.05    0.74
   2   3  -3  211.03    4.32
  -2   3   3  209.55    4.53
  -2  -3  -3  206.75    4.16
   2   3  -3  184.53    4.24
  -2   3  -3  209.40    4.46
   2  -3  -3  214.16    4.45
   2  -3  -3  213.87    4.07
  -3  -3  -3   46.16    1.20
   3   3  -3   44.71    1.40
  -3  -3  -3   46.64    1.20
  -3   3   3   50.30    1.68
   3  -3   3   45.02    0.99
   3   3  -3   46.49    1.19
   3  -3  -3   44.86    1.56
   3  -3  -3   41.50    1.12
  -3   3  -3   48.02    1.60
  -3  -3   3   53.78    1.57
  -4   3   3    4.52    0.82
   4   3  -3    5.77    0.50
   4  -3   3    4.68    0.39
   4   3  -3    3.93    0.60
  -4  -3  -3    4.51    0.44
  -4  -3  -3    5.73    0.64
   4  -3  -3    4.85    0.42
  -4   3  -3    4.83    0.84
  -4  -3   3    6.01    0.92
   4  -3  -3    4.92    0.91
   5  -3   3   15.44    0.62
  -5   3   3   15.73    1.78
   5   3  -3   15.28    1.07
  -5  -3  -3   15.09    1.26
   5  -3  -3   16.57    0.74
  -5   3  -3   15.07    1.54
   6  -3   3    2.44    0.40
   6   3  -3    2.96    0.56
  -6  -3  -3    4.42    0.61
   6  -3  -3    2.95    0.47
   0  -4  -3    0.09    0.18
   0   4   3    0.30    0.26
   0   4  -3    0.13    0.13
   1   4  -3    0.85    0.20
   1   4  -3    0.33    0.36
  -1   4   3    0.75    0.36
  -1  -4  -3    0.56    0.21
   1  -4  -3    0.90    0.32
   1  -4  -3    0.47    0.17
  -1   4  -3    0.13    0.29
  -2   4   3   54.23    1.69
   2   4  -3   54.34    1.40
   2   4  -3   53.85    1.27
  -2  -4  -3   53.57    1.30
   2  -4  -3   50.51    1.62
   2  -4  -3   54.03    1.17
  -2   4  -3   52.96    1.63
  -2  -4   3   52.72    1.27
   3   4  -3   -0.23    0.32
   3   4  -3    0.23    0.28
  -3   4   3   -0.39    0.58
  -3  -4  -3    0.27    0.31
  -3   4  -3    0.24    0.56
  -4  -4  -3   80.42    1.97
   4   4  -3   80.51    2.13
   4   4  -3   80.70    1.96
   4  -4  -3   81.60    1.76
  -4  -4   3   76.37    2.15
  -4   4  -3   83.61    2.65
  -5   4   3   48.19    2.53
  -5  -4  -3   44.96    1.48
   5   4  -3   44.78    1.71
   5  -4  -3   48.17    1.21
   0   5  -3    7.53    0.32
   0   5  -3    8.12    0.70
   0   5  -3    7.52    0.60
   0  -5  -3    7.95    0.44
   0   5   3    7.48    0.65
  -1  -5  -3    8.72    0.51
   1   5  -3    9.34    0.45
  -1   5   3    8.94    0.84
   1   5  -3    7.82    0.76
   1  -5  -3    9.71    0.44
  -1   5  -3    9.25    0.77
   2   5  -3   51.90    1.37
  -2  -5  -3   52.24    1.33
  -2   5   3   54.81    1.88
   2   5  -3   52.81    1.30
  -2   5  -3   52.14    1.80
   2  -5  -3   51.93    1.18
  -3   5   3   23.89    1.55
   3   5  -3   21.09    0.93
   3   5  -3   22.94    0.89
  -3  -5  -3   22.96    0.87
  -3   5  -3   22.94    1.41
   4   5  -3    2.12    0.47
  -4  -5  -3    2.95    0.60
  -4   5   3    1.67    0.97
   4   5  -3    2.32    0.50
  -4   5  -3    0.98    0.75
  -5  -5  -3    7.92    0.75
  -5   5   3    6.74    1.38
  -5   5  -3    9.20    1.58
   0   6  -3    0.31    0.40
   0   6   3   -0.09    0.47
   0  -6  -3   -0.19    0.30
   0   6  -3    0.08    0.48
   1   6  -3    0.05    0.30
  -1  -6  -3    0.05    0.33
  -1   6   3    0.60    0.53
   1   6  -3    0.94    0.28
   1  -6  -3    0.41    0.30
  -1   6  -3   -0.03    0.45
  -2   6   3   11.81    1.17
   2   6  -3   13.30    0.66
  -2  -6  -3   13.68    0.71
  -2   6  -3   14.60    1.15
  -3   6   3    0.64    0.80
   3   6  -3   -0.31    0.37
  -3  -6  -3    0.23    0.42
  -3   6  -3    0.21    0.81
  -4   6   3   30.57    2.05
  -4  -6  -3   27.28    1.18
  -4   6  -3   24.17    1.93
   0   7  -3    1.44    0.54
   0  -7  -3    0.63    0.39
   0   7  -3    1.28    0.67
  -1   7   3    3.12    0.82
  -1   7  -3    2.68    0.68
  -2  -7  -3   12.62    0.84
   2   7  -3   13.14    1.10
  -2   7   3   11.94    1.29
  -2   7  -3   11.99    1.24
   0   0  -4  122.58    2.46
   0   0  -4  128.01    2.74
  -1   0  -4  347.37    6.60
   1   0  -4  336.08    6.60
  -2   0  -4   13.51    0.42
  -2   0   4   13.09    0.73
   2   0  -4   13.93    0.44
  -2   0  -4   13.33    0.60
   2   0  -4   12.99    0.73
  -3   0  -4    2.55    0.43
   3   0  -4    3.78    0.32
   3   0  -4    3.28    0.50
  -3   0  -4    3.91    0.35
  -4   0  -4   18.60    0.65
  -4   0  -4   18.48    1.12
   4   0  -4   19.28    1.13
   4   0  -4   17.83    0.66
  -4   0   4   16.55    1.25
  -5   0  -4   11.20    0.60
  -5   0  -4   11.48    1.29
   5   0  -4   10.29    0.61
   6   0   4   39.20    1.54
   6   0  -4   39.37    1.69
   0   1  -4    0.13    0.08
   0  -1   4    0.11    0.14
   0   1   4    0.18    0.29
   0  -1  -4    0.10    0.10
   0   1  -4    0.01    0.27
   0  -1  -4   -0.06    0.24
   1   1  -4  584.99   11.52
  -1   1   4  577.81   11.39
  -1  -1  -4  567.25   11.12
   1   1  -4  585.90   11.11
  -1   1  -4  568.03   11.07
   1  -1  -4  585.42   11.36
   1  -1  -4  576.68   11.11
   2   1  -4    2.50    0.23
  -2  -1  -4    1.82    0.28
  -2   1   4    3.83    1.00
  -2  -1  -4    2.12    0.23
   2   1  -4    1.80    0.35
   2  -1  -4    2.09    0.20
   2  -1  -4    2.37    0.44
  -2   1  -4    2.37    0.18
  -3  -1  -4   10.98    0.68
   3   1  -4   10.90    0.78
  -3   1   4   10.04    0.87
  -3  -1  -4   10.23    0.47
   3   1  -4   10.48    0.46
   3  -1  -4   10.42    0.43
  -3   1  -4   10.17    0.80
  -3  -1   4   10.99    0.95
  -3   1  -4   10.30    0.40
   3  -1  -4    9.94    0.82
  -4  -1  -4   80.86    1.88
   4   1  -4   83.49    2.32
  -4  -1  -4   84.11    2.27
  -4   1   4   81.21    2.49
   4   1  -4   83.05    1.89
   4  -1  -4   87.37    2.42
  -4   1  -4   83.76    1.83
   4  -1  -4   82.79    1.84
  -4  -1   4   80.74    2.39
  -4   1  -4   83.31    2.39
   5   1  -4   18.52    0.78
  -5  -1  -4   19.09    0.80
   5   1  -4   20.53    1.69
   5  -1   4   19.96    0.76
  -5   1   4   21.81    1.68
   5  -1  -4   19.71    0.74
   5  -1  -4   18.79    1.44
  -5  -1   4   19.18    1.51
  -5   1  -4   20.02    1.50
   6   1  -4    0.92    0.48
   6  -1   4    0.43    0.39
  -6  -1  -4    0.83    0.61
   6  -1  -4    0.50    0.41
   0   2  -4   47.94    1.28
   0   2  -4   46.48    0.96
   0  -2  -4   48.33    1.17
   0  -2  -4   47.72    1.02
   0   2   4   46.64    1.22
  -1  -2  -4  152.63    3.12
   1   2  -4  144.52    3.27
  -1   2   4  147.31    3.29
   1   2  -4  151.96    3.01
  -1  -2  -4  152.35    3.04
  -1  -2   4  152.00    3.24
   1  -2  -4  156.20    3.01
   1  -2  -4  157.40    3.27
   1   2   4  153.52    3.12
  -2  -2  -4    9.72    0.49
  -2  -2  -4    9.45    0.57
  -2   2   4    9.81    0.73
   2   2  -4   10.35    0.64
   2   2  -4   10.43    0.41
  -2  -2  -4    7.91    0.46
  -2   2  -4    9.75    0.64
  -2  -2   4   10.70    0.76
   2  -2  -4   10.49    0.38
  -2   2  -4    9.94    0.30
   2  -2  -4   11.00    0.73
   3   2  -4    2.46    0.29
  -3  -2  -4    2.73    0.30
  -3  -2  -4    3.33    0.44
  -3   2   4    3.38    0.63
   3   2  -4    2.56    0.45
  -3  -2   4    3.14    0.63
  -3   2  -4    3.31    0.56
   3  -2  -4    2.60    0.26
   3  -2  -4    3.11    0.59
  -3   2  -4    3.04    0.26
   4   2  -4   13.84    0.66
   4  -2   4   14.42    0.55
   4   2  -4   12.89    0.98
  -4   2   4   14.05    1.25
  -4  -2  -4   13.80    1.02
  -4  -2  -4   14.25    0.66
   4  -2  -4   14.86    1.12
  -4  -2   4   15.37    1.24
   4  -2  -4   14.72    0.57
  -4   2  -4   15.21    1.17
   5  -2   4    8.92    0.55
   5   2  -4    8.06    0.62
  -5  -2  -4    7.17    0.66
  -5   2   4    7.01    1.22
  -5   2  -4    6.62    1.12
   5  -2  -4    6.87    0.97
   5  -2  -4    8.30    0.53
  -6  -2  -4   32.05    1.23
   6  -2   4   33.46    1.06
   6   2  -4   32.16    1.18
   6  -2  -4   32.79    1.11
   0  -3  -4    0.05    0.15
   0  -3  -4   -0.01    0.20
   0   3  -4   -0.16    0.09
   0   3   4   -0.41    0.28
   0   3  -4    0.23    0.30
   1   3  -4  140.73    3.09
  -1   3   4  131.19    3.03
   1   3  -4  136.35    2.73
  -1  -3  -4  135.52    2.77
   1   3   4  135.31    2.81
   1  -3  -4  139.37    2.98
   1  -3  -4  134.87    2.72
   2   3  -4    1.07    0.22
  -2  -3  -4    1.20    0.24
  -2   3   4    0.76    0.44
   2   3  -4    0.85    0.42
   2  -3  -4    1.19    0.18
  -2  -3   4    1.12    0.39
  -2   3  -4    0.84    0.37
   2  -3  -4    1.26    0.47
  -3  -3  -4    2.81    0.35
   3   3  -4    2.41    0.33
  -3  -3  -4    2.79    0.39
   3  -3   4    2.43    0.24
  -3   3   4    2.11    0.63
  -3  -3  -4    3.15    0.54
  -3  -3   4    2.09    1.15
  -3   3  -4    2.64    0.60
   3  -3  -4    1.33    0.51
   3  -3  -4    3.04    0.27
   4   3  -4   53.72    1.42
  -4  -3  -4   55.05    1.62
  -4   3   4   54.87    2.08
   4  -3   4   54.61    1.22
  -4  -3  -4   52.88    1.44
  -4   3  -4   56.15    2.01
  -4  -3   4   53.56    2.04
   4  -3  -4   54.62    1.28
   5   3  -4   14.91    0.96
   5  -3   4   13.32    0.59
  -5   3   4   13.12    1.46
   5  -3  -4   12.57    0.62
  -5   3  -4   12.43    1.57
   0   4   4    8.06    0.61
   0  -4  -4    7.74    0.38
   0   4  -4    7.23    0.26
   0   4  -4    7.58    0.72
  -1  -4  -4   28.34    0.78
  -1   4   4   28.26    1.07
   1   4  -4   27.00    0.70
   1   4  -4   27.66    1.11
  -1   4  -4   28.95    1.00
   1  -4  -4   27.97    0.71
   1  -4  -4   27.38    0.95
   2   4  -4    6.63    0.43
  -2  -4  -4    7.20    0.48
   2   4  -4    6.86    0.63
  -2   4   4    6.94    0.87
  -2   4  -4    6.17    0.73
   2  -4  -4    7.53    0.38
   3   4  -4    1.66    0.34
   3   4  -4    2.05    0.45
  -3   4   4    1.69    0.68
  -3  -4   4    1.49    0.49
   3  -4  -4    1.66    0.25
  -3   4  -4    2.32    0.67
  -4   4   4    9.86    1.20
  -4  -4  -4    9.84    0.70
   4   4  -4    9.51    0.67
   4   4  -4    9.77    0.90
  -4  -4   4    8.37    1.09
   4  -4  -4    7.61    0.50
  -4   4  -4    7.62    1.02
  -5  -4  -4    2.78    0.53
   5   4  -4    4.12    0.61
  -5   4   4    3.78    1.21
  -5   4  -4    3.46    1.23
   5  -4  -4    3.68    0.41
   0   5   4   -0.08    0.44
   0   5  -4   -0.18    0.43
   0  -5  -4    0.34    0.24
   1   5  -4   29.02    0.74
  -1  -5  -4   28.04    0.82
   1   5  -4   27.51    1.18
  -1   5   4   26.25    1.70
   1  -5  -4   28.29    0.77
  -1   5  -4   25.63    1.09
  -2  -5  -4    0.60    0.31
  -2   5   4    0.70    0.58
   2   5  -4    1.14    0.41
   2   5  -4    0.80    0.28
   2  -5  -4    0.93    0.24
  -2   5  -4    0.57    0.54
  -3  -5  -4    0.62    0.36
   3   5  -4    0.81    0.40
  -3   5   4    0.32    0.70
   3   5  -4    0.92    0.33
  -3   5  -4    0.50    0.64
   3  -5  -4    0.69    0.28
   4   5  -4   27.25    1.04
  -4  -5  -4   26.02    1.07
   4   5  -4   26.80    1.16
  -4   5   4   26.88    1.96
  -4   5  -4   23.86    1.69
   4  -5  -4   27.18    0.80
   0   6   4    1.44    0.52
   0   6  -4    2.17    0.60
   0  -6  -4    1.55    0.32
   0   6  -4    0.99    0.41
   1   6  -4    5.90    0.72
  -1  -6  -4    5.35    0.55
   1   6  -4    4.60    0.47
  -1   6   4    4.98    0.73
   1  -6  -4    5.68    0.50
  -1   6  -4    5.28    0.62
  -2  -6  -4    3.78    0.46
  -2   6   4    4.37    0.80
   2   6  -4    4.27    0.41
  -2   6  -4    4.95    0.75
   2  -6  -4    5.34    0.49
   3   6  -4    0.76    0.40
  -3   6   4   -0.54    0.78
  -3  -6  -4    0.65    0.45
  -3   6  -4    0.68    0.89
  -4  -6  -4    1.34    0.55
   4   6  -4    2.31    0.85
  -4   6   4    1.08    1.09
  -4   6  -4    1.57    0.98
   0   7  -4   -0.35    0.52
   0  -7  -4   -0.25    0.37
   0   7  -4   -0.15    0.68
   1   7  -4    5.45    0.70
  -1   7   4    7.05    0.89
  -1  -7  -4    6.11    0.55
  -1   7  -4    5.65    0.77
  -2  -7  -4    0.54    0.48
  -2   7   4   -1.11    0.78
   2   7  -4    0.15    0.39
  -2   7  -4    0.36    0.75
   0   0  -5    6.29    0.75
   0   0   5    5.93    0.60
  -1   0  -5  119.70    2.38
   1   0  -5  118.43    2.39
  -1   0  -5  120.01    2.64
   2   0  -5    0.76    0.35
   2   0  -5    1.46    0.19
  -2   0  -5    1.04    0.18
  -2   0   5    1.21    0.51
  -3   0   5   31.58    1.33
  -3   0  -5   33.20    1.17
   3   0  -5   34.53    1.30
  -3   0  -5   34.19    0.86
   3   0  -5   33.78    0.88
  -4   0  -5   10.20    0.96
  -4   0   5   12.31    1.51
   4   0  -5   10.00    1.06
  -4   0  -5   10.29    0.52
   4   0  -5   10.66    0.54
  -5   0   5   17.01    1.71
  -5   0  -5   17.34    1.43
   5   0  -5   15.35    0.70
   5   0  -5   16.74    1.83
  -5   0  -5   18.15    0.73
   6   0   5    1.83    0.86
   6   0  -5    1.23    0.47
   0   1   5  997.79   19.38
   0  -1  -5 1000.00   19.34
   0   1  -5  994.13   19.42
  -1   1   5  141.02    3.17
   1   1  -5  143.27    3.16
  -1  -1  -5  143.29    2.85
   1   1  -5  140.76    2.84
  -1  -1  -5  145.87    3.12
   1  -1  -5  142.45    2.84
   1  -1  -5  144.81    3.14
  -1  -1   5  140.10    3.18
  -1   1  -5  145.24    2.80
  -2  -1  -5  515.35   10.01
  -2  -1  -5  497.92    9.84
   2   1  -5  512.73   10.18
   2   1  -5  506.92    9.85
   2  -1  -5  506.30    9.83
  -2  -1   5  512.08   10.22
  -2   1  -5  505.45    9.79
   3   1  -5   86.03    2.29
   3   1  -5   86.84    1.93
  -3  -1  -5   89.23    2.16
  -3   1   5   88.64    2.43
  -3  -1  -5   88.62    1.93
  -3   1  -5   90.35    2.30
  -3  -1   5   87.84    2.37
   3  -1  -5   89.82    1.90
   3  -1  -5   90.16    2.38
  -3   1  -5   90.19    1.87
  -4  -1  -5    0.22    0.44
  -4   1   5    1.31    0.71
   4   1  -5    0.88    0.28
   4   1  -5    0.61    0.54
  -4  -1  -5    0.82    0.29
  -4   1  -5    0.45    0.58
  -4  -1   5    1.06    0.74
   4  -1  -5    0.03    0.54
  -4   1  -5    0.93    0.25
   4  -1  -5    0.83    0.26
  -5   1   5   36.44    2.09
  -5  -1  -5   35.47    1.10
   5  -1  -5   34.91    1.03
  -5   1  -5   35.39    1.01
  -5   1  -5   33.57    1.80
   5  -1  -5   35.70    1.78
   6   1  -5    0.21    0.43
   6  -1   5    0.10    0.40
   0   2   5    0.23    0.36
   0  -2  -5   -0.19    0.14
   0  -2  -5    0.10    0.26
   0   2  -5    0.17    0.10
   1   2  -5   96.55    1.91
  -1   2   5   92.23    2.26
   1   2  -5   91.07    2.25
  -1  -2  -5   93.68    2.11
  -1  -2  -5   93.38    1.94
   1   2   5   92.65    2.09
   1  -2  -5   91.49    2.19
  -1   2  -5   96.38    1.84
   1  -2  -5   94.09    1.92
  -1  -2   5   94.06    2.21
  -2   2   5    0.50    0.40
  -2  -2  -5    0.36    0.24
   2   2  -5    0.31    0.20
  -2  -2  -5    0.48    0.19
   2   2  -5    0.69    0.36
  -2  -2  -5    0.19    0.34
  -2   2  -5    0.58    0.13
  -2   2  -5    0.34    0.30
   2  -2  -5    0.23    0.37
  -2  -2   5    0.00    0.38
   2  -2  -5    0.63    0.18
  -3  -2  -5   22.27    0.73
  -3   2   5   23.34    1.23
   3   2  -5   22.45    0.70
   3   2  -5   21.74    1.04
  -3  -2  -5   21.85    0.90
  -3   2  -5   21.73    1.06
   3  -2  -5   22.50    0.66
  -3   2  -5   22.78    0.59
   3  -2  -5   21.85    1.14
  -3  -2   5   23.04    1.22
  -4  -2  -5    7.57    0.86
   4   2  -5    7.12    0.95
  -4   2   5    9.66    1.12
  -4  -2  -5    7.46    0.96
   4   2  -5    7.08    0.56
   4  -2   5    7.35    0.47
   4  -2  -5    5.14    0.65
  -4  -2   5    8.42    1.01
  -4   2  -5    7.80    0.89
   4  -2  -5    8.02    0.46
   5   2  -5   15.65    0.76
  -5   2   5   15.02    1.68
   5  -2   5   16.59    0.68
  -5  -2  -5   15.14    0.77
   5  -2  -5   15.27    1.53
  -5   2  -5   18.44    1.61
   5  -2  -5   15.27    0.67
  -6  -2  -5    1.66    0.51
   6  -2   5    1.45    0.44
   6   2  -5    0.68    0.43
   6  -2  -5    0.64    0.44
   0   3  -5  428.63    8.53
   0  -3  -5  416.78    8.20
   0   3   5  424.98    8.44
   0   3  -5  417.65    8.10
   0  -3  -5  422.07    8.31
   1   3  -5   42.77    1.39
  -1  -3  -5   44.18    1.04
   1   3  -5   44.13    0.98
  -1   3   5   42.66    1.33
   1  -3  -5   44.27    1.00
   1   3   5   44.86    1.17
   1  -3  -5   44.52    1.28
   2   3  -5  218.30    4.35
  -2   3   5  217.08    4.82
   2   3  -5  208.96    4.86
  -2  -3  -5  217.96    4.39
   2  -3  -5  221.99    4.73
  -2  -3   5  222.28    4.65
  -2   3  -5  219.11    4.70
   3   3  -5   41.65    1.10
  -3  -3  -5   42.24    1.18
   3   3  -5   42.04    1.47
   3  -3   5   40.58    0.90
  -3  -3  -5   42.31    1.14
  -3   3   5   44.28    1.69
  -3   3  -5   41.78    1.54
   3  -3  -5   41.99    1.02
  -3  -3   5   42.05    1.66
  -4  -3  -5    1.18    0.35
   4   3  -5    0.20    0.31
  -4   3   5   -0.06    0.71
  -4  -3  -5    0.94    0.53
   4   3  -5    1.04    0.64
   4  -3   5    0.41    0.25
   4  -3  -5    0.38    0.27
  -4   3  -5    0.75    0.67
   5   3  -5   23.61    0.97
  -5   3   5   23.58    2.09
   5  -3   5   21.56    0.72
  -5  -3  -5   21.15    0.97
  -5   3  -5   23.09    1.79
   5  -3  -5   21.35    0.78
   0  -4  -5    0.40    0.21
   0   4   5   -0.12    0.34
   0  -4  -5    0.11    0.23
   0   4  -5   -0.65    0.42
   0   4  -5   -0.22    0.12
   1   4  -5   23.71    1.18
   1   4  -5   27.34    0.67
  -1  -4  -5   27.00    0.76
  -1   4   5   25.21    1.08
   1  -4  -5   23.78    0.96
   1  -4  -5   25.96    0.69
   1   4   5   27.68    0.87
   2   4  -5    0.16    0.21
  -2  -4  -5   -0.01    0.25
  -2   4   5   -0.11    0.48
   2   4  -5    0.01    0.44
  -2   4  -5   -0.08    0.39
   2  -4  -5    0.20    0.20
  -3  -4  -5   11.33    0.64
  -3   4   5   11.26    1.25
   3   4  -5   11.21    0.58
   3   4  -5   12.12    0.89
  -3  -4   5   11.06    0.97
   3  -4  -5   11.38    0.50
  -3   4  -5   12.53    1.13
  -4   4   5    2.14    0.94
   4   4  -5    2.45    0.59
   4   4  -5    3.54    0.45
  -4  -4  -5    2.78    0.45
  -4   4  -5    3.46    0.87
   4  -4  -5    3.67    0.35
  -5   4   5   15.10    1.61
  -5  -4  -5   10.45    0.84
   5   4  -5   10.88    0.88
   5  -4  -5   11.77    0.64
  -5   4  -5   15.81    1.85
   0   5   5   92.63    2.27
   0  -5  -5   89.68    1.96
   0   5  -5   89.76    2.44
   1   5  -5    5.68    0.37
  -1   5   5    5.33    0.69
  -1  -5  -5    6.84    0.48
   1   5  -5    4.43    0.66
   1  -5  -5    5.87    0.41
  -1   5  -5    5.80    1.10
  -2  -5  -5   62.18    1.77
   2   5  -5   50.70    1.59
   2   5  -5   53.11    1.27
  -2   5   5   52.28    1.89
  -2   5  -5   50.73    1.74
   2  -5  -5   51.69    1.23
   3   5  -5   12.89    0.91
  -3  -5  -5   13.54    0.72
   3   5  -5   12.07    0.64
  -3   5   5   13.19    1.42
  -3   5  -5   12.29    1.29
   3  -5  -5   13.23    0.56
   4   5  -5    0.69    0.41
  -4   5   5   -0.23    0.99
  -4  -5  -5   -0.13    0.46
   4  -5  -5    0.53    0.30
  -4   5  -5   -0.04    0.79
   0   6   5   -0.37    0.55
   0   6  -5    0.27    0.36
   0   6  -5   -0.44    0.62
   0  -6  -5    0.13    0.30
   1   6  -5    4.18    0.72
  -1   6   5    4.57    0.76
  -1  -6  -5    4.96    0.52
   1  -6  -5    4.40    0.40
  -1   6  -5    2.65    0.53
  -2  -6  -5    0.58    0.36
   2   6  -5    1.17    0.49
  -2   6   5    0.75    0.78
   2   6  -5    0.35    0.31
   2  -6  -5    1.18    0.32
  -2   6  -5   -0.26    0.58
  -3  -6  -5    5.45    0.61
  -3   6   5    6.33    1.10
   3   6  -5    5.30    0.50
   3   6  -5    6.15    0.66
  -3   6  -5    5.36    0.92
   0   7  -5   16.58    1.04
   0  -7  -5   21.13    1.19
   1   7  -5   -0.10    0.68
  -1   7   5    0.17    0.74
  -1  -7  -5    0.95    0.44
   1   7  -5    0.21    0.44
   1  -7  -5    0.45    0.38
  -1   7  -5    0.59    0.55
   2   7  -5   11.12    0.72
  -2   7   5   11.51    1.56
  -2  -7  -5   14.28    1.31
  -2   7  -5   12.97    1.27
   0   0  -6  333.78    6.80
   0   0  -6  367.04    7.19
   0   0   6  355.07    7.20
  -1   0  -6  176.74    3.41
   1   0  -6  174.36    3.78
  -1   0  -6  168.25    3.93
   1   0  -6  170.56    3.41
   2   0  -6   84.15    1.94
   2   0  -6   91.73    2.29
  -2   0  -6   93.82    1.88
  -2   0   6   91.97    2.35
  -3   0  -6   60.99    1.37
  -3   0  -6   60.26    1.68
   3   0  -6   59.86    1.83
   3   0  -6   59.46    1.38
  -4   0  -6   27.51    1.32
  -4   0   6   26.02    1.62
  -4   0  -6   27.34    0.83
   4   0  -6   25.82    1.55
   4   0  -6   27.90    0.84
  -5   0   6    4.38    1.25
   5   0  -6    4.09    0.44
  -5   0  -6    3.73    0.41
   6   0  -6    0.74    0.47
  -6   0  -6    1.06    0.49
   0  -1  -6    0.10    0.12
   0   1  -6   -0.31    0.74
   0  -1  -6    0.35    0.36
   0  -1   6   -0.27    0.30
   0   1  -6   -0.11    0.10
   0   1   6   -0.26    0.39
  -1  -1  -6  147.65    2.98
  -1  -1  -6  146.58    3.29
   1   1  -6  147.14    3.34
  -1   1   6  149.30    3.37
   1   1  -6  147.62    2.96
   1  -1  -6  148.69    3.33
  -1   1  -6  151.26    3.30
  -1   1  -6  150.85    2.92
   1  -1  -6  148.06    2.97
  -2  -1  -6    0.36    0.34
  -2  -1  -6   -0.06    0.19
   2   1  -6   -0.14    0.36
  -2   1   6    0.32    0.58
  -2  -1   6    0.12    0.43
   2  -1  -6    0.67    0.38
  -2   1  -6    0.20    0.14
   3   1  -6   70.80    1.60
  -3  -1  -6   70.46    1.59
  -3   1   6   68.58    2.10
  -3  -1  -6   70.19    1.84
   3   1  -6   71.52    2.02
  -3   1  -6   70.96    1.96
  -3   1  -6   69.35    1.52
  -3  -1   6   68.29    2.10
   3  -1  -6   70.31    2.07
   3  -1  -6   72.30    1.57
  -4  -1  -6   43.66    1.17
   4   1  -6   44.07    1.68
  -4  -1  -6   43.99    1.54
  -4   1   6   41.82    1.86
   4   1  -6   43.00    1.34
  -4  -1   6   42.14    1.82
   4  -1  -6   43.00    1.13
  -4   1  -6   43.41    1.09
  -4   1  -6   43.14    1.69
   4  -1  -6   45.34    1.76
  -5   1   6   37.10    2.16
  -5  -1  -6   37.43    1.14
   5   1  -6   37.86    1.16
   5  -1  -6   38.64    1.10
  -5   1  -6   36.19    1.84
  -5   1  -6   36.39    1.06
   6  -1   6   29.35    1.05
   6   1  -6   27.74    1.08
  -6  -1  -6   28.90    1.16
   6  -1  -6   25.81    1.05
   0   2  -6  125.72    2.91
   0   2   6  121.53    2.82
   0  -2  -6  121.80    2.73
   0   2  -6  123.49    2.43
   0  -2  -6  122.57    2.50
  -1  -2  -6   93.71    1.94
   1   2  -6   90.32    2.30
   1   2  -6   94.39    1.90
  -1   2   6   91.21    2.30
  -1  -2  -6   93.03    2.17
  -1   2  -6   92.88    1.83
   1  -2  -6   91.07    2.22
   1  -2  -6   92.22    1.92
   1   2   6   92.81    2.14
  -2  -2  -6   41.40    1.03
  -2   2   6   40.07    1.44
   2   2  -6   41.20    1.34
  -2  -2  -6   42.31    1.13
   2   2  -6   42.51    1.01
  -2  -2  -6   42.47    1.31
  -2   2  -6   42.25    0.90
   2  -2  -6   41.87    1.41
  -2  -2   6   41.91    1.45
   2  -2  -6   42.55    0.99
   3   2  -6   37.63    1.38
  -3   2   6   38.07    1.56
  -3  -2  -6   37.35    1.03
   3   2  -6   38.28    1.01
  -3  -2  -6   38.81    1.21
  -3   2  -6   38.40    0.89
  -3   2  -6   39.65    1.38
   3  -2  -6   38.23    0.97
   3  -2  -6   40.78    1.52
  -3  -2   6   37.43    1.59
   4   2  -6   20.72    0.77
  -4  -2  -6   22.76    1.21
  -4  -2  -6   21.51    0.80
   4   2  -6   21.14    1.25
  -4   2  -6   21.33    1.27
  -4   2  -6   20.37    0.65
  -4  -2   6   20.62    1.60
   4  -2  -6   21.94    0.72
   4  -2  -6   19.07    1.30
   5  -2   6    3.61    0.42
  -5   2   6    4.87    1.17
  -5  -2  -6    4.29    0.52
   5   2  -6    3.43    0.51
   5  -2  -6    3.02    0.39
  -5   2  -6    2.91    0.97
   6   2  -6    0.14    0.41
   6  -2   6    0.74    0.45
  -6  -2  -6    0.79    0.50
   6  -2  -6    0.80    0.43
   0  -3  -6    0.08    0.27
   0   3  -6    0.04    0.38
   0   3  -6    0.10    0.11
   0   3   6    0.41    0.39
   0  -3  -6    0.07    0.17
   1   3  -6   83.73    1.72
  -1  -3  -6   83.75    1.87
   1   3  -6   79.53    2.17
  -1  -3  -6   82.52    1.78
  -1   3   6   86.45    2.19
   1   3   6   82.15    1.96
   1  -3  -6   83.86    2.05
   1  -3  -6   78.55    1.81
  -2  -3  -6    0.73    0.38
   2   3  -6    0.51    0.21
  -2  -3  -6    0.45    0.28
  -2  -3  -6    0.46    0.24
   2   3  -6   -0.08    0.43
  -2   3   6    0.60    0.41
   2  -3  -6    0.42    0.43
  -2   3  -6    0.75    0.42
  -2  -3   6    0.71    0.51
   2  -3  -6    0.41    0.20
  -3  -3  -6   35.74    1.07
   3   3  -6   40.20    1.47
  -3   3   6   42.17    1.70
  -3  -3  -6   36.65    1.16
   3   3  -6   36.27    1.02
  -3  -3   6   44.97    1.70
  -3   3  -6   39.21    1.46
   3  -3  -6   35.07    1.54
   3  -3  -6   37.13    0.97
  -4  -3  -6   28.08    0.97
  -4   3   6   26.84    1.75
   4   3  -6   27.72    0.93
  -4  -3  -6   28.20    1.24
   4   3  -6   28.95    1.57
   4  -3   6   28.32    0.75
  -4   3  -6   29.82    1.57
  -4  -3   6   29.07    1.75
   4  -3  -6   29.50    0.86
  -5  -3  -6   21.71    1.08
  -5   3   6   24.36    2.24
   5   3  -6   22.76    0.97
  -5   3  -6   23.85    1.86
   5  -3  -6   23.68    0.82
   0   4   6   26.32    1.07
   0  -4  -6   25.29    0.72
   0   4  -6   25.24    0.58
   0  -4  -6   24.66    0.84
   0   4  -6   25.16    1.23
  -1   4   6   26.76    1.22
   1   4  -6   25.26    1.29
   1   4  -6   26.89    0.69
  -1  -4  -6   26.66    0.78
   1  -4  -6   26.42    0.73
   1   4   6   25.99    0.96
  -2   4   6    9.82    1.05
  -2  -4  -6    9.38    0.55
   2   4  -6    9.03    0.93
   2   4  -6    9.32    0.47
   2  -4  -6    9.27    0.44
  -2   4  -6    9.49    0.86
   3   4  -6   14.27    0.63
   3   4  -6   13.16    1.01
  -3  -4  -6   14.46    0.72
  -3   4   6   13.81    1.88
  -3  -4   6   16.00    1.16
  -3   4  -6   15.08    1.18
   3  -4  -6   14.04    0.56
  -4  -4  -6    9.41    0.73
   4   4  -6   10.44    0.68
   4   4  -6    9.21    1.10
  -4   4   6    9.02    1.28
   4  -4  -6   10.02    0.55
  -5   4   6    5.09    1.45
  -5  -4  -6    2.65    0.55
   5   4  -6    2.73    0.51
  -5   4  -6    1.74    1.19
   5  -4  -6    2.99    0.42
   0   5  -6    0.75    0.70
   0   5   6   -0.14    0.55
   0  -5  -6    0.05    0.24
   1   5  -6   26.37    0.70
  -1  -5  -6   24.28    0.81
  -1   5   6   26.33    1.32
   1   5  -6   23.01    1.30
   1  -5  -6   25.54    0.75
  -1   5  -6   26.15    1.15
   2   5  -6    1.01    0.54
  -2  -5  -6    0.64    0.32
  -2   5   6    1.43    0.65
   2   5  -6    0.59    0.26
   2  -5  -6    0.85    0.27
  -2   5  -6    0.70    0.56
   3   5  -6   10.39    0.61
  -3   5   6    8.70    1.15
   3   5  -6   10.58    0.97
  -3  -5  -6    9.23    0.70
   3  -5  -6    9.65    0.54
  -3   5  -6    9.32    1.25
  -4   5   6   15.26    2.06
  -4  -5  -6   13.22    0.92
   4  -5  -6   14.77    1.14
  -4   5  -6   14.66    1.51
   0   6  -6   15.01    1.34
   0   6   6   16.87    1.12
   0  -6  -6   10.33    0.62
  -1   6   6    8.07    0.90
   1   6  -6    9.08    0.94
  -1  -6  -6    7.74    0.59
  -1   6  -6    7.79    0.89
   1  -6  -6    7.74    0.54
  -2  -6  -6    2.00    0.43
  -2   6   6    1.41    0.86
   2   6  -6    2.39    0.37
   2   6  -6    1.39    0.57
   2  -6  -6    1.54    0.36
  -2   6  -6    1.49    0.68
  -3  -6  -6    5.04    0.62
   3   6  -6    5.29    0.52
   3   6  -6    4.00    0.64
  -3   6   6    5.13    1.17
  -3   6  -6    4.37    0.90
   3  -6  -6    4.86    0.42
   0   7  -6    0.26    0.51
   0  -7  -6   -0.10    0.41
  -1   7   6    7.22    0.94
   1   7  -6    6.30    0.77
  -1  -7  -6    7.54    0.74
   1  -7  -6    8.35    0.80
  -1   7  -6    5.83    0.73
  -2   7   6    1.59    1.04
  -2  -7  -6    1.45    0.56
  -2   7  -6    0.74    0.82
   1   0  -7   90.99    1.87
  -1   0   7   88.81    2.35
  -1   0  -7   91.38    1.86
  -1   0  -7   88.18    2.28
   1   0  -7   92.43    2.29
   2   0  -7    2.95    0.26
  -2   0   7    3.20    0.62
   2   0  -7    3.45    0.55
  -2   0  -7    3.62    0.55
  -2   0  -7    2.75    0.29
   3   0  -7   18.22    1.10
  -3   0  -7   21.31    0.96
  -3   0  -7   18.91    0.63
  -3   0   7   20.47    1.31
   3   0  -7   19.85    0.65
   4   0  -7    7.11    0.59
  -4   0   7    8.67    1.18
   4   0  -7    7.79    0.93
  -4   0  -7    7.79    1.05
  -4   0  -7    6.78    0.49
  -5   0  -7    5.41    0.49
   5   0  -7    4.84    0.47
  -5   0   7    3.96    1.27
  -6   0  -7    7.95    0.77
   6   0  -7    8.85    0.77
   0  -1  -7  918.01   18.02
   0  -1   7  908.83   18.03
   0   1   7  918.25   18.06
   0   1  -7  934.30   18.13
  -1   1   7    1.52    0.43
  -1  -1  -7    2.31    0.22
  -1  -1  -7    2.22    0.52
   1   1  -7    2.22    0.21
   1   1  -7    2.18    0.50
   1  -1  -7    1.92    0.45
  -1   1  -7    2.14    0.22
   1   1   7    2.26    0.43
  -1   1  -7    2.54    0.51
   1  -1  -7    2.25    0.22
  -2   1   7   54.78    1.76
  -2  -1  -7   55.07    1.26
   2   1  -7   55.82    1.25
  -2  -1  -7   52.62    1.60
   2   1  -7   54.32    1.66
  -2   1  -7   54.81    1.19
   2  -1  -7   56.55    1.25
   2  -1  -7   55.19    1.68
  -3  -1  -7   39.23    1.01
   3   1  -7   36.92    0.99
  -3  -1  -7   37.87    1.26
  -3   1   7   37.17    1.59
   3   1  -7   38.78    1.47
  -3   1  -7   38.01    1.39
  -3   1  -7   37.68    0.95
   3  -1  -7   38.59    0.98
  -3  -1   7   38.31    1.64
   3  -1  -7   38.71    1.55
  -4   1   7   72.38    2.52
   4   1  -7   71.89    1.75
  -4  -1  -7   74.01    1.76
  -4  -1  -7   74.92    2.16
   4   1  -7   74.51    2.34
  -4   1  -7   76.49    2.33
   4  -1  -7   77.68    2.12
  -4  -1   7   74.78    2.53
  -4   1  -7   75.22    1.69
   4  -1  -7   73.32    2.38
  -5  -1  -7   -0.46    0.31
  -5   1   7   -0.32    1.08
   5   1  -7   -0.08    0.34
  -5   1  -7   -0.02    0.32
   5  -1  -7   -0.06    0.29
   6  -1   7    0.24    0.49
   6   1  -7    0.13    0.43
  -6  -1  -7   -0.02    0.46
   6  -1  -7    0.23    0.45
   0  -2  -7    0.31    0.38
   0   2  -7    0.04    0.11
   0   2   7   -0.11    0.39
   0   2  -7   -0.17    0.42
   0  -2  -7    0.01    0.20
  -1  -2  -7   58.89    1.33
  -1   2   7   59.90    1.75
   1   2  -7   59.99    1.29
   1   2  -7   59.74    1.76
  -1  -2  -7   58.03    1.63
   1  -2  -7   58.57    1.67
   1  -2  -7   58.74    1.33
  -1   2  -7   60.68    1.74
   1   2   7   59.37    1.59
  -1   2  -7   61.64    1.23
  -2   2   7    2.70    0.61
  -2  -2  -7    2.25    0.54
  -2  -2  -7    2.65    0.30
   2   2  -7    3.01    0.27
   2  -2  -7    2.28    0.25
  -2   2  -7    2.96    0.24
   2  -2  -7    1.62    0.47
  -3  -2  -7   16.00    0.66
  -3   2   7   16.09    1.21
  -3  -2  -7   16.17    0.89
   3   2  -7   15.73    0.61
   3  -2  -7   16.26    0.59
  -3   2  -7   15.44    0.50
  -3  -2   7   16.02    1.30
   3  -2  -7   15.56    1.17
  -3   2  -7   16.31    1.01
  -4  -2  -7    5.16    0.47
  -4   2   7    6.26    1.02
  -4  -2  -7    5.58    0.74
   4   2  -7    5.77    0.53
   4   2  -7    6.09    0.85
   4  -2  -7    5.29    0.85
  -4  -2   7    6.09    1.00
  -4   2  -7    6.09    0.42
  -4   2  -7    7.13    0.93
  -5  -2  -7    4.38    0.61
  -5   2   7    6.17    1.30
   5  -2   7    5.84    0.56
   5   2  -7    4.00    0.52
  -5   2  -7    3.29    0.94
   5  -2  -7    3.31    0.42
   0  -3  -7  304.65    6.28
   0  -3  -7  309.69    6.07
   0   3   7  310.40    6.44
   0   3  -7  307.58    5.96
   0   3  -7  309.02    6.62
  -1   3   7    2.49    0.54
   1   3  -7    2.58    0.26
   1   3  -7    3.53    0.61
  -1  -3  -7    2.70    0.43
  -1  -3  -7    1.96    0.26
   1  -3  -7    2.44    0.45
   1  -3  -7    2.98    0.27
  -1   3  -7    2.20    0.48
   1   3   7    2.57    0.47
   2   3  -7   19.74    0.62
  -2   3   7   18.95    1.19
  -2  -3  -7   18.63    0.92
  -2  -3  -7   19.46    0.68
   2   3  -7   20.63    1.14
  -2  -3  -7   19.34    0.74
   2  -3  -7   19.61    0.61
  -2  -3   7   19.39    1.13
   2  -3  -7   20.50    1.11
  -3  -3  -7   19.92    0.92
   3   3  -7   20.00    0.71
   3   3  -7   19.43    1.18
  -3   3   7   19.70    1.43
  -3  -3   7   21.36    1.46
  -3   3  -7   20.12    1.13
   3  -3  -7   20.11    0.66
  -4  -3  -7   40.18    1.42
  -4  -3  -7   41.27    1.24
  -4   3   7   40.63    2.09
   4   3  -7   42.27    1.20
   4   3  -7   42.50    1.70
  -4   3  -7   44.22    1.88
   4  -3  -7   42.00    1.13
  -5   3   7   -0.13    1.30
   5   3  -7   -0.18    0.46
  -5  -3  -7   -0.22    0.50
   5  -3  -7   -0.33    0.32
  -5   3  -7   -0.02    0.92
   0   4   7    0.13    0.50
   0  -4  -7   -0.11    0.21
   0   4  -7   -0.34    0.12
   0   4  -7    0.16    0.60
  -1  -4  -7   21.53    0.72
   1   4  -7   21.06    0.60
  -1   4   7   21.34    1.21
   1  -4  -7   20.84    0.66
   1   4   7   21.75    0.99
  -1   4  -7   20.53    1.89
  -2  -4  -7    0.58    0.30
   2   4  -7    1.20    0.75
  -2   4   7    0.27    0.60
   2   4  -7    0.48    0.25
   2  -4  -7    0.35    0.23
  -2   4  -7    0.43    0.45
   3   4  -7    9.21    1.07
   3   4  -7    9.08    0.60
  -3   4   7   10.26    1.38
  -3  -4  -7    9.92    0.65
   3  -4  -7    9.68    0.51
  -3   4  -7    9.86    1.05
  -3  -4   7    9.82    1.18
  -4   4   7    6.03    1.23
   4   4  -7    4.78    0.49
  -4  -4  -7    4.67    0.69
  -4   4  -7    4.93    0.95
   4  -4  -7    4.64    0.49
   5   4  -7    2.74    0.50
  -5  -4  -7    2.70    0.56
  -5   4   7    2.73    1.37
   5  -4  -7    2.97    0.44
  -5   4  -7    2.35    1.21
   0  -5  -7   94.60    2.09
   0   5   7   97.53    2.54
   0   5  -7   93.70    2.78
   1   5  -7    1.42    0.71
  -1  -5  -7    2.40    0.35
  -1   5   7    1.95    0.68
   1   5  -7    2.27    0.26
   1  -5  -7    2.00    0.30
   1   5   7    3.04    0.51
  -1   5  -7    2.54    0.69
  -2   5   7    6.75    0.91
   2   5  -7    6.07    0.47
  -2  -5  -7    6.35    0.56
   2   5  -7    7.08    0.96
  -2   5  -7    7.96    0.89
   2  -5  -7    6.41    0.48
   3   5  -7    7.52    0.58
  -3  -5  -7    6.25    0.58
  -3   5   7    6.27    1.11
   3   5  -7    7.19    0.99
   3  -5  -7    7.04    0.53
  -3   5  -7    7.12    0.92
  -4   5   7   16.78    2.07
   4   5  -7   18.09    0.91
  -4  -5  -7   15.51    0.97
   4  -5  -7   18.54    0.75
  -4   5  -7   16.56    1.59
   0  -6  -7    0.16    0.34
   0   6   7    0.19    0.72
   0   6  -7   -0.13    0.76
  -1   6   7    7.42    0.93
   1   6  -7    7.82    0.99
  -1  -6  -7    6.78    0.59
   1  -6  -7    7.09    0.55
  -1   6  -7    5.94    0.71
  -2  -6  -7    0.43    0.39
  -2   6   7   -0.06    0.89
   2   6  -7   -0.04    0.30
   2   6  -7   -1.19    0.64
   2  -6  -7   -0.02    0.33
  -2   6  -7    0.18    0.64
  -3  -6  -7    3.28    0.59
  -3   6   7    3.66    1.07
   3   6  -7    5.00    0.53
  -3   6  -7    5.35    0.99
   3  -6  -7    4.06    0.43
   0   7  -7   31.24    1.34
   0  -7  -7   32.46    1.06
  -1  -7  -7    1.64    0.49
  -1   7   7    1.96    0.90
   1  -7  -7    1.73    0.45
  -1   7  -7    0.63    0.58
   0   0  -8  204.23    4.52
   0   0   8  201.52    4.47
   0   0  -8  205.12    4.02
   1   0  -8  214.05    4.65
  -1   0  -8  215.79    4.17
  -1   0   8  207.93    4.72
  -1   0  -8  213.74    4.68
   1   0  -8  203.49    4.18
   2   0  -8   40.64    0.99
  -2   0   8   41.47    1.63
   2   0  -8   38.90    1.46
  -2   0  -8   40.99    1.47
  -3   0  -8   19.77    0.66
   3   0  -8   19.89    1.22
  -3   0   8   19.70    1.39
   3   0  -8   20.01    0.67
  -4   0   8    0.23    0.92
   4   0  -8    0.38    0.71
  -4   0  -8   -0.16    0.26
  -4   0  -8    0.99    0.70
   4   0  -8    0.51    0.29
  -5   0  -8    2.23    0.39
   5   0  -8    1.26    0.43
   6   0  -8    5.16    0.59
   0   1  -8    0.13    0.15
   0   1   8   -0.12    0.46
   0   1  -8   -0.29    0.45
   0  -1  -8   -0.04    0.34
   0  -1  -8    0.17    0.16
  -1  -1  -8   15.07    0.51
  -1   1   8   15.77    1.01
   1   1  -8   14.79    0.47
   1   1  -8   15.65    0.96
  -1  -1  -8   14.58    0.97
  -1  -1   8   16.80    1.81
  -1   1  -8   15.16    0.44
   1   1   8   15.61    0.82
   1  -1  -8   14.84    0.49
   1  -1  -8   15.21    0.92
  -2   1   8  384.25    8.14
  -2  -1  -8  387.78    7.56
  -2  -1  -8  382.85    7.99
   2   1  -8  382.90    8.04
   2   1  -8  386.20    7.55
  -2   1  -8  387.70    8.02
   2  -1  -8  392.98    8.05
   2  -1  -8  382.98    7.56
  -2   1  -8  384.90    7.50
   3   1  -8   23.27    0.74
  -3   1   8   20.96    1.42
  -3  -1  -8   23.55    1.17
   3   1  -8   22.78    1.27
  -3  -1  -8   24.01    0.76
   3  -1  -8   22.81    0.72
  -3   1  -8   22.48    0.68
  -3   1  -8   23.30    1.16
  -4  -1  -8   44.14    1.38
  -4  -1  -8   35.97    1.47
   4   1  -8   34.26    1.72
  -4   1   8   35.21    1.90
   4   1  -8   36.89    1.06
   4  -1  -8   34.65    1.03
  -4   1  -8   34.71    1.62
  -4  -1   8   37.02    1.95
   4  -1  -8   37.24    1.75
  -4   1  -8   35.59    0.98
  -5  -1  -8   36.06    1.17
  -5   1   8   34.37    2.37
   5   1  -8   36.99    1.19
   5  -1  -8   36.85    1.11
  -5   1  -8   37.42    1.09
   0  -2  -8   75.19    1.99
   0  -2  -8   74.52    1.62
   0   2  -8   74.53    1.55
   0   2   8   76.35    2.10
   0   2  -8   74.67    2.17
  -1  -2  -8  130.57    3.04
  -1  -2  -8  130.45    2.70
   1   2  -8  131.58    2.64
   1   2  -8  131.62    3.19
  -1   2   8  127.91    3.17
  -1   2  -8  129.64    2.58
  -1  -2   8  129.92    3.10
   1   2   8  128.92    2.99
   1  -2  -8  128.91    3.08
   1  -2  -8  131.89    2.68
  -1   2  -8  131.87    3.18
  -2  -2  -8   23.47    1.19
   2   2  -8   23.22    0.68
  -2  -2  -8   23.39    0.73
  -2   2   8   23.81    1.27
   2   2  -8   21.31    1.16
   2  -2  -8   24.12    1.16
  -2   2  -8   23.17    0.59
   2  -2  -8   22.85    0.68
  -3  -2  -8   14.73    0.64
   3   2  -8   14.24    0.60
   3   2  -8   12.62    1.08
  -3  -2  -8   15.47    0.89
  -3   2   8   15.32    1.32
  -3   2  -8   14.51    0.50
   3  -2  -8   16.60    1.27
   3  -2  -8   15.10    0.59
  -3   2  -8   14.29    1.05
  -4   2   8   -0.08    0.87
   4   2  -8    0.67    0.65
  -4  -2  -8    0.39    0.55
  -4  -2  -8    0.55    0.34
   4   2  -8    0.45    0.30
  -4   2  -8    0.83    0.25
   4  -2  -8    0.28    0.88
  -4  -2   8    0.36    0.97
  -4   2  -8    0.51    0.71
   4  -2  -8    0.05    0.26
  -5  -2  -8    0.99    0.46
   5   2  -8    1.06    0.45
  -5   2   8    0.75    1.24
   5  -2  -8    1.96    0.38
  -5   2  -8    1.88    0.36
   0  -3  -8    0.42    0.20
   0   3  -8    0.31    0.13
   0   3   8    0.35    0.50
   0   3  -8    0.17    0.54
   0  -3  -8    0.22    0.45
   1   3  -8    2.89    0.65
  -1   3   8    2.72    0.55
  -1  -3  -8    3.76    0.34
   1   3  -8    2.76    0.28
  -1  -3  -8    2.81    0.54
  -1   3  -8    3.03    0.20
  -1   3  -8    2.73    0.64
   1   3   8    3.52    0.57
   1  -3  -8    3.61    0.56
   1  -3  -8    2.92    0.27
   2   3  -8  181.61    3.61
   2   3  -8  172.24    4.15
  -2   3   8  180.68    4.29
  -2  -3  -8  179.40    3.68
   2  -3  -8  182.66    3.62
  -2  -3   8  174.90    4.10
   2  -3  -8  171.56    4.12
   3   3  -8   11.64    1.09
  -3  -3  -8   11.34    0.65
  -3   3   8   11.49    1.36
  -3  -3  -8   12.01    0.85
   3   3  -8   11.10    0.57
   3  -3  -8   11.73    0.54
  -3   3  -8   12.20    0.40
  -3   3  -8   11.33    1.02
  -3  -3   8   10.80    1.37
  -4   3   8   18.18    1.81
  -4  -3  -8   19.61    0.87
   4   3  -8   19.60    0.81
  -4   3  -8   20.82    1.44
   4  -3  -8   19.85    0.73
  -5   3   8   24.06    2.50
  -5  -3  -8   27.14    1.14
   5   3  -8   25.01    1.05
   5  -3  -8   26.15    1.07
  -5   3  -8   27.96    2.21
   0   4   8    9.24    1.09
   0   4  -8    9.31    0.31
   0  -4  -8    8.75    0.48
   0   4  -8    8.93    0.95
  -1   4   8   48.94    1.79
  -1  -4  -8   47.64    1.22
   1   4  -8   48.75    1.11
   1   4  -8   48.05    1.84
   1   4   8   47.42    1.54
  -1   4  -8   49.57    1.81
   1  -4  -8   48.53    1.18
   2   4  -8    9.86    0.48
  -2  -4  -8    9.46    0.59
   2   4  -8    9.27    1.22
   2  -4  -8    9.50    0.50
   3   4  -8    7.64    0.52
  -3   4   8    5.44    1.03
   3   4  -8    7.52    1.01
  -3  -4  -8    6.94    0.63
   3  -4  -8    6.82    0.50
  -3   4  -8    8.44    1.07
  -4  -4  -8    1.05    0.44
  -4   4   8    1.61    1.05
   4   4  -8    2.14    0.43
  -4   4  -8    1.63    0.83
   4  -4  -8    0.98    0.30
  -5   4   8    1.28    1.41
  -5   4  -8    3.12    1.24
   0  -5  -8    0.36    0.29
   0   5   8    0.52    0.68
   0   5  -8   -1.32    0.80
   1   5  -8    2.19    0.83
  -1  -5  -8    1.94    0.35
  -1   5   8    1.58    0.79
  -1   5  -8    2.25    0.74
   1   5   8    1.67    0.56
   1  -5  -8    2.00    0.32
  -2  -5  -8   63.62    1.61
   2   5  -8   62.58    2.13
  -2   5   8   63.38    2.32
   2   5  -8   64.44    1.48
  -2   5  -8   66.10    2.09
   2  -5  -8   61.25    1.50
   3   5  -8    3.40    0.42
  -3  -5  -8    3.45    0.62
  -3   5   8    2.72    1.09
   3  -5  -8    2.99    0.39
  -3   5  -8    1.94    0.72
  -4  -5  -8    6.14    0.69
  -4   5   8    6.51    1.37
   4   5  -8    6.16    0.61
   4  -5  -8    6.21    0.51
  -4   5  -8    5.85    1.09
   0  -6  -8    0.54    0.36
   0   6   8    1.63    0.78
  -1   6   8   18.34    1.56
  -1  -6  -8   16.54    0.78
   1  -6  -8   16.28    0.73
  -1   6  -8   15.94    1.17
  -2   6   8    3.65    1.03
   2   6  -8    4.09    0.44
  -2  -6  -8    4.60    0.85
  -2   6  -8    4.09    0.76
   2  -6  -8    3.88    0.45
  -3   6   8    3.64    1.10
  -3  -6  -8    2.97    0.59
   3   6  -8    3.54    0.49
   3  -6  -8    3.13    0.45
  -3   6  -8    4.54    1.00
   0   7   8   -0.93    0.76
   0  -7  -8   -0.36    0.41
   0   7  -8    0.10    0.60
  -1   7   8    1.17    1.11
  -1  -7  -8    0.69    0.52
  -1   7  -8   -0.18    0.65
   1  -7  -8    1.04    0.45
   0   0  -9    0.30    0.18
   0   0  -9    0.51    0.48
   0   0   9    0.48    0.51
   1   0  -9   50.04    1.15
  -1   0  -9   53.52    1.76
  -1   0   9   50.07    1.77
  -1   0  -9   46.55    1.29
   1   0  -9   51.44    1.69
  -2   0  -9  134.14    3.30
   2   0  -9  132.37    2.76
  -2   0  -9  136.66    2.74
   2   0  -9  134.59    3.31
  -2   0   9  126.44    3.38
   3   0  -9   16.72    1.26
  -3   0   9   15.67    1.53
   3   0  -9   15.97    0.62
  -3   0  -9   16.45    0.62
  -3   0  -9   15.63    1.26
  -4   0  -9   61.63    1.52
  -4   0   9   58.41    2.47
   4   0  -9   65.74    2.36
  -4   0  -9   66.08    2.16
   4   0  -9   63.83    1.56
  -5   0  -9    5.32    0.53
   5   0  -9    4.51    0.49
   0   1  -9  381.53    7.47
   0  -1  -9  376.29    7.51
   0   1   9  384.80    8.03
   0   1  -9  394.25    8.13
   0  -1  -9  384.60    7.99
   0  -1   9  386.71    7.95
  -1   1   9   10.06    1.01
   1   1  -9    9.77    0.40
   1   1  -9   10.39    0.95
  -1  -1  -9   11.45    0.97
  -1  -1  -9   10.20    0.43
  -1  -1   9    8.57    1.13
   1   1   9   10.48    0.78
   1  -1  -9   10.28    0.43
  -1   1  -9   10.58    0.38
  -1   1  -9    9.96    1.01
   1  -1  -9   10.07    0.90
  -2   1   9   12.69    1.18
  -2  -1  -9   11.80    1.09
   2   1  -9   12.97    1.00
  -2  -1  -9   12.34    0.52
   2   1  -9   12.33    0.49
   2  -1  -9   12.45    1.05
  -2   1  -9   11.79    0.46
  -2  -1   9   11.77    1.25
  -2   1  -9   11.95    1.03
   2  -1  -9   12.87    0.50
  -3  -1  -9   24.26    0.80
   3   1  -9   25.05    1.35
   3   1  -9   25.45    0.79
  -3   1   9   23.69    1.55
   3  -1  -9   24.68    0.78
  -3   1  -9   24.28    0.73
   3  -1  -9   31.60    1.76
  -3   1  -9   24.88    1.27
   4   1  -9   30.70    0.96
  -4   1   9   30.94    1.96
  -4  -1  -9   30.27    0.97
  -4  -1  -9   31.60    1.42
   4   1  -9   26.97    1.68
   4  -1  -9   29.05    1.70
  -4   1  -9   28.19    1.53
  -4   1  -9   30.36    0.87
   4  -1  -9   28.55    0.93
  -5  -1  -9    1.93    0.47
   5   1  -9    2.35    0.49
   5  -1  -9    2.08    0.43
  -5   1  -9    2.18    0.40
   0  -2  -9   -0.01    0.19
   0   2   9   -0.37    0.46
   0   2  -9    0.31    0.57
   0  -2  -9   -0.41    0.46
   0   2  -9    0.21    0.15
  -1  -2  -9   25.59    1.21
   1   2  -9   27.72    1.34
   1   2  -9   26.45    0.70
  -1   2   9   26.89    1.34
  -1  -2  -9   26.98    0.77
  -1   2  -9   28.31    1.36
   1  -2  -9   27.19    0.75
  -1  -2   9   27.16    1.23
   1  -2  -9   27.79    1.22
   1   2   9   26.41    1.13
  -1   2  -9   27.13    0.66
   2   2  -9   95.15    2.03
  -2   2   9   93.02    2.70
   2   2  -9   91.77    2.60
  -2  -2  -9   94.59    2.07
  -2   2  -9   94.39    1.93
  -2  -2   9   93.43    2.68
   2  -2  -9   96.04    2.59
   2  -2  -9   93.26    2.03
   3   2  -9   13.95    1.17
  -3  -2  -9   14.15    0.95
   3   2  -9   12.94    0.60
  -3  -2  -9   13.82    0.68
  -3   2   9   12.95    1.36
  -3   2  -9   13.11    0.49
   3  -2  -9   12.72    0.57
   3  -2  -9   13.55    1.35
  -3  -2   9   12.74    1.40
  -3   2  -9   12.70    1.06
  -4  -2  -9   51.68    1.43
  -4   2   9   49.34    2.35
   4   2  -9   51.10    1.38
  -4   2  -9   52.13    1.24
  -4   2  -9   52.92    2.05
   4  -2  -9   52.43    1.35
  -5   2   9    4.81    1.39
  -5  -2  -9    3.64    0.65
   5   2  -9    3.43    0.53
  -5   2  -9    4.15    0.45
   5  -2  -9    3.09    0.46
   0   3   9  193.08    4.38
   0  -3  -9  180.19    4.17
   0   3  -9  188.19    4.48
   0  -3  -9  186.70    3.80
   0   3  -9  187.54    3.68
   1   3  -9    7.83    0.38
   1   3  -9    9.05    1.02
  -1  -3  -9    7.86    0.48
  -1   3   9    8.84    0.95
   1  -3  -9    7.20    0.44
   1  -3  -9    7.37    1.03
  -1   3  -9    8.05    0.30
   1   3   9    8.24    0.87
  -1   3  -9    9.22    1.13
   2   3  -9    6.75    0.43
   2   3  -9    7.90    0.96
  -2  -3  -9    7.06    0.52
  -2   3   9    8.41    0.95
   2  -3  -9    7.84    0.46
  -2   3  -9    8.26    0.32
  -2   3  -9    9.44    1.26
  -2  -3   9    5.40    0.71
   3   3  -9   18.49    1.08
  -3  -3  -9   17.83    1.04
   3   3  -9   19.02    1.28
  -3  -3  -9   19.00    0.80
  -3   3   9   16.73    1.56
  -3   3  -9   18.31    0.55
  -3   3  -9   18.53    1.25
  -3  -3   9   17.34    1.50
  -4  -3  -9   20.42    0.92
   4   3  -9   21.33    0.85
   4  -3  -9   21.02    0.78
  -4   3  -9   18.84    1.52
  -5   3   9    2.17    1.48
  -5  -3  -9    1.35    0.51
   5   3  -9    1.39    0.47
   5  -3  -9    1.35    0.44
   0   4  -9    0.16    0.14
   0   4  -9    0.75    0.72
   0  -4  -9    0.59    0.26
   1   4  -9   12.04    1.29
  -1  -4  -9   12.59    0.60
  -1   4   9   13.55    1.75
   1   4  -9   12.62    0.47
   1   4   9   12.21    1.02
   1  -4  -9   13.58    0.57
  -1   4  -9   11.21    1.23
   2   4  -9   36.59    1.73
  -2  -4  -9   36.80    1.09
  -2   4   9   36.21    1.83
   2   4  -9   37.06    0.97
  -2   4  -9   38.29    1.76
   2  -4  -9   36.89    1.00
   3   4  -9    6.74    0.55
   3   4  -9    8.58    0.98
  -3   4   9    6.06    1.16
  -3  -4  -9    6.89    0.67
   3  -4  -9    6.89    0.51
   4   4  -9   29.79    1.51
  -4  -4  -9   27.94    1.16
  -4   4   9   30.13    2.21
  -4   4  -9   28.19    1.82
   4  -4  -9   27.46    0.93
   0  -5  -9   55.38    1.42
   0   5  -9   56.00    2.29
   0   5   9   60.01    2.09
  -1   5   9    2.54    0.81
   1   5  -9    2.49    1.58
  -1  -5  -9    3.72    0.41
   1   5  -9    3.53    0.31
   1  -5  -9    3.38    0.38
  -1   5  -9    3.08    1.26
   1   5   9    3.11    0.67
   2   5  -9    5.70    0.46
   2   5  -9    5.60    1.09
  -2   5   9    5.67    0.99
  -2  -5  -9    6.50    0.63
   2  -5  -9    5.60    0.50
  -2   5  -9    5.15    0.77
  -3   5   9   11.96    1.42
  -3  -5  -9   10.92    0.83
   3   5  -9   12.14    0.69
  -3   5  -9   11.26    1.30
   3  -5  -9   11.43    0.65
  -4   5   9   11.01    1.62
  -4  -5  -9    9.66    0.87
   4   5  -9    9.42    0.83
  -4   5  -9   11.64    1.41
   4  -5  -9   11.40    0.74
   0   6   9    0.08    0.88
   0  -6  -9   -0.11    0.35
  -1   6   9    8.36    1.18
  -1  -6  -9    7.73    0.67
   1  -6  -9    7.64    0.61
  -2  -6  -9   11.78    0.94
   2   6  -9   10.00    0.63
  -2   6   9   11.30    1.37
  -2   6  -9    9.36    1.26
   2  -6  -9    9.70    0.68
   0   0 -10   97.27    2.67
   0   0 -10   98.36    2.06
   0   0  10   99.67    2.63
  -1   0 -10    0.21    0.59
   1   0 -10    0.55    0.21
   1   0 -10    0.65    0.54
  -1   0 -10    0.25    0.18
  -1   0  10    0.63    0.54
   2   0 -10  295.04    6.50
  -2   0  10  289.66    6.60
  -2   0 -10  297.68    5.86
   2   0 -10  299.97    5.89
  -2   0 -10  299.14    6.52
   3   0 -10  292.21    5.90
  -3   0 -10  289.29    5.82
   3   0 -10  299.58    6.55
  -3   0  10  287.91    6.72
  -4   0 -10    0.02    0.86
  -4   0  10    1.21    1.20
   4   0 -10    1.08    0.36
   4   0 -10    1.85    0.83
  -5   0 -10    7.06    0.60
   5   0 -10    7.08    0.73
   0  -1 -10   -0.25    0.52
   0   1  10   -0.03    0.58
   0  -1  10    0.68    0.52
   0  -1 -10    0.07    0.19
   0   1 -10   -0.76    0.51
   0   1 -10    0.11    0.17
  -1  -1 -10   66.69    1.48
  -1  -1 -10   64.53    2.06
   1   1 -10   65.16    2.10
  -1   1  10   65.78    2.16
   1   1 -10   65.56    1.44
  -1  -1  10   63.27    2.09
   1  -1 -10   66.02    1.48
   1  -1 -10   66.00    2.02
   1   1  10   65.28    1.88
  -1   1 -10   67.34    2.16
  -1   1 -10   65.85    1.43
   2   1 -10   35.50    0.94
   2   1 -10   36.75    1.57
  -2   1  10   35.93    1.75
  -2  -1 -10   36.85    0.97
  -2  -1 -10   34.52    1.64
   2  -1 -10   36.59    0.96
  -2   1 -10   37.15    0.90
  -2  -1  10   32.54    2.06
   2  -1 -10   36.53    1.58
  -2   1 -10   37.99    1.60
  -3  -1 -10    1.17    0.29
   3   1 -10    1.65    0.68
   3   1 -10    1.98    0.47
  -3   1  10    1.01    0.62
  -3   1 -10    1.80    0.75
   3  -1 -10    2.15    0.69
  -3   1 -10    1.66    0.29
   4   1 -10    5.38    0.55
  -4   1  10    5.67    1.15
  -4  -1 -10    6.67    0.58
  -4  -1  10    0.41    1.54
  -4   1 -10    5.52    0.48
   4  -1 -10    5.65    0.52
  -4   1 -10    5.63    0.90
   4  -1 -10    5.20    1.12
   5   1 -10    0.24    0.42
  -5  -1 -10    0.50    0.49
  -5   1 -10   -0.38    0.33
   0  -2 -10   66.75    2.05
   0   2  10   68.89    2.13
   0   2 -10   69.82    1.45
   0  -2 -10   68.17    1.53
   0   2 -10   62.57    2.18
  -1   2  10   -0.20    0.64
   1   2 -10    0.16    0.20
  -1  -2 -10    0.16    0.22
   1   2 -10   -0.17    0.59
  -1  -2 -10   -0.05    0.49
  -1   2 -10    0.21    0.68
   1   2  10   -0.10    0.47
  -1   2 -10    0.30    0.17
  -1  -2  10    0.18    0.49
   1  -2 -10    0.37    0.54
   1  -2 -10   -0.16    0.20
   2   2 -10  226.47    4.56
  -2   2  10  230.79    5.36
   2   2 -10  223.72    5.21
  -2  -2 -10  233.22    4.62
  -2   2 -10  229.09    4.47
   2  -2 -10  222.17    5.16
   2  -2 -10  225.85    4.58
  -2   2 -10  232.61    5.27
  -2  -2  10  216.77    5.24
  -3  -2 -10  224.13    4.83
   3   2 -10  230.31    4.55
  -3   2  10  220.36    5.40
   3   2 -10  220.49    5.20
  -3  -2 -10  220.12    4.56
  -3   2 -10  220.96    5.05
   3  -2 -10  219.50    5.29
  -3   2 -10  230.04    4.43
  -3  -2  10  210.19    5.35
   3  -2 -10  217.02    4.51
   4   2 -10    1.40    0.39
  -4   2  10    1.78    1.10
  -4  -2 -10    1.03    0.40
   4  -2 -10    0.95    0.31
  -4   2 -10    1.84    0.33
  -4   2 -10    1.48    0.84
  -5  -2 -10    4.58    0.61
   5   2 -10    5.20    0.58
  -5   2  10    7.87    2.20
   5  -2 -10    4.37    0.54
  -5   2 -10    6.01    0.50
   0  -3 -10    0.04    0.24
   0   3  10    0.24    0.69
   0   3 -10    0.07    0.17
   0   3 -10    0.27    0.69
  -1  -3 -10   21.79    0.73
  -1   3  10   19.98    1.40
   1   3 -10   20.71    1.40
   1   3 -10   22.12    0.64
  -1   3 -10   21.60    0.56
  -1   3 -10   20.40    1.43
   1  -3 -10   22.68    0.72
   1   3  10   21.65    1.21
  -2  -3 -10   24.91    0.84
   2   3 -10   24.58    1.52
  -2   3  10   24.85    1.57
   2   3 -10   25.36    0.75
  -2  -3  10   24.02    1.40
  -2   3 -10   24.56    0.62
  -2   3 -10   24.58    1.50
   2  -3 -10   23.92    0.78
  -3  -3 -10    1.00    0.57
  -3   3  10    0.43    0.90
   3   3 -10   -0.11    0.69
  -3  -3 -10    0.09    0.35
   3   3 -10    0.00    0.28
  -3   3 -10    0.48    0.63
  -3  -3  10   -0.59    0.94
   3  -3 -10    0.17    0.27
  -4  -3 -10    2.89    0.52
  -4   3  10    4.17    1.24
   4   3 -10    3.25    0.49
   4  -3 -10    3.55    0.41
  -4   3 -10    2.57    0.96
   5   3 -10   -0.06    0.41
  -5   3  10   -0.16    1.49
  -5  -3 -10   -0.08    0.46
   5  -3 -10    0.05    0.41
   0   4 -10   25.61    0.64
   0   4  10   25.51    1.53
   0   4 -10   25.68    1.70
   1   4 -10    0.38    0.22
  -1  -4 -10    0.38    0.28
   1   4 -10    0.76    0.78
  -1   4  10    0.30    0.75
   1   4  10    0.29    0.60
   1  -4 -10    0.26    0.43
  -1   4 -10   -0.32    0.79
  -2   4  10  105.50    3.18
   2   4 -10  110.01    2.31
  -2  -4 -10  106.55    2.42
  -2  -4 -10  103.93    2.42
   2   4 -10  105.24    3.07
   2  -4 -10  108.47    2.36
  -2   4 -10  111.93    3.18
   3   4 -10  111.43    2.46
  -3  -4 -10  110.56    2.70
  -3   4  10  115.45    3.55
   3  -4 -10  108.56    2.44
  -3   4 -10  110.68    3.12
   4   4 -10    1.08    0.44
  -4  -4 -10    0.64    0.49
  -4   4  10    1.16    1.23
  -4   4 -10    0.19    0.87
   4  -4 -10    1.15    0.45
   0  -5 -10    0.30    0.31
   0   5  10    1.32    0.87
   1   5 -10    6.54    0.43
  -1  -5 -10    6.31    0.53
  -1   5  10    6.15    0.97
   1  -5 -10    6.46    0.54
   1   5  10    6.48    0.77
  -2   5  10   12.20    1.59
   2   5 -10   12.55    0.60
  -2  -5 -10   11.76    0.78
   2  -5 -10   12.87    0.65
  -2   5 -10   10.97    1.25
   3   5 -10   -0.29    0.35
  -3  -5 -10    0.09    0.51
  -3   5  10    1.15    1.11
  -3   5 -10    0.51    0.73
   3  -5 -10    1.09    0.38
   0  -6 -10    6.71    0.63
   0   6  10    5.71    1.00
  -1   6  10    0.77    0.87
  -1  -6 -10    0.70    0.43
   1  -6 -10    0.25    0.38
   2   6 -10   38.91    1.20
  -2   6  10   39.61    2.17
  -2  -6 -10   40.77    1.38
   2  -6 -10   41.66    1.21
  -2   6 -10   40.84    1.85
   0   0  11    0.63    0.55
   0   0 -11    0.03    0.71
   0   0 -11    0.21    0.19
  -1   0  11   10.58    1.97
   1   0 -11    5.00    0.38
  -1   0 -11    5.73    0.96
  -1   0 -11    5.04    0.38
   1   0 -11    8.11    0.95
  -2   0 -11   24.73    1.63
  -2   0  11   27.80    1.67
   2   0 -11   26.00    1.49
  -2   0 -11   26.44    0.76
   2   0 -11   25.75    0.78
   3   0 -11   49.03    2.00
  -3   0  11   49.69    2.29
   3   0 -11   50.12    1.29
  -3   0 -11   49.33    1.25
  -4   0  11    8.72    1.41
   4   0 -11    8.45    0.61
  -4   0 -11    7.47    0.57
   5   0 -11   17.63    0.92
  -5   0 -11   16.24    0.84
   0   1 -11    4.07    0.33
   0  -1  11    3.81    0.60
   0  -1 -11    4.59    0.37
   0   1  11    5.29    0.89
   0  -1 -11    4.55    0.75
   0   1 -11    4.73    0.88
  -1  -1 -11    3.40    0.32
  -1   1  11    2.51    0.71
   1   1 -11    2.84    0.65
   1   1 -11    3.60    0.34
  -1  -1 -11    2.51    0.70
  -1   1 -11    4.16    0.86
  -1  -1  11    2.57    0.74
  -1   1 -11    3.68    0.33
   1  -1 -11    4.18    0.73
   1  -1 -11    3.64    0.33
  -2   1  11   51.67    2.11
   2   1 -11   51.49    1.26
   2   1 -11   53.47    2.05
  -2  -1 -11   53.28    1.27
  -2  -1  11   48.12    2.12
  -2   1 -11   51.48    2.00
   2  -1 -11   50.68    1.26
   2  -1 -11   50.30    1.91
  -2   1 -11   51.02    1.20
  -3   1  11  202.67    5.06
   3   1 -11  201.63    4.07
   3   1 -11  199.72    4.83
   3  -1 -11  185.75    4.75
  -3  -1  11  192.32    5.04
  -3   1 -11  198.08    3.99
   3  -1 -11  195.80    4.06
   4   1 -11   26.53    0.93
  -4  -1 -11   24.15    0.93
  -4   1 -11   24.98    0.82
  -4   1 -11   22.79    1.54
   4  -1 -11   25.23    0.90
   4  -1 -11   23.60    2.36
   5   1 -11    0.14    0.43
  -5  -1 -11   -0.01    0.43
  -5   1 -11    0.16    0.37
   5  -1 -11    0.42    0.41
   0  -2 -11   -0.38    0.21
   0   2  11    0.11    0.70
   0   2 -11    0.92    0.83
   0  -2 -11   -0.39    0.64
   0   2 -11    0.11    0.19
  -1  -2 -11    1.78    0.30
   1   2 -11    1.86    0.25
   1   2 -11    2.10    0.80
  -1   2  11    1.89    0.81
  -1  -2  11    1.27    0.56
  -1   2 -11    2.39    0.24
   1  -2 -11    2.01    0.73
   1  -2 -11    1.65    0.27
   1   2  11    2.10    0.63
  -1   2 -11    1.99    0.85
  -2  -2 -11   19.97    0.73
  -2   2  11   20.80    1.61
   2   2 -11   20.99    0.68
   2   2 -11   20.23    1.45
   2  -2 -11   19.51    0.71
  -2  -2  11   19.55    1.51
   2  -2 -11   20.04    1.43
   3   2 -11   38.15    1.07
  -3  -2 -11   37.79    1.12
  -3  -2 -11   37.49    1.46
  -3   2  11   37.27    2.06
   3   2 -11   35.15    1.79
  -3   2 -11   37.30    0.95
  -3  -2  11   34.94    2.10
   3  -2 -11   37.27    1.06
  -3   2 -11   37.37    1.90
  -4   2  11    4.84    1.34
   4   2 -11    4.72    0.55
  -4  -2 -11    4.97    0.54
   4  -2 -11    5.49    0.57
  -4   2 -11    4.37    0.96
  -4   2 -11    5.14    0.51
  -5  -2 -11   13.43    0.90
   5   2 -11   12.45    0.85
  -5   2 -11   10.99    0.76
   5  -2 -11   11.08    0.76
   0   3 -11    0.96    0.90
   0  -3 -11    1.65    0.30
   0   3  11    2.10    0.78
   1   3 -11    2.96    0.93
  -1   3  11    2.77    0.92
   1   3 -11    3.41    0.29
  -1  -3 -11    2.65    0.43
  -1   3 -11    3.13    0.24
   1  -3 -11    2.98    0.33
  -1   3 -11    2.09    0.82
   1   3  11    3.40    1.31
  -2   3  11   35.81    1.98
   2   3 -11   34.90    1.83
  -2  -3 -11   33.29    1.03
   2   3 -11   33.62    0.94
  -2   3 -11   34.31    0.81
  -2   3 -11   36.16    1.91
   2  -3 -11   33.43    0.97
  -3   3  11  124.32    3.77
  -3  -3 -11  124.52    2.78
   3   3 -11  124.26    2.70
  -3   3 -11  118.02    3.69
  -3   3 -11  122.64    3.33
   3  -3 -11  127.80    2.71
  -4   3  11   15.05    1.68
   4   3 -11   16.69    0.83
  -4   3 -11   13.66    1.57
   4  -3 -11   14.56    0.90
   0   4  11    0.58    0.80
   0   4 -11    0.29    0.20
   0   4 -11    0.03    1.00
   0  -4 -11    0.42    0.30
   1   4 -11    0.68    0.24
   1   4 -11   -0.32    0.74
  -1   4  11    0.82    0.84
  -1  -4 -11    0.20    0.29
   1   4  11    0.80    0.67
   1  -4 -11    0.40    0.30
  -1   4 -11   -0.80    0.82
  -2  -4 -11   10.93    0.68
  -2   4  11   10.29    1.25
   2   4 -11   10.21    0.54
   2  -4 -11   11.25    0.60
  -3  -4 -11   18.71    0.95
  -3   4  11   18.55    2.00
   3   4 -11   18.89    0.78
   3  -4 -11   18.95    0.77
  -3   4 -11   20.78    1.46
  -4  -4 -11    2.06    0.56
   4   4 -11    1.69    0.53
  -4   4  11    4.00    1.39
   4  -4 -11    3.03    0.63
  -4   4 -11    0.56    0.95
   0  -5 -11    0.00    0.29
   0   5  11    1.04    0.87
  -1  -5 -11    1.71    0.43
   1   5 -11    2.70    0.30
  -1   5  11    4.11    1.10
   1   5  11    3.11    0.79
   1  -5 -11    2.38    0.40
   2   5 -11   17.64    0.71
  -2   5  11   18.01    1.87
  -2  -5 -11   18.30    0.90
   2  -5 -11   17.75    0.78
   3   5 -11   54.27    1.45
  -3   5  11   53.58    2.78
  -3  -5 -11   53.98    1.62
   3  -5 -11   53.65    1.58
  -3   5 -11   55.66    2.26
   0   6  11    0.17    0.90
   0  -6 -11   -0.18    0.40
  -1   6  11    2.14    1.07
  -1  -6 -11    1.16    0.52
   1  -6 -11    0.64    0.45
  -2   6  11    3.68    1.33
   2   6 -11    4.84    0.45
  -2  -6 -11    3.76    0.60
   2  -6 -11    3.97    0.54
  -2   6 -11    2.40    0.87
   0   0 -12    1.56    0.82
   0   0 -12    2.04    0.26
   0   0  12    1.29    0.55
  -1   0 -12    5.10    1.04
  -1   0  12    2.22    0.70
  -1   0 -12    3.63    0.38
   1   0 -12    3.97    0.39
   1   0 -12    4.20    0.76
  -2   0  12  170.45    4.49
   2   0 -12  173.19    4.26
   2   0 -12  171.38    3.51
  -2   0 -12  170.05    3.48
  -2   0 -12  158.30    4.39
  -3   0 -12   12.43    0.61
   3   0 -12   12.98    0.66
  -3   0  12   12.92    1.49
   3   0 -12   16.99    1.48
   4   0 -12    0.26    0.48
  -4   0  12    0.92    1.31
  -4   0 -12    0.07    0.34
  -5   0 -12    3.89    0.62
   5   0 -12    3.40    0.50
   0  -1  12    0.11    0.40
   0   1  12   -0.09    0.72
   0   1 -12   -0.77    0.80
   0   1 -12   -0.03    0.20
   0  -1 -12    0.46    0.69
   0  -1 -12   -0.10    0.22
  -1   1  12   46.64    2.01
  -1  -1 -12   46.24    1.16
  -1  -1 -12   42.89    1.97
   1   1 -12   47.24    1.13
   1   1 -12   47.29    1.99
  -1  -1  12   44.99    1.92
  -1   1 -12   44.02    2.01
  -1   1 -12   47.08    1.10
   1  -1 -12   45.75    1.16
   1  -1 -12   47.73    1.91
   2   1 -12    8.63    0.50
   2   1 -12    9.58    1.31
  -2   1  12    9.67    1.29
  -2  -1 -12    8.38    0.52
  -2  -1  12    6.03    0.96
   2  -1 -12    8.03    0.51
  -2   1 -12    8.73    1.12
   2  -1 -12    7.58    0.96
  -2   1 -12    7.69    0.45
  -3   1  12    2.35    1.12
  -3  -1 -12    1.45    0.35
   3   1 -12    2.01    0.87
   3   1 -12    1.59    0.32
   3  -1 -12    2.09    0.96
  -3  -1  12    0.62    0.85
  -3   1 -12    1.62    0.28
   3  -1 -12    1.45    0.30
  -4   1  12    6.16    1.44
   4   1 -12    5.51    0.54
  -4  -1 -12    5.42    0.54
  -4   1 -12    6.08    0.78
   4  -1 -12    6.07    0.57
   5   1 -12   -0.24    0.43
  -5  -1 -12   -0.14    0.48
  -5   1 -12   -0.63    0.42
   5  -1 -12   -0.31    0.40
   0   2 -12    1.84    0.84
   0   2 -12    0.62    0.21
   0   2  12    0.52    0.69
   0  -2 -12    0.58    0.27
   1   2 -12    2.17    0.85
  -1   2  12    2.37    0.91
  -1  -2 -12    2.15    0.32
   1   2 -12    2.12    0.27
  -1   2 -12    3.58    0.96
  -1   2 -12    2.59    0.27
   1  -2 -12    2.17    0.30
   1   2  12    2.01    0.67
   2   2 -12  134.94    2.87
  -2  -2 -12  132.99    2.92
   2   2 -12  132.77    3.69
  -2   2  12  138.71    3.88
   2  -2 -12  138.98    2.91
  -2   2 -12  134.45    2.78
  -2   2 -12  139.55    3.81
  -3   2  12   11.72    1.46
   3   2 -12   11.92    0.64
  -3  -2 -12   11.28    0.69
   3  -2 -12   11.11    0.62
  -3   2 -12   13.87    1.85
  -3  -2  12   12.97    1.84
  -3   2 -12   10.31    0.53
  -4  -2 -12   -0.69    0.41
   4   2 -12   -0.53    0.35
  -4   2  12    1.17    1.02
   4  -2 -12    0.72    0.38
  -4   2 -12    0.00    1.11
  -4   2 -12    0.46    0.32
   0   3 -12    0.70    0.71
   0   3 -12    0.03    0.20
   0  -3 -12   -0.10    0.25
   0   3  12   -0.36    0.88
   1   3 -12   32.49    1.93
   1   3 -12   35.45    0.91
  -1  -3 -12   36.32    1.04
  -1   3  12   34.32    2.13
  -1   3 -12   36.26    0.86
  -1   3 -12   33.88    2.02
   1   3  12   34.37    1.59
   1  -3 -12   37.16    1.02
  -2  -3 -12    4.42    0.45
   2   3 -12    4.83    1.02
  -2   3  12    4.51    1.13
   2   3 -12    4.40    0.39
  -2   3 -12    4.13    1.09
   2  -3 -12    4.67    0.48
  -2  -3  12    4.06    0.91
  -2   3 -12    4.28    0.38
   3   3 -12    1.49    0.35
  -3   3  12    4.29    1.33
  -3  -3 -12    1.70    0.49
   3  -3 -12    1.65    0.37
   4   3 -12    4.59    0.64
  -4  -3 -12    4.06    0.62
  -4   3  12    2.62    1.09
  -4   3 -12    4.54    1.22
   0   4 -12    0.51    0.23
   0  -4 -12    0.56    0.31
   0   4  12    2.12    0.83
  -1  -4 -12    0.63    0.36
  -1   4  12    1.06    0.89
   1   4 -12    0.99    0.24
   1  -4 -12    0.70    0.31
   1   4  12    1.73    0.72
   2   4 -12   74.16    2.02
  -2   4  12   72.78    2.85
  -2  -4 -12   70.93    1.90
   2  -4 -12   72.49    1.75
  -3   4  12    6.63    1.38
   3   4 -12    6.94    0.62
  -3  -4 -12    7.05    0.69
   3  -4 -12    7.37    0.69
  -3   4 -12    9.36    1.16
   0  -5 -12   -0.04    0.37
   0   5  12    1.05    0.98
  -1  -5 -12   16.24    0.87
   1   5 -12   17.65    0.62
  -1   5  12   21.36    1.96
   1   5  12   18.78    1.47
   1  -5 -12   17.10    0.79
   2   5 -12    1.14    0.35
  -2  -5 -12    1.74    0.51
  -2   5  12   -0.34    1.17
   2  -5 -12    1.80    0.50
  -3  -5 -12   -0.51    0.48
  -3   5  12    0.37    1.14
   3   5 -12    0.28    0.79
  -3   5 -12   -1.56    0.77
   3  -5 -12    0.34    0.46
   0   6  12    1.31    1.06
   0  -6 -12    1.11    0.51
  -1  -6 -12    0.01    0.49
  -1   6  12    2.18    1.54
   1  -6 -12    0.05    0.46
   0   0 -13    0.33    0.23
   0   0 -13    0.10    0.82
   0   0  13    0.50    0.46
  -1   0 -13   95.80    3.10
   1   0 -13  104.92    3.02
  -1   0 -13  103.63    2.23
  -1   0  13  109.34    3.19
   1   0 -13  101.45    2.24
  -2   0 -13   93.17    2.04
   2   0 -13   90.15    2.85
  -2   0  13   89.68    3.07
   2   0 -13   91.37    2.05
  -3   0 -13   20.35    0.77
  -3   0  13   22.97    2.22
   3   0 -13   19.74    0.78
   3   0 -13   19.16    1.70
  -4   0 -13   12.84    0.74
   0  -1 -13    2.10    0.94
   0   1  13    2.77    0.77
   0  -1  13    2.26    0.57
   0   1 -13    1.55    0.79
   0   1 -13    3.21    0.31
   0  -1 -13    2.66    0.33
   1   1 -13   72.78    1.64
  -1   1  13   70.17    2.49
  -1  -1 -13   72.97    1.67
   1   1 -13   73.63    2.55
  -1   1 -13   69.43    2.57
  -1   1 -13   72.68    1.61
   1  -1 -13   72.48    2.01
   1  -1 -13   69.54    2.48
  -2  -1 -13    0.19    0.27
   2   1 -13   -0.09    0.26
   2   1 -13    0.12    0.78
  -2   1  13    1.67    0.77
   2  -1 -13   -0.46    0.85
  -2   1 -13   -0.09    1.13
   2  -1 -13    0.13    0.28
  -2   1 -13    0.55    0.24
  -2  -1  13    0.44    0.99
   3   1 -13    2.14    0.40
  -3  -1 -13    2.75    0.40
  -3   1  13    2.27    1.25
   3  -1 -13    1.93    0.36
  -3  -1  13    5.71    1.41
  -3   1 -13    2.58    0.35
   4   1 -13    0.78    0.67
  -4  -1 -13    0.85    0.50
  -4   1  13    0.43    1.46
  -4   1 -13    1.32    0.38
   4  -1 -13    0.93    0.68
   0   2 -13    0.21    0.80
   0   2  13   -1.11    0.85
   0   2 -13    0.18    0.20
   0  -2 -13   -0.19    0.26
   1   2 -13   80.43    2.78
  -1   2  13   80.62    2.83
  -1  -2 -13   79.15    1.84
   1   2 -13   77.46    1.74
  -1   2 -13   78.29    1.70
   1  -2 -13   76.16    1.81
  -1   2 -13   80.84    2.84
  -1  -2  13   74.92    2.56
  -2  -2 -13   74.82    1.77
  -2   2  13   74.57    2.86
   2   2 -13   71.43    1.69
  -2   2 -13   72.67    2.75
   2  -2 -13   75.11    1.76
  -2   2 -13   69.93    1.61
  -3   2  13   18.89    2.24
   3   2 -13   16.54    0.76
  -3  -2 -13   17.26    0.83
  -3   2 -13   16.64    0.65
   3  -2 -13   16.82    0.78
  -4  -2 -13   10.12    0.97
  -4   2  13   11.78    1.89
   4   2 -13   10.20    0.80
  -4   2 -13    9.49    0.65
   4  -2 -13    9.03    0.76
   0   3 -13    2.36    1.27
   0   3 -13    2.37    0.28
   0   3  13    1.74    1.00
   0  -3 -13    1.92    0.33
  -1  -3 -13   47.66    1.31
   1   3 -13   48.59    2.29
   1   3 -13   48.15    1.17
  -1   3  13   51.91    2.48
   1   3  13   48.56    1.93
  -1   3 -13   50.76    2.48
   1  -3 -13   48.18    1.29
  -1   3 -13   46.87    1.12
  -2  -3 -13    0.47    0.35
   2   3 -13    0.28    0.28
  -2   3  13   -0.73    1.06
   2  -3 -13    0.26    0.31
  -2   3 -13    0.72    0.34
  -3   3  13    1.45    1.32
  -3  -3 -13    0.37    0.44
   3   3 -13    0.65    0.35
   3  -3 -13    0.79    0.37
  -4   3  13    1.56    1.18
   4   3 -13    1.03    0.45
  -4  -3 -13    0.43    0.48
   4  -3 -13   -0.24    0.41
   0   4  13   -0.04    0.88
   0  -4 -13    0.00    0.29
   0   4 -13    0.05    0.24
   1   4 -13   36.06    0.95
  -1  -4 -13   35.85    1.15
  -1   4  13   34.20    2.24
   1  -4 -13   38.01    1.13
   1   4  13   37.26    1.76
   2   4 -13   36.17    1.05
  -2  -4 -13   37.23    1.21
  -2   4  13   36.76    2.43
  -3   4  13   11.92    1.62
   3   4 -13    9.25    0.89
  -3  -4 -13   10.32    0.84
   3  -4 -13    8.39    0.83
  -3   4 -13    9.57    1.22
   0   5  13   -0.31    0.91
   0  -5 -13    0.67    0.43
  -1  -5 -13   24.62    1.04
   1   5 -13   23.53    0.73
  -1   5  13   21.73    2.14
   1  -5 -13   22.42    0.96
   1   5  13   24.12    1.51
  -2  -5 -13    0.68    0.43
   2   5 -13    0.13    0.35
  -2   5  13    0.95    1.30
   2  -5 -13    0.37    0.45
   0   0  14    0.02    0.49
   0   0 -14    0.90    1.00
   0   0 -14    0.39    0.27
   1   0 -14    0.22    0.27
  -1   0 -14    0.37    0.27
   1   0 -14    1.35    1.35
  -1   0  14   -0.72    0.73
   2   0 -14   17.62    0.73
  -2   0  14   19.88    1.99
  -2   0 -14   18.34    0.72
   2   0 -14   18.65    1.69
   3   0 -14    2.89    0.42
  -3   0  14    5.12    1.56
  -3   0 -14    3.29    0.42
   4   0 -14    0.43    0.41
  -4   0 -14   -0.69    0.39
   0  -1  14   -0.54    0.50
   0  -1 -14    0.27    0.28
   0   1 -14    0.05    0.24
   0   1 -14    0.96    0.97
   0   1  14    0.11    0.67
  -1  -1 -14   15.28    0.65
   1   1 -14   16.91    1.65
  -1   1  14   14.99    1.56
  -1  -1  14   15.07    1.57
   1  -1 -14   14.90    0.64
  -1   1 -14   16.01    0.62
  -1   1 -14   15.71    1.75
  -2   1  14    7.79    1.21
  -2  -1 -14   12.40    0.64
   2   1 -14   12.45    0.62
   2   1 -14   12.07    1.65
  -2   1 -14   12.47    0.57
  -2  -1  14   11.48    1.49
   2  -1 -14   11.86    0.63
   3   1 -14    6.37    0.58
  -3  -1 -14    5.99    0.62
  -3   1  14    4.36    1.32
  -3   1 -14    7.47    0.80
   3  -1 -14    6.85    0.82
   4   1 -14    0.55    0.43
  -4  -1 -14    0.19    0.46
   4  -1 -14    0.16    0.39
  -4   1 -14    0.42    0.38
   0   2 -14    1.78    0.28
   0   2  14    2.42    1.10
   0  -2 -14    2.21    0.37
   0   2 -14    2.82    1.03
   1   2 -14   -0.02    0.24
   1   2 -14   -0.49    1.07
  -1   2  14   -0.94    1.23
  -1  -2 -14    0.66    0.33
   1  -2 -14    0.20    0.30
  -1  -2  14    0.22    0.92
  -1   2 -14    1.40    1.03
  -1   2 -14    0.32    0.23
  -2  -2 -14   14.39    0.73
   2   2 -14   13.53    0.62
   2  -2 -14   14.32    0.70
  -2   2 -14   13.88    0.56
  -2   2 -14    8.77    1.32
  -2  -2  14   13.91    1.76
   3   2 -14    2.60    0.47
  -3   2  14    4.42    1.55
  -3  -2 -14    2.87    0.50
   3  -2 -14    3.11    0.46
  -3   2 -14    2.86    0.37
   4   2 -14   -0.05    0.42
  -4  -2 -14    1.36    0.52
  -4   2  14    0.72    1.55
   4  -2 -14    0.03    0.41
  -4   2 -14   -0.04    0.68
   0  -3 -14    0.02    0.29
   0   3  14   -0.49    0.89
   0   3 -14    0.58    0.25
  -1   3  14    9.45    1.40
   1   3 -14    9.82    0.52
  -1  -3 -14   10.30    0.65
   1   3  14   10.33    1.30
  -1   3 -14   10.00    0.49
   1  -3 -14   10.41    0.65
   2   3 -14    6.17    0.53
  -2  -3 -14    7.31    0.71
  -2   3  14    6.84    1.65
  -2   3 -14    7.17    0.47
  -3   3  14    4.03    1.55
  -3  -3 -14    5.23    0.62
   3   3 -14    4.87    0.57
   3  -3 -14    4.48    0.53
   0  -4 -14    4.27    0.50
   0   4 -14    4.13    0.35
   0   4  14    3.07    1.13
  -1   4  14   -0.19    1.10
  -1  -4 -14   -0.29    0.40
   1   4 -14    0.25    0.30
   1  -4 -14    0.43    0.40
   1   4  14    1.10    0.82
  -2  -4 -14    7.54    0.77
   2   4 -14    7.78    0.59
  -2   4  14    7.13    1.48
   3   4 -14    1.89    0.46
  -3   4  14    0.54    1.43
  -3  -4 -14    2.55    0.54
   3  -4 -14    0.93    0.43
  -3   4 -14    0.63    1.10
   0   5  14   -0.18    0.97
   0  -5 -14   -0.42    0.45
  -1  -5 -14    4.43    0.57
  -1   5  14    5.11    1.25
   1  -5 -14    4.25    0.58
   0   0  15    0.73    0.64
   0   0 -15    0.10    0.27
   1   0 -15   -0.27    0.27
  -1   0  15    0.07    0.73
   1   0 -15   -0.74    1.14
  -1   0 -15    0.33    0.27
   2   0 -15    1.08    1.16
  -2   0 -15    0.17    0.29
   2   0 -15    0.04    0.32
  -2   0  15    1.30    1.33
  -3   0 -15    6.08    0.60
   3   0 -15    6.93    0.65
  -3   0  15    4.49    1.33
  -4   0 -15    8.36    0.79
   4   0 -15    9.02    0.72
   0   1 -15    0.26    0.31
   0  -1 -15   -0.31    0.28
   0   1 -15    2.07    1.13
   0   1  15    0.60    1.01
   1   1 -15   11.62    0.59
  -1  -1 -15   11.82    0.62
   1   1 -15   14.44    1.70
  -1   1  15    9.14    1.08
   1  -1 -15   11.20    0.61
  -1   1 -15   10.38    0.56
  -2  -1 -15    0.28    0.35
  -2   1  15   -0.84    1.38
   2   1 -15    0.36    0.33
   2  -1 -15    0.17    0.33
  -2   1 -15    0.71    0.51
  -2  -1  15    0.07    1.06
  -3  -1 -15   13.88    0.94
   3   1 -15   16.31    0.79
  -3   1  15   10.86    1.81
  -3   1 -15   14.49    0.69
   4   1 -15   14.02    0.83
  -4  -1 -15   13.99    0.94
   4  -1 -15   13.89    0.85
  -4   1 -15   14.43    0.81
   0   2 -15   -0.94    1.27
   0  -2 -15   -0.64    0.31
   0   2  15   -0.36    0.88
   0   2 -15   -0.19    0.25
   1   2 -15   -0.03    0.26
  -1  -2 -15    0.31    0.34
  -1   2  15   -0.13    0.86
  -1   2 -15   -0.23    0.26
  -1   2 -15    0.63    1.25
   1  -2 -15   -0.07    0.31
  -1  -2  15    0.70    0.59
  -2  -2 -15    0.02    0.39
  -2   2  15    1.72    1.43
   2   2 -15    0.21    0.33
  -2   2 -15    0.60    0.27
   2  -2 -15    0.09    0.36
  -3  -2 -15    4.95    0.88
   3   2 -15    4.91    0.51
  -3   2  15    5.92    1.89
   3  -2 -15    4.32    0.54
  -3   2 -15    5.59    0.57
   0   3  15    5.46    1.24
  -1  -3 -15    8.46    0.70
   1   3 -15    8.71    0.54
  -1   3  15    9.41    1.55
   1  -3 -15    8.40    0.69
  -1   3 -15    9.31    0.51
   2   3 -15   -0.23    0.32
  -2  -3 -15    0.38    0.51
  -2   3  15   -0.11    1.28
  -2   3 -15    0.11    0.34
  -3  -3 -15    9.83    0.85
  -3   3  15   11.67    1.80
   3  -3 -15    8.67    0.74
   0  -4 -15   -0.22    0.44
   0   4 -15    0.18    0.28
   0   4  15   -0.80    1.05
   1   4 -15   -0.07    0.30
  -1   4  15    0.95    1.27
  -1  -4 -15    0.47    0.45
   1  -4 -15    0.22    0.45
   2   4 -15    0.53    0.37
  -2  -4 -15    0.12    0.41
  -2   4  15    0.27    1.50
   2  -4 -15    0.31    0.45
   0   0  16    2.88    0.80
   0   0 -16    2.89    0.39
  -1   0 -16    5.31    0.53
  -1   0  16    3.27    1.02
   1   0 -16    5.52    0.54
   2   0 -16    0.94    0.47
  -2   0  16    0.63    1.55
  -2   0 -16    1.67    0.38
  -3   0 -16    4.63    0.51
   3   0 -16    4.66    0.54
   0   1 -16   -0.36    1.32
   0   1 -16   -0.40    0.26
   0  -1 -16    0.06    0.32
   0   1  16   -0.17    0.81
   1   1 -16    1.54    0.34
  -1  -1 -16    1.02    0.36
  -1   1  16    1.42    1.58
  -1  -1  16    1.62    1.18
   1  -1 -16    0.15    0.33
  -1   1 -16    0.60    0.30
  -2   1  16    0.68    1.14
  -2  -1 -16    1.69    0.41
   2   1 -16    2.01    0.47
   2  -1 -16    1.47    0.42
  -2   1 -16    2.52    0.37
   3   1 -16   23.59    0.99
  -3  -1 -16   22.93    1.21
  -3   1 -16   21.59    0.88
   3  -1 -16   22.14    0.97
   0   2  16    1.98    1.01
   0   2 -16    2.14    0.33
   0  -2 -16    1.69    0.69
  -1   2  16    2.76    1.24
   1   2 -16    3.30    0.40
  -1  -2 -16    4.25    0.55
   1  -2 -16    3.54    0.47
  -2   2  16    1.65    1.55
   2   2 -16    0.20    0.34
  -2  -2 -16    1.17    0.71
   2  -2 -16    0.58    0.40
  -3   2  16    2.70    2.25
  -3  -2 -16    4.45    0.60
   3   2 -16    4.25    0.53
  -3   2 -16    4.60    0.47
   3  -2 -16    3.65    0.53
   0  -3 -16    0.97    0.74
   0   3  16    0.42    1.07
   0   3 -16    0.47    0.58
  -1   3  16   -0.42    1.21
  -1  -3 -16    0.68    0.45
   1   3 -16    0.67    0.32
   1  -3 -16    1.22    0.45
  -1   3 -16    1.24    0.32
   2   3 -16    1.32    0.46
  -2   3  16    2.49    1.56
  -2  -3 -16    2.40    0.51
   2  -3 -16    1.45    0.46
   0   4 -16    1.78    0.33
   0   4  16    0.89    1.07
   0  -4 -16    1.42    0.50
   1   4 -16    1.53    0.38
  -1   4  16   -0.58    1.48
  -1  -4 -16    0.74    0.43
   1  -4 -16    1.18    0.47
   0   0  17    0.25    0.85
   0   0 -17    0.29    0.33
  -1   0 -17   -0.42    0.33
  -1   0  17    0.14    1.04
  -2   0 -17    6.76    0.67
   2   0 -17    7.86    0.72
  -2   0  17    7.21    1.69
  -3   0 -17    9.50    0.80
   3   0 -17    9.10    0.77
   0   1  17   55.07    2.50
   0   1 -17   53.69    1.40
   0  -1 -17   53.17    1.50
  -1  -1 -17    2.62    0.49
   1   1 -17    2.50    0.40
  -1   1  17    1.70    1.25
  -1  -1  17    0.87    0.59
   1  -1 -17    1.55    0.44
  -1   1 -17    1.46    0.36
  -2  -1 -17   35.15    1.22
   2   1 -17   35.76    1.58
  -2   1  17   28.62    2.68
  -2   1 -17   34.72    1.07
   2  -1 -17   36.20    1.17
  -3  -1 -17    3.76    0.55
   3   1 -17    3.21    0.50
  -3   1 -17    4.17    0.52
   3  -1 -17    3.96    0.54
   0   2  17    0.00    1.09
   0   2 -17   -0.31    0.29
   0  -2 -17   -0.24    0.74
  -1   2  17    0.19    1.14
   1   2 -17   -0.06    0.33
  -1  -2 -17   -0.08    0.43
  -1   2 -17    0.08    0.34
   1  -2 -17    0.38    0.43
  -2  -2 -17    5.89    0.62
  -2   2  17    4.53    1.46
   2   2 -17    5.82    0.62
  -2   2 -17    4.30    0.45
   2  -2 -17    4.66    0.53
   0   3 -17   32.35    0.98
   0   3  17   32.50    2.33
  -1   3  17    2.93    1.40
   1   3 -17    1.50    0.38
  -1  -3 -17    1.19    0.47
  -1   3 -17    1.91    0.41
   1  -3 -17    1.46    0.46
   0   0 -18    1.21    0.44
   1   0 -18    4.60    0.56
  -1   0 -18    3.51    0.49
  -1   0  18    3.11    1.40
  -2   0 -18    2.05    0.69
   2   0 -18    1.55    0.46
   0   1 -18   -0.15    0.55
   0  -1 -18   -0.02    0.46
   0   1  18    0.00    0.97
   1   1 -18    9.11    0.71
  -1  -1 -18    9.42    0.77
  -1   1  18   13.96    2.08
   1  -1 -18    8.03    0.76
  -1   1 -18    8.36    0.66
  -2  -1 -18    3.06    0.54
   2   1 -18    2.83    0.50
  -2   1  18    2.36    1.58
  -2   1 -18    2.47    0.56
   2  -1 -18    2.56    0.50
   0   2  18    1.63    1.43
   0  -2 -18    1.18    0.44
   0   2 -18    0.99    0.39
   1   2 -18    2.88    0.47
  -1  -2 -18    3.47    0.53
  -1   2  18    3.06    1.54
  -1   2 -18    3.41    0.45
   1  -2 -18    3.14    0.52
   0   0 -19    0.14    0.45
  -1   0 -19   32.73    1.18
   1   0 -19   34.94    1.18
   0   1  19   -0.64    1.38
   0   1 -19    2.89    0.72
   0  -1 -19    2.82    0.48
   0   0   0    0.00    0.00
;
_shelx_hkl_checksum              1468
loop_
_space_group_symop_operation_xyz
'x, y, z'
'-x+1/2, -y, z+1/2'
'x+1/2, -y+1/2, -z+1/2'
'-x, y+1/2, -z'
'-x, -y, -z'
'x-1/2, y, -z-1/2'
'-x-1/2, y-1/2, z-1/2'
'x, -y-1/2, z'
loop_
_atom_site_label
_atom_site_type_symbol
_atom_site_fract_x
_atom_site_fract_y
_atom_site_fract_z
_atom_site_U_iso_or_equiv
_atom_site_adp_type
_atom_site_occupancy
_atom_site_site_symmetry_order
_atom_site_calc_flag
_atom_site_refinement_flags_posn
_atom_site_refinement_flags_adp
_atom_site_refinement_flags_occupancy
O1 O 0.4806(3) 0.2500 0.53909(12) 0.0294(5) Uani 1 2 d S T P
N3 N 0.7662(4) 0.2500 0.41585(14) 0.0263(5) Uani 1 2 d S T P
N4 N 0.9234(4) 0.2500 0.55787(14) 0.0258(5) Uani 1 2 d S T P
H4A H 1.0714 0.2500 0.5301 0.031 Uiso 1 2 calc R U P
N2 N 0.5666(4) 0.2500 0.36759(15) 0.0281(5) Uani 1 2 d S T P
C1 C 0.7053(4) 0.2500 0.50982(16) 0.0217(5) Uani 1 2 d S T P
N1 N 0.4013(5) 0.2500 0.31775(16) 0.0421(7) Uani 1 2 d S T P
C2 C 0.9247(5) 0.2500 0.65497(17) 0.0315(6) Uani 1 2 d S T P
H2A H 1.1026 0.2500 0.6762 0.047 Uiso 1 2 calc R U P
H2B H 0.8362 0.3795 0.6766 0.047 Uiso 0.5 1 calc R U P
H2C H 0.8362 0.1205 0.6766 0.047 Uiso 0.5 1 calc R U P
loop_
_atom_site_aniso_label
_atom_site_aniso_U_11
_atom_site_aniso_U_22
_atom_site_aniso_U_33
_atom_site_aniso_U_23
_atom_site_aniso_U_13
_atom_site_aniso_U_12
O1 0.0154(8) 0.0380(11) 0.0348(10) 0.000 0.0057(7) 0.000
N3 0.0176(9) 0.0338(11) 0.0274(11) 0.000 0.0015(8) 0.000
N4 0.0157(9) 0.0341(12) 0.0277(11) 0.000 0.0031(8) 0.000
N2 0.0242(11) 0.0310(12) 0.0289(11) 0.000 0.0023(9) 0.000
C1 0.0172(11) 0.0193(11) 0.0287(12) 0.000 0.0037(9) 0.000
N1 0.0328(13) 0.0584(18) 0.0350(14) 0.000 -0.0059(11) 0.000
C2 0.0301(13) 0.0371(15) 0.0273(13) 0.000 0.0008(10) 0.000
loop_
_atom_type_symbol
_atom_type_description
_atom_type_scat_dispersion_real
_atom_type_scat_dispersion_imag
_atom_type_scat_source
C C 0.0033 0.0016 'International Tables Vol C Tables 4.2.6.8 and 6.1.1.4'
H H 0.0000 0.0000 'International Tables Vol C Tables 4.2.6.8 and 6.1.1.4'
N N 0.0061 0.0033 'International Tables Vol C Tables 4.2.6.8 and 6.1.1.4'
O O 0.0106 0.0060 'International Tables Vol C Tables 4.2.6.8 and 6.1.1.4'
loop_
_geom_angle_atom_site_label_1
_geom_angle_atom_site_label_2
_geom_angle_atom_site_label_3
_geom_angle
N2 N3 C1 112.76(19)
C1 N4 C2 123.0(2)
N1 N2 N3 173.9(3)
O1 C1 N4 126.4(2)
O1 C1 N3 123.3(2)
N4 C1 N3 110.29(19)
loop_
_geom_bond_atom_site_label_1
_geom_bond_atom_site_label_2
_geom_bond_distance
O1 C1 1.225(3)
N3 N2 1.245(3)
N3 C1 1.433(3)
N4 C1 1.322(3)
N4 C2 1.446(3)
N2 N1 1.123(3)
