#------------------------------------------------------------------------------
#$Date: 2019-11-24 01:44:36 +0200 (Sun, 24 Nov 2019) $
#$Revision: 236083 $
#$URL: file:///home/coder/svn-repositories/cod/cif/1/55/38/1553839.cif $
#------------------------------------------------------------------------------
#
# This file is available in the Crystallography Open Database (COD),
# http://www.crystallography.net/
#
# All data on this site have been placed in the public domain by the
# contributors.
#
data_1553839
loop_
_publ_author_name
'Yang, Zi'
'Lin, Xing'
'Wang, Lianhui'
'Cui, Xiuling'
_publ_section_title
;
 Facile synthesis of 1-aminoindoles via Rh(iii)-catalysed intramolecular
 three-component annulation
;
_journal_issue                   11
_journal_name_full               'Organic Chemistry Frontiers'
_journal_page_first              2179
_journal_paper_doi               10.1039/C7QO00541E
_journal_volume                  4
_journal_year                    2017
_chemical_formula_moiety         'C15 H17 F N2 O2'
_chemical_formula_sum            'C15 H17 F N2 O2'
_chemical_formula_weight         276.30
_space_group_crystal_system      triclinic
_space_group_IT_number           2
_space_group_name_Hall           '-P 1'
_space_group_name_H-M_alt        'P -1'
_atom_sites_solution_hydrogens   geom
_atom_sites_solution_primary     iterative
_audit_creation_date             2017-02-20
_audit_creation_method
;
Olex2 1.2
(compiled 2017.01.04 svn.r3372 for OlexSys, GUI svn.r5292)
;
_audit_update_record
;
2017-07-01 deposited with the CCDC.
2017-08-03 downloaded from the CCDC.
;
_cell_angle_alpha                114.205(8)
_cell_angle_beta                 92.568(7)
_cell_angle_gamma                116.743(8)
_cell_formula_units_Z            2
_cell_length_a                   9.5214(8)
_cell_length_b                   9.6784(8)
_cell_length_c                   9.8861(8)
_cell_measurement_reflns_used    2517
_cell_measurement_temperature    293(2)
_cell_measurement_theta_max      70.6540
_cell_measurement_theta_min      5.4030
_cell_volume                     712.04(14)
_computing_cell_refinement
;
CrysAlisPro, Agilent Technologies,
Version 1.171.37.35 (release 13-08-2014 CrysAlis171 .NET)
(compiled Aug 13 2014,18:06:01)
;
_computing_data_collection
;
CrysAlisPro, Agilent Technologies,
Version 1.171.37.35 (release 13-08-2014 CrysAlis171 .NET)
(compiled Aug 13 2014,18:06:01)
;
_computing_data_reduction
;
CrysAlisPro, Agilent Technologies,
Version 1.171.37.35 (release 13-08-2014 CrysAlis171 .NET)
(compiled Aug 13 2014,18:06:01)
;
_computing_molecular_graphics    'Olex2 (Dolomanov et al., 2009)'
_computing_publication_material  'Olex2 (Dolomanov et al., 2009)'
_computing_structure_refinement  'ShelXL (Sheldrick, 2015)'
_computing_structure_solution
;
Superflip (Palatinus & Chapuis, 2007;Palatinus & van der Lee, 2008;
Palatinus et al., 2012)
;
_diffrn_ambient_temperature      293(2)
_diffrn_detector                 'CCD plate'
_diffrn_detector_area_resol_mean 16.2312
_diffrn_detector_type            Eos
_diffrn_measured_fraction_theta_full 0.995
_diffrn_measured_fraction_theta_max 0.995
_diffrn_measurement_details
;
#__ type_ start__ end____ width___ exp.time_
  1 omega  -62.00   36.00   1.0000    1.0000
omega____ theta____ kappa____ phi______ frames
    -      -33.5000   77.0000   60.0000 98

#__ type_ start__ end____ width___ exp.time_
  2 omega  -52.00   35.00   1.0000    1.0000
omega____ theta____ kappa____ phi______ frames
    -      -33.5000   57.0000  120.0000 87

#__ type_ start__ end____ width___ exp.time_
  3 omega -102.00  -15.00   1.0000    1.0000
omega____ theta____ kappa____ phi______ frames
    -      -33.5000  -57.0000  -60.0000 87

#__ type_ start__ end____ width___ exp.time_
  4 omega -108.00  -32.00   1.0000    1.0000
omega____ theta____ kappa____ phi______ frames
    -      -33.5000  178.0000  150.0000 76

#__ type_ start__ end____ width___ exp.time_
  5 omega  -34.00   59.00   1.0000    1.0000
omega____ theta____ kappa____ phi______ frames
    -       36.4734  -37.0000 -120.0000 93

#__ type_ start__ end____ width___ exp.time_
  6 omega   -4.00   77.00   1.0000    1.0000
omega____ theta____ kappa____ phi______ frames
    -       36.4734  -99.0000 -180.0000 81

#__ type_ start__ end____ width___ exp.time_
  7 omega  -33.00   65.00   1.0000    1.0000
omega____ theta____ kappa____ phi______ frames
    -       36.4734  -77.0000  -90.0000 98

#__ type_ start__ end____ width___ exp.time_
  8 omega  -32.00   10.00   1.0000    1.0000
omega____ theta____ kappa____ phi______ frames
    -       36.4734  -37.0000  -60.0000 42

#__ type_ start__ end____ width___ exp.time_
  9 omega   28.00   60.00   1.0000    1.0000
omega____ theta____ kappa____ phi______ frames
    -       36.4734  -32.0000   29.0000 32

#__ type_ start__ end____ width___ exp.time_
 10 omega   48.00   98.00   1.0000    1.0000
omega____ theta____ kappa____ phi______ frames
    -       36.4734   57.0000 -150.0000 50

#__ type_ start__ end____ width___ exp.time_
 11 omega  -31.00    4.00   1.0000    1.0000
omega____ theta____ kappa____ phi______ frames
    -       36.4734  -32.0000   29.0000 35

#__ type_ start__ end____ width___ exp.time_
 12 omega   -3.00   31.00   1.0000    1.0000
omega____ theta____ kappa____ phi______ frames
    -       36.4734  -99.0000  120.0000 34

#__ type_ start__ end____ width___ exp.time_
 13 omega   47.00   76.00   1.0000    1.0000
omega____ theta____ kappa____ phi______ frames
    -       36.4734  -99.0000  120.0000 29

#__ type_ start__ end____ width___ exp.time_
 14 omega   13.00   59.00   1.0000    1.0000
omega____ theta____ kappa____ phi______ frames
    -       36.4734  -37.0000  -60.0000 46

#__ type_ start__ end____ width___ exp.time_
 15 omega   55.00  108.00   1.0000    1.0000
omega____ theta____ kappa____ phi______ frames
    -      108.0000  -94.0000  -90.0000 53

#__ type_ start__ end____ width___ exp.time_
 16 omega  120.00  146.00   1.0000    1.0000
omega____ theta____ kappa____ phi______ frames
    -      108.0000  -15.0000  150.0000 26

#__ type_ start__ end____ width___ exp.time_
 17 omega   47.00  109.00   1.0000    1.0000
omega____ theta____ kappa____ phi______ frames
    -      108.0000  -15.0000  150.0000 62

#__ type_ start__ end____ width___ exp.time_
 18 omega   44.00   69.00   1.0000    1.0000
omega____ theta____ kappa____ phi______ frames
    -      108.0000  -61.0000  120.0000 25

#__ type_ start__ end____ width___ exp.time_
 19 omega   38.00   88.00   1.0000    1.0000
omega____ theta____ kappa____ phi______ frames
    -      108.0000 -111.0000  150.0000 50

#__ type_ start__ end____ width___ exp.time_
 20 omega  111.00  176.00   1.0000    1.0000
omega____ theta____ kappa____ phi______ frames
    -      108.0000   61.0000  -90.0000 65

#__ type_ start__ end____ width___ exp.time_
 21 omega  101.00  128.00   1.0000    1.0000
omega____ theta____ kappa____ phi______ frames
    -      108.0000  -61.0000  120.0000 27

#__ type_ start__ end____ width___ exp.time_
 22 omega   40.00   98.00   1.0000    1.0000
omega____ theta____ kappa____ phi______ frames
    -      108.0000  -45.0000    0.0000 58

#__ type_ start__ end____ width___ exp.time_
 23 omega   40.00   93.00   1.0000    1.0000
omega____ theta____ kappa____ phi______ frames
    -      108.0000  -45.0000  -60.0000 53

#__ type_ start__ end____ width___ exp.time_
 24 omega   66.00  161.00   1.0000    1.0000
omega____ theta____ kappa____ phi______ frames
    -      108.0000   15.0000   30.0000 95

#__ type_ start__ end____ width___ exp.time_
 25 omega  112.00  138.00   1.0000    1.0000
omega____ theta____ kappa____ phi______ frames
    -      108.0000  111.0000  -60.0000 26

#__ type_ start__ end____ width___ exp.time_
 26 omega   44.00   91.00   1.0000    1.0000
omega____ theta____ kappa____ phi______ frames
    -      108.0000  -30.0000    0.0000 47

#__ type_ start__ end____ width___ exp.time_
 27 omega   62.00  102.00   1.0000    1.0000
omega____ theta____ kappa____ phi______ frames
    -      108.0000  -94.0000 -180.0000 40

#__ type_ start__ end____ width___ exp.time_
 28 omega   66.00  115.00   1.0000    1.0000
omega____ theta____ kappa____ phi______ frames
    -      108.0000 -111.0000   90.0000 49

#__ type_ start__ end____ width___ exp.time_
 29 omega   45.00   97.00   1.0000    1.0000
omega____ theta____ kappa____ phi______ frames
    -      108.0000  -45.0000 -150.0000 52

#__ type_ start__ end____ width___ exp.time_
 30 omega   55.00   95.00   1.0000    1.0000
omega____ theta____ kappa____ phi______ frames
    -      108.0000  -45.0000  120.0000 40

#__ type_ start__ end____ width___ exp.time_
 31 omega   70.00  115.00   1.0000    1.0000
omega____ theta____ kappa____ phi______ frames
    -      108.0000  -77.0000  -60.0000 45

#__ type_ start__ end____ width___ exp.time_
 32 omega   42.00   68.00   1.0000    1.0000
omega____ theta____ kappa____ phi______ frames
    -      108.0000  -77.0000  -60.0000 26
;
_diffrn_measurement_device       'four-circle diffractometer'
_diffrn_measurement_device_type  'Xcalibur, Eos, Gemini'
_diffrn_measurement_method       '\w scans'
_diffrn_orient_matrix_UB_11      0.1491664000
_diffrn_orient_matrix_UB_12      0.1716182000
_diffrn_orient_matrix_UB_13      0.0222391000
_diffrn_orient_matrix_UB_21      -0.1154466000
_diffrn_orient_matrix_UB_22      0.0432430000
_diffrn_orient_matrix_UB_23      -0.0653645000
_diffrn_orient_matrix_UB_31      -0.0085876000
_diffrn_orient_matrix_UB_32      0.1003675000
_diffrn_orient_matrix_UB_33      0.1640695000
_diffrn_radiation_monochromator  graphite
_diffrn_radiation_probe          x-ray
_diffrn_radiation_type           CuK\a
_diffrn_radiation_wavelength     1.54184
_diffrn_reflns_av_R_equivalents  0.0165
_diffrn_reflns_av_unetI/netI     0.0230
_diffrn_reflns_Laue_measured_fraction_full 0.995
_diffrn_reflns_Laue_measured_fraction_max 0.995
_diffrn_reflns_limit_h_max       11
_diffrn_reflns_limit_h_min       -11
_diffrn_reflns_limit_k_max       11
_diffrn_reflns_limit_k_min       -11
_diffrn_reflns_limit_l_max       11
_diffrn_reflns_limit_l_min       -8
_diffrn_reflns_number            4970
_diffrn_reflns_point_group_measured_fraction_full 0.995
_diffrn_reflns_point_group_measured_fraction_max 0.995
_diffrn_reflns_theta_full        67.072
_diffrn_reflns_theta_max         67.072
_diffrn_reflns_theta_min         5.112
_diffrn_source                   'Enhance (Cu) X-ray Source'
_exptl_absorpt_coefficient_mu    0.790
_exptl_absorpt_correction_T_max  1.00000
_exptl_absorpt_correction_T_min  0.93593
_exptl_absorpt_correction_type   multi-scan
_exptl_absorpt_process_details
;
CrysAlisPro, Agilent Technologies,
Version 1.171.37.35 (release 13-08-2014 CrysAlis171 .NET)
(compiled Aug 13 2014,18:06:01)
Empirical absorption correction using spherical harmonics,
 implemented in SCALE3 ABSPACK scaling algorithm.
;
_exptl_crystal_colour            colourless
_exptl_crystal_colour_primary    colourless
_exptl_crystal_density_diffrn    1.289
_exptl_crystal_description       prism
_exptl_crystal_F_000             292
_exptl_crystal_size_max          0.25
_exptl_crystal_size_mid          0.2
_exptl_crystal_size_min          0.15
_refine_diff_density_max         0.180
_refine_diff_density_min         -0.129
_refine_diff_density_rms         0.030
_refine_ls_extinction_coef       0.029(2)
_refine_ls_extinction_expression Fc^*^=kFc[1+0.001xFc^2^\l^3^/sin(2\q)]^-1/4^
_refine_ls_extinction_method     'SHELXL-2014/7 (Sheldrick 2014'
_refine_ls_goodness_of_fit_ref   1.042
_refine_ls_hydrogen_treatment    constr
_refine_ls_matrix_type           full
_refine_ls_number_parameters     186
_refine_ls_number_reflns         2536
_refine_ls_number_restraints     0
_refine_ls_restrained_S_all      1.042
_refine_ls_R_factor_all          0.0440
_refine_ls_R_factor_gt           0.0376
_refine_ls_shift/su_max          0.000
_refine_ls_shift/su_mean         0.000
_refine_ls_structure_factor_coef Fsqd
_refine_ls_weighting_details
'w=1/[\s^2^(Fo^2^)+(0.0551P)^2^+0.1065P] where P=(Fo^2^+2Fc^2^)/3'
_refine_ls_weighting_scheme      calc
_refine_ls_wR_factor_gt          0.1015
_refine_ls_wR_factor_ref         0.1075
_reflns_Friedel_coverage         0.000
_reflns_number_gt                2167
_reflns_number_total             2536
_reflns_threshold_expression     'I > 2\s(I)'
_iucr_refine_instructions_details
;

    20170211.res created by SHELXL-2014/7

TITL CF solution in P-1
CELL 1.54184 9.52141 9.678402 9.886136 114.2047 92.5675 116.7426
ZERR 2 0.000751 0.000847 0.000765 0.0079 0.0066 0.0084
LATT 1
SFAC C H F N O
UNIT 30 34 2 4 4
 
L.S. 4 0 0
PLAN  20
bond $h
conf
fmap 2
acta
SHEL 999 0.837
REM <olex2.extras>
REM <HklSrc "%.\\20170211.hkl">
REM </olex2.extras>
 
WGHT    0.055100    0.106500
EXTI    0.029236
FVAR      11.80355
C1    1    1.046225    0.200781    0.332131    11.00000    0.05395    0.04431 =
         0.04152    0.01562    0.01302    0.03001
C2    1    1.207444    0.291334    0.411427    11.00000    0.05025    0.05884 =
         0.06100    0.02667    0.02121    0.03558
AFIX  43
H2    2    1.282439    0.272428    0.361187    11.00000   -1.20000
AFIX   0
C3    1    1.259318    0.412595    0.568462    11.00000    0.04047    0.05834 =
         0.05761    0.02480    0.00738    0.02552
AFIX  43
H3    2    1.369138    0.472263    0.622320    11.00000   -1.20000
AFIX   0
C4    1    1.152387    0.446130    0.645577    11.00000    0.04304    0.04799 =
         0.04055    0.01563    0.00405    0.02217
AFIX  43
H4    2    1.189638    0.529247    0.749764    11.00000   -1.20000
AFIX   0
C5    1    0.985981    0.353027    0.564731    11.00000    0.04062    0.03833 =
         0.03807    0.01616    0.00695    0.02053
C6    1    0.934506    0.228460    0.406990    11.00000    0.04146    0.03785 =
         0.03924    0.01494    0.00623    0.02142
C7    1    0.841616    0.352331    0.603561    11.00000    0.04087    0.04114 =
         0.03869    0.01638    0.00935    0.02111
C8    1    0.711915    0.231375    0.471371    11.00000    0.04006    0.04333 =
         0.04473    0.01837    0.00911    0.02190
C9    1    0.535922    0.179518    0.440403    11.00000    0.03977    0.06579 =
         0.06211    0.02406    0.00825    0.02547
AFIX 137
H9A   2    0.501883    0.176278    0.345731    11.00000   -1.50000
H9B   2    0.522092    0.264081    0.523929    11.00000   -1.50000
H9C   2    0.470517    0.064819    0.431615    11.00000   -1.50000
AFIX   0
C10   1    0.829215    0.460366    0.751883    11.00000    0.04518    0.04746 =
         0.04349    0.01975    0.01302    0.02378
C11   1    0.980203    0.692050    1.007908    11.00000    0.06815    0.05551 =
         0.03892    0.01299    0.01540    0.03419
AFIX  23
H11A  2    0.922265    0.623714    1.057309    11.00000   -1.20000
H11B  2    0.927734    0.755316    1.000127    11.00000   -1.20000
AFIX   0
C12   1    1.155025    0.818707    1.099936    11.00000    0.07875    0.05977 =
         0.04688    0.01058    0.00490    0.03200
AFIX 137
H12A  2    1.209874    0.889580    1.052820    11.00000   -1.50000
H12B  2    1.206940    0.754577    1.103175    11.00000   -1.50000
H12C  2    1.161038    0.893671    1.203179    11.00000   -1.50000
AFIX   0
C13   1    0.637041   -0.119632    0.146065    11.00000    0.04156    0.04490 =
         0.04712    0.01146    0.01036    0.01798
C14   1    0.687767   -0.193171    0.230604    11.00000    0.06465    0.04938 =
         0.07484    0.02921    0.02624    0.02914
AFIX 137
H14A  2    0.764259   -0.224410    0.187829    11.00000   -1.50000
H14B  2    0.593219   -0.296368    0.220889    11.00000   -1.50000
H14C  2    0.738658   -0.106340    0.337819    11.00000   -1.50000
AFIX   0
C15   1    0.536774   -0.243098   -0.018425    11.00000    0.06665    0.06497 =
         0.05321   -0.00151   -0.00046    0.02300
AFIX 137
H15A  2    0.502926   -0.183721   -0.057560    11.00000   -1.50000
H15B  2    0.441815   -0.343757   -0.024905    11.00000   -1.50000
H15C  2    0.601043   -0.281283   -0.078684    11.00000   -1.50000
AFIX   0
F1    3    0.995559    0.084709    0.178766    11.00000    0.07015    0.06215 =
         0.04484    0.01079    0.01700    0.03865
N1    4    0.766656    0.154052    0.354796    11.00000    0.04157    0.03995 =
         0.03818    0.00990    0.00164    0.02031
N2    4    0.667928    0.039164    0.199384    11.00000    0.05058    0.04937 =
         0.03936    0.01107   -0.00204    0.02318
O1    5    0.704348    0.450482    0.781655    11.00000    0.05143    0.08127 =
         0.05791    0.01878    0.02202    0.03338
O2    5    0.976443    0.576689    0.855979    11.00000    0.05086    0.05307 =
         0.03758    0.00988    0.01028    0.02716
HKLF 4
 
REM  CF solution in P-1
REM R1 =  0.0376 for    2167 Fo > 4sig(Fo)  and  0.0440 for all    2536 data
REM    186 parameters refined using      0 restraints
 
END  
     
WGHT      0.0551      0.1065 

REM Highest difference peak  0.180,  deepest hole -0.129,  1-sigma level  0.030
Q1    1   0.8128 -0.1279  0.2900  11.00000  0.05    0.18
Q2    1   1.0639  0.4223  0.6049  11.00000  0.05    0.16
Q3    1   0.9767  0.1784  0.3803  11.00000  0.05    0.15
Q4    1   0.8723  0.2027  0.3727  11.00000  0.05    0.15
Q5    1   0.4549  0.0632  0.3328  11.00000  0.05    0.14
Q6    1   0.6231  0.2082  0.4653  11.00000  0.05    0.14
Q7    1   0.4958  0.1625  0.5259  11.00000  0.05    0.14
Q8    1   0.8435  0.3982  0.6709  11.00000  0.05    0.13
Q9    1   0.9731  0.3308  0.4802  11.00000  0.05    0.12
Q10   1   0.9118  0.3437  0.5969  11.00000  0.05    0.12
Q11   1   0.6571 -0.3250  0.1396  11.00000  0.05    0.12
Q12   1   0.7106 -0.0109  0.1536  11.00000  0.05    0.12
Q13   1   0.7662  0.2611  0.5563  11.00000  0.05    0.11
Q14   1   0.7920  0.3309  0.5360  11.00000  0.05    0.11
Q15   1   0.6048  0.0684  0.1547  11.00000  0.05    0.10
Q16   1   1.1323  0.3025  0.3579  11.00000  0.05    0.10
Q17   1   1.1963  0.3832  0.6282  11.00000  0.05    0.10
Q18   1   0.7299  0.1829  0.4299  11.00000  0.05    0.10
Q19   1   0.5616 -0.3560 -0.0579  11.00000  0.05    0.10
Q20   1   0.7438  0.4816  0.7430  11.00000  0.05    0.09

  REM The information below was added by Olex2.
  REM
  REM R1 = 0.0376 for 2167 Fo > 4sig(Fo) and 0.0440 for all 5126 data
  REM n/a parameters refined using n/a restraints
  REM Highest difference peak 0.18, deepest hole -0.13
  REM Mean Shift 0, Max Shift 0.000.

  REM +++ Tabular Listing of Refinement Information +++
  REM R1_all = 0.0440
  REM R1_gt = 0.0376
  REM wR_ref = 0.1075
  REM GOOF = 1.042
  REM Shift_max = 0.000
  REM Shift_mean = 0
  REM Reflections_all = 5126
  REM Reflections_gt = 2167
  REM Parameters = n/a
  REM Hole = -0.13
  REM Peak = 0.18
  REM Flack = n/a

  
;
_cod_data_source_file            c7qo00541e2.cif
_cod_data_source_block           20170211
_cod_original_cell_volume        712.05(12)
_cod_database_code               1553839
_shelx_shelxl_version_number     2014/7
_chemical_oxdiff_formula         C54H82N2O1F1
_shelx_space_group_comment
;
The symmetry employed for this shelxl refinement is uniquely defined
by the following loop, which should always be used as a source of
symmetry information in preference to the above space-group names.
They are only intended as comments.
;
_reflns_odcompleteness_completeness 99.49
_reflns_odcompleteness_iscentric 1
_reflns_odcompleteness_theta     66.97
_olex2_refinement_description
;
1. Fixed Uiso
 At 1.2 times of:
  All C(H) groups, All C(H,H) groups
 At 1.5 times of:
  All C(H,H,H) groups
2.a Secondary CH2 refined with riding coordinates:
 C11(H11A,H11B)
2.b Aromatic/amide H refined with riding coordinates:
 C2(H2), C3(H3), C4(H4)
2.c Idealised Me refined as rotating group:
 C9(H9A,H9B,H9C), C12(H12A,H12B,H12C), C14(H14A,H14B,H14C), C15(H15A,H15B,H15C)
;
_olex2_submission_special_instructions 'No special instructions were received'
loop_
_space_group_symop_operation_xyz
'x, y, z'
'-x, -y, -z'
loop_
_atom_site_label
_atom_site_type_symbol
_atom_site_fract_x
_atom_site_fract_y
_atom_site_fract_z
_atom_site_U_iso_or_equiv
_atom_site_adp_type
_atom_site_occupancy
_atom_site_site_symmetry_order
_atom_site_calc_flag
_atom_site_refinement_flags_posn
C1 C 1.04623(19) 0.20078(19) 0.33213(17) 0.0465(4) Uani 1 1 d .
C2 C 1.2074(2) 0.2913(2) 0.41143(19) 0.0540(4) Uani 1 1 d .
H2 H 1.2824 0.2724 0.3612 0.065 Uiso 1 1 calc R
C3 C 1.25932(19) 0.4126(2) 0.56846(19) 0.0536(4) Uani 1 1 d .
H3 H 1.3691 0.4723 0.6223 0.064 Uiso 1 1 calc R
C4 C 1.15239(18) 0.4461(2) 0.64558(17) 0.0470(4) Uani 1 1 d .
H4 H 1.1896 0.5292 0.7498 0.056 Uiso 1 1 calc R
C5 C 0.98598(17) 0.35303(18) 0.56473(16) 0.0400(3) Uani 1 1 d .
C6 C 0.93451(17) 0.22846(18) 0.40699(16) 0.0407(3) Uani 1 1 d .
C7 C 0.84162(17) 0.35233(18) 0.60356(16) 0.0414(3) Uani 1 1 d .
C8 C 0.71191(17) 0.23138(19) 0.47137(17) 0.0438(3) Uani 1 1 d .
C9 C 0.53592(19) 0.1795(2) 0.4404(2) 0.0596(4) Uani 1 1 d .
H9A H 0.5019 0.1763 0.3457 0.089 Uiso 1 1 calc GR
H9B H 0.5221 0.2641 0.5239 0.089 Uiso 1 1 calc GR
H9C H 0.4705 0.0648 0.4316 0.089 Uiso 1 1 calc GR
C10 C 0.82922(18) 0.4604(2) 0.75188(17) 0.0462(4) Uani 1 1 d .
C11 C 0.9802(2) 0.6920(2) 1.00791(18) 0.0570(4) Uani 1 1 d .
H11A H 0.9223 0.6237 1.0573 0.068 Uiso 1 1 calc R
H11B H 0.9277 0.7553 1.0001 0.068 Uiso 1 1 calc R
C12 C 1.1550(2) 0.8187(2) 1.0999(2) 0.0700(5) Uani 1 1 d .
H12A H 1.2099 0.8896 1.0528 0.105 Uiso 1 1 calc GR
H12B H 1.2069 0.7546 1.1032 0.105 Uiso 1 1 calc GR
H12C H 1.1610 0.8937 1.2032 0.105 Uiso 1 1 calc GR
C13 C 0.63704(18) -0.1196(2) 0.14606(18) 0.0508(4) Uani 1 1 d .
C14 C 0.6878(2) -0.1932(2) 0.2306(2) 0.0631(5) Uani 1 1 d .
H14A H 0.7643 -0.2244 0.1878 0.095 Uiso 1 1 calc GR
H14B H 0.5932 -0.2964 0.2209 0.095 Uiso 1 1 calc GR
H14C H 0.7387 -0.1063 0.3378 0.095 Uiso 1 1 calc GR
C15 C 0.5368(3) -0.2431(3) -0.0184(2) 0.0791(6) Uani 1 1 d .
H15A H 0.5029 -0.1837 -0.0576 0.119 Uiso 1 1 calc GR
H15B H 0.4418 -0.3438 -0.0249 0.119 Uiso 1 1 calc GR
H15C H 0.6010 -0.2813 -0.0787 0.119 Uiso 1 1 calc GR
F1 F 0.99556(12) 0.08471(13) 0.17877(10) 0.0629(3) Uani 1 1 d .
N1 N 0.76666(14) 0.15405(15) 0.35480(13) 0.0441(3) Uani 1 1 d .
N2 N 0.66793(16) 0.03916(17) 0.19938(14) 0.0523(4) Uani 1 1 d .
O1 O 0.70435(15) 0.45048(18) 0.78166(14) 0.0695(4) Uani 1 1 d .
O2 O 0.97644(13) 0.57669(14) 0.85598(11) 0.0518(3) Uani 1 1 d .
loop_
_atom_site_aniso_label
_atom_site_aniso_U_11
_atom_site_aniso_U_22
_atom_site_aniso_U_33
_atom_site_aniso_U_23
_atom_site_aniso_U_13
_atom_site_aniso_U_12
C1 0.0539(9) 0.0443(8) 0.0415(8) 0.0156(7) 0.0130(7) 0.0300(7)
C2 0.0502(9) 0.0588(10) 0.0610(10) 0.0267(8) 0.0212(8) 0.0356(8)
C3 0.0405(8) 0.0583(9) 0.0576(10) 0.0248(8) 0.0074(7) 0.0255(7)
C4 0.0430(8) 0.0480(8) 0.0405(8) 0.0156(6) 0.0041(6) 0.0222(7)
C5 0.0406(8) 0.0383(7) 0.0381(7) 0.0162(6) 0.0070(6) 0.0205(6)
C6 0.0415(8) 0.0378(7) 0.0392(8) 0.0149(6) 0.0062(6) 0.0214(6)
C7 0.0409(8) 0.0411(7) 0.0387(8) 0.0164(6) 0.0093(6) 0.0211(6)
C8 0.0401(8) 0.0433(8) 0.0447(8) 0.0184(6) 0.0091(6) 0.0219(6)
C9 0.0398(8) 0.0658(10) 0.0621(10) 0.0241(9) 0.0082(7) 0.0255(8)
C10 0.0452(8) 0.0475(8) 0.0435(8) 0.0198(7) 0.0130(7) 0.0238(7)
C11 0.0682(11) 0.0555(9) 0.0389(8) 0.0130(7) 0.0154(8) 0.0342(9)
C12 0.0788(13) 0.0598(11) 0.0469(10) 0.0106(8) 0.0049(9) 0.0320(10)
C13 0.0416(8) 0.0449(8) 0.0471(9) 0.0115(7) 0.0104(7) 0.0180(7)
C14 0.0647(11) 0.0494(9) 0.0748(12) 0.0292(9) 0.0262(9) 0.0291(8)
C15 0.0666(12) 0.0650(12) 0.0532(11) -0.0015(9) -0.0005(9) 0.0230(10)
F1 0.0701(6) 0.0622(6) 0.0448(5) 0.0108(4) 0.0170(5) 0.0386(5)
N1 0.0416(7) 0.0400(6) 0.0382(6) 0.0099(5) 0.0016(5) 0.0203(5)
N2 0.0506(8) 0.0494(7) 0.0394(7) 0.0111(6) -0.0020(6) 0.0232(6)
O1 0.0514(7) 0.0813(9) 0.0579(7) 0.0188(6) 0.0220(6) 0.0334(6)
O2 0.0509(6) 0.0531(6) 0.0376(6) 0.0099(5) 0.0103(5) 0.0272(5)
loop_
_atom_type_symbol
_atom_type_description
_atom_type_scat_dispersion_real
_atom_type_scat_dispersion_imag
_atom_type_scat_source
C C 0.0181 0.0091 'International Tables Vol C Tables 4.2.6.8 and 6.1.1.4'
H H 0.0000 0.0000 'International Tables Vol C Tables 4.2.6.8 and 6.1.1.4'
F F 0.0727 0.0534 'International Tables Vol C Tables 4.2.6.8 and 6.1.1.4'
N N 0.0311 0.0180 'International Tables Vol C Tables 4.2.6.8 and 6.1.1.4'
O O 0.0492 0.0322 'International Tables Vol C Tables 4.2.6.8 and 6.1.1.4'
loop_
_geom_angle_atom_site_label_1
_geom_angle_atom_site_label_2
_geom_angle_atom_site_label_3
_geom_angle
C2 C1 C6 120.21(14)
F1 C1 C2 119.83(14)
F1 C1 C6 119.95(13)
C1 C2 H2 120.2
C1 C2 C3 119.60(14)
C3 C2 H2 120.2
C2 C3 H3 119.1
C4 C3 C2 121.71(14)
C4 C3 H3 119.1
C3 C4 H4 120.5
C3 C4 C5 119.01(14)
C5 C4 H4 120.5
C4 C5 C6 118.76(13)
C4 C5 C7 135.05(13)
C6 C5 C7 106.19(12)
C1 C6 C5 120.68(13)
C1 C6 N1 131.68(13)
N1 C6 C5 107.63(12)
C5 C7 C10 128.07(13)
C8 C7 C5 107.48(12)
C8 C7 C10 124.43(13)
C7 C8 C9 131.54(14)
N1 C8 C7 108.93(12)
N1 C8 C9 119.53(13)
C8 C9 H9A 109.5
C8 C9 H9B 109.5
C8 C9 H9C 109.5
H9A C9 H9B 109.5
H9A C9 H9C 109.5
H9B C9 H9C 109.5
O1 C10 C7 126.04(15)
O1 C10 O2 122.43(14)
O2 C10 C7 111.52(13)
H11A C11 H11B 108.5
C12 C11 H11A 110.2
C12 C11 H11B 110.2
O2 C11 H11A 110.2
O2 C11 H11B 110.2
O2 C11 C12 107.70(14)
C11 C12 H12A 109.5
C11 C12 H12B 109.5
C11 C12 H12C 109.5
H12A C12 H12B 109.5
H12A C12 H12C 109.5
H12B C12 H12C 109.5
C14 C13 C15 117.17(15)
N2 C13 C14 127.11(15)
N2 C13 C15 115.72(16)
C13 C14 H14A 109.5
C13 C14 H14B 109.5
C13 C14 H14C 109.5
H14A C14 H14B 109.5
H14A C14 H14C 109.5
H14B C14 H14C 109.5
C13 C15 H15A 109.5
C13 C15 H15B 109.5
C13 C15 H15C 109.5
H15A C15 H15B 109.5
H15A C15 H15C 109.5
H15B C15 H15C 109.5
C6 N1 N2 126.54(12)
C8 N1 C6 109.71(12)
C8 N1 N2 122.83(12)
C13 N2 N1 114.29(13)
C10 O2 C11 116.73(12)
loop_
_geom_bond_atom_site_label_1
_geom_bond_atom_site_label_2
_geom_bond_distance
C1 C2 1.363(2)
C1 C6 1.384(2)
C1 F1 1.3578(17)
C2 H2 0.9300
C2 C3 1.395(2)
C3 H3 0.9300
C3 C4 1.374(2)
C4 H4 0.9300
C4 C5 1.4044(19)
C5 C6 1.4084(19)
C5 C7 1.4415(19)
C6 N1 1.3873(18)
C7 C8 1.380(2)
C7 C10 1.458(2)
C8 C9 1.492(2)
C8 N1 1.3629(19)
C9 H9A 0.9600
C9 H9B 0.9600
C9 H9C 0.9600
C10 O1 1.2089(18)
C10 O2 1.3387(18)
C11 H11A 0.9700
C11 H11B 0.9700
C11 C12 1.488(3)
C11 O2 1.4450(18)
C12 H12A 0.9600
C12 H12B 0.9600
C12 H12C 0.9600
C13 C14 1.483(2)
C13 C15 1.492(2)
C13 N2 1.281(2)
C14 H14A 0.9600
C14 H14B 0.9600
C14 H14C 0.9600
C15 H15A 0.9600
C15 H15B 0.9600
C15 H15C 0.9600
N1 N2 1.4176(16)
loop_
_geom_torsion_atom_site_label_1
_geom_torsion_atom_site_label_2
_geom_torsion_atom_site_label_3
_geom_torsion_atom_site_label_4
_geom_torsion
C1 C2 C3 C4 -1.2(3)
C1 C6 N1 C8 -176.95(15)
C1 C6 N1 N2 -7.7(2)
C2 C1 C6 C5 1.5(2)
C2 C1 C6 N1 -179.35(15)
C2 C3 C4 C5 1.4(2)
C3 C4 C5 C6 -0.1(2)
C3 C4 C5 C7 -179.36(15)
C4 C5 C6 C1 -1.3(2)
C4 C5 C6 N1 179.34(12)
C4 C5 C7 C8 179.04(15)
C4 C5 C7 C10 0.7(3)
C5 C6 N1 C8 2.31(16)
C5 C6 N1 N2 171.55(12)
C5 C7 C8 C9 -177.50(16)
C5 C7 C8 N1 1.70(16)
C5 C7 C10 O1 -176.60(15)
C5 C7 C10 O2 3.5(2)
C6 C1 C2 C3 -0.2(2)
C6 C5 C7 C8 -0.28(15)
C6 C5 C7 C10 -178.62(14)
C6 N1 N2 C13 76.11(19)
C7 C5 C6 C1 178.15(13)
C7 C5 C6 N1 -1.20(15)
C7 C8 N1 C6 -2.52(16)
C7 C8 N1 N2 -172.23(12)
C7 C10 O2 C11 179.83(13)
C8 C7 C10 O1 5.3(3)
C8 C7 C10 O2 -174.56(13)
C8 N1 N2 C13 -115.97(16)
C9 C8 N1 C6 176.79(13)
C9 C8 N1 N2 7.1(2)
C10 C7 C8 C9 0.9(3)
C10 C7 C8 N1 -179.88(13)
C12 C11 O2 C10 -175.49(13)
C14 C13 N2 N1 2.5(2)
C15 C13 N2 N1 -178.58(14)
F1 C1 C2 C3 178.95(14)
F1 C1 C6 C5 -177.70(12)
F1 C1 C6 N1 1.5(2)
O1 C10 O2 C11 -0.1(2)
loop_
_refln_index_h
_refln_index_k
_refln_index_l
_refln_F_squared_meas
_refln_F_squared_sigma
_refln_scale_group_code
0 0 1 53269.5 318.467 1
0 0 1 52701.1 254.199 8
0 0 2 918.357 66.7142 4
0 0 2 910.942 64.4361 13
0 0 2 926.702 57.693 5
0 0 -2 1007 60.637 3
0 0 2 950.321 49.3365 8
0 0 3 38883.9 542.793 6
0 0 3 38271.2 383.876 8
0 0 3 37713.3 444.909 5
0 0 3 37833 514.473 7
0 0 3 37958.4 521.253 4
0 0 4 27113 379.387 8
0 0 4 27043.6 440.06 5
0 0 4 26644.5 514.928 4
0 0 4 26646 519.546 7
0 0 -4 26709.9 449.224 3
0 0 5 153619 1205.76 5
0 0 -5 150269 1218.66 3
0 0 5 153881 1466.93 7
0 0 5 150828 1427.59 4
0 0 6 2045.03 190.044 4
0 0 6 1986.39 188.004 7
0 0 7 1294.36 181.528 15
0 0 7 1425.1 191.186 27
0 0 8 108.798 66.4634 27
0 0 8 -7.72932 50.829 15
0 0 9 4233.94 314.043 15
0 0 10 121.052 58.9424 15
0 -1 11 1071.52 114.263 15
0 -1 10 219.542 81.7038 15
0 -1 9 229 96.2439 27
0 -1 9 295.768 99.7391 15
0 -1 8 5442.23 374.111 27
0 -1 8 4787.92 351.225 15
0 -1 7 2732.56 229.395 7
0 -1 6 26978.5 649.048 4
0 -1 6 27184.3 643.332 7
0 -1 5 23491.1 549.919 6
0 -1 5 23218.2 525.427 4
0 -1 5 24409.8 450.505 5
0 -1 5 22991.2 509.118 7
0 -1 4 8055.02 276.624 6
0 -1 4 7820.06 253.299 7
0 -1 4 8284.34 228.817 5
0 1 -4 8157.66 201.612 10
0 1 -4 8049.56 201.643 3
0 -1 4 7739.56 266.349 4
0 -1 3 2195.2 111.287 7
0 1 -3 2363.75 87.1582 3
0 -1 3 2068.3 117.592 6
0 -1 3 2073.95 113.141 4
0 1 -3 2030.03 90.6804 10
0 -1 2 166602 807.543 4
0 1 -2 169497 537.407 3
0 -1 2 170927 753.383 7
0 -1 2 164986 811.897 6
0 1 -1 75675 364.782 14
0 -1 1 74704.9 357.105 6
0 1 0 29788.6 254.241 1
0 1 0 29763.2 225.993 10
0 1 1 15376.6 196.018 13
0 1 1 15097.9 244.986 1
0 1 1 15232.4 237.294 5
0 1 1 15203.5 238.299 8
0 1 2 34449.2 460.241 1
0 1 2 34512.8 478.558 7
0 1 2 35488.3 257.028 11
0 1 3 73382.9 790.842 1
0 -1 -3 75486.6 791.99 3
0 1 3 74760.5 837.636 7
0 1 3 73879.7 728.256 5
0 1 4 422.123 64.6213 14
0 1 4 385.1 65.9609 5
0 -1 -4 500.305 84.8428 3
0 1 4 396.225 76.9723 7
0 -1 -5 4744.25 254.705 3
0 1 5 4803.85 279.443 7
0 1 6 10178.5 487.522 15
0 1 6 10485.8 484.831 27
0 1 6 9921.91 468.778 32
0 1 7 23878.6 762.59 32
0 1 7 22498.4 759.874 15
0 1 7 23717.3 769.208 27
0 1 8 5241.84 361.54 15
0 1 8 5386.3 350.374 32
0 1 9 1093.55 153.238 15
0 1 10 1544.02 129.402 15
0 -2 11 140.213 54.786 15
0 -2 10 1760.79 201.235 15
0 -2 10 1438.25 190.24 27
0 -2 9 5321.94 374.619 27
0 -2 8 4222.34 326.63 27
0 -2 7 143.694 66.689 4
0 -2 7 156.55 60.9902 7
0 -2 6 43926.7 817.915 6
0 -2 6 42098.2 783.416 4
0 -2 6 42537.2 751.287 7
0 -2 5 17730.6 453.542 6
0 -2 5 16943.9 415.271 7
0 2 -5 17323.7 370.713 10
0 -2 5 16115.6 425.07 4
0 -2 5 17182.8 377.564 5
0 -2 4 52865.9 588.084 5
0 -2 4 52700.5 669.058 6
0 -2 4 49877 647.905 4
0 -2 4 51983.5 616.374 7
0 2 -4 53021.8 422.208 3
0 2 -4 50586.1 583.039 10
0 -2 3 52225.3 526.917 7
0 -2 3 51776.4 564.046 4
0 2 -1 294534 955.922 1
0 2 -1 291087 1124.28 14
0 2 0 89603 403.186 12
0 2 0 88495.7 632.28 1
0 2 1 20225.4 384.451 7
0 2 1 21807 254.242 13
0 2 1 20175.9 362.755 1
0 2 1 21591.6 383.542 14
0 2 2 3832.92 180.169 14
0 2 2 3923.85 186.505 1
0 2 2 3993.31 198.735 7
0 2 2 3712.63 171.723 5
0 2 3 102618 1080.52 1
0 2 3 105393 1023.81 14
0 -2 -3 101289 1087.56 3
0 2 3 102859 1139.08 7
0 2 3 103429 1007.84 5
0 2 4 16991.3 522.603 7
0 -2 -4 17761.1 515.099 3
0 2 5 1195.61 155.313 7
0 -2 -5 1000.41 133.63 3
0 2 6 7700.69 438.573 32
0 2 6 7659.32 440.239 15
0 2 7 12043.4 544.268 32
0 2 7 11042.3 524.259 15
0 2 8 106.929 73.0953 15
0 2 9 -2.80848 36.4809 15
0 2 9 -41.5468 35.7507 31
0 -3 11 150.731 63.5997 15
0 -3 10 1041.59 164.384 27
0 -3 10 1062.75 165.693 15
0 -3 9 4045.58 322.368 27
0 -3 8 1247.89 179.17 27
0 -3 7 31410.5 705.181 7
0 -3 7 33446.6 782.385 6
0 -3 6 1323.44 132.586 7
0 -3 6 1044.11 128.024 4
0 -3 6 1252.97 118.472 5
0 3 -6 1243.85 122.313 10
0 -3 6 1397.92 144.038 6
0 -3 5 3722.97 205.265 4
0 -3 5 3685.24 191.699 7
0 3 -5 3535.28 189.041 10
0 -3 5 3840.57 188.65 5
0 -3 5 3889.6 206.48 6
0 3 -4 3343.38 172.125 10
0 -3 4 3362.86 174.983 4
0 -3 4 3653.74 172.239 6
0 -3 4 3660.25 169.568 7
0 -3 3 77018 654.033 6
0 3 -3 75521.1 581.509 1
0 -3 3 78410.9 748.241 4
0 3 -3 77723.2 762.978 10
0 3 -2 528569 1839.52 14
0 -3 2 526337 1408.68 6
0 3 -2 531080 1891.87 10
0 3 -1 5435.55 173.426 1
0 3 -1 5394.1 183.877 10
0 3 -1 5511.14 203.051 14
0 3 0 99027.4 830.484 1
0 3 0 99448.4 920.592 14
0 3 1 9725.12 301.011 1
0 3 1 10317.2 319.997 14
0 3 2 34434 637.668 1
0 3 2 35493.5 649.226 14
0 3 3 17989.1 516.658 1
0 -3 -3 18875.7 547.149 3
0 -3 -4 3647.52 267.245 3
0 3 5 38096.8 962.683 15
0 3 5 37981.8 973.185 32
0 3 6 163.329 77.5876 32
0 3 6 112.061 71.3057 15
0 3 7 827.569 141.703 15
0 3 8 910.132 121.875 15
0 3 8 834.132 110.51 31
0 -4 11 20.0092 46.8402 27
0 -4 11 -32.9835 44.2188 15
0 -4 11 -123.767 53.5574 21
0 -4 10 591.548 114.412 21
0 -4 10 581.71 126.12 27
0 -4 9 1331.3 187.492 27
0 -4 9 1416.71 178.752 30
0 -4 8 1231.63 165.519 30
0 -4 8 913.589 149.511 27
0 -4 7 15605.9 530.182 4
0 -4 6 16364.9 459.313 7
0 -4 6 16441.4 456.586 5
0 4 -6 16996.2 487.929 10
0 -4 6 17249.5 485.742 6
0 -4 5 14192.8 420.259 4
0 -4 5 14473.7 394.647 7
0 -4 5 14986.9 391.844 6
0 4 -5 14347.7 419.843 10
0 -4 4 9989.4 318.459 4
0 4 -4 10349.2 336.54 10
0 4 -3 31559.1 434.402 1
0 4 -3 30112.5 550.456 10
0 4 -3 30346.4 528.488 14
0 4 -2 39319.9 630.999 14
0 4 -2 40662.6 530.656 1
0 4 -2 40443 610.113 10
0 4 -1 35995.8 560.387 10
0 4 -1 37030.7 554.433 1
0 4 -1 37991.5 638.145 14
0 4 0 291.238 61.9451 1
0 4 0 267.777 66.2222 14
0 4 1 18276.1 505.686 14
0 4 1 17117.7 465.756 1
0 4 2 10959.6 418.462 14
0 4 2 9735.59 387.419 1
0 -4 -2 10422.5 418.318 3
0 4 3 34021.5 779.763 14
0 4 3 36851.4 917.483 32
0 4 4 29718.4 864.436 32
0 4 4 30809.5 809.142 23
0 4 4 30551.8 857.782 15
0 4 5 1055.51 173.997 32
0 4 5 867.276 154.079 15
0 4 6 4689.64 316.699 31
0 4 6 4501.16 309.611 15
0 4 7 -108.648 52.6877 15
0 4 7 11.1375 40.211 31
0 -5 11 441.432 92.3366 21
0 -5 11 458.735 97.079 27
0 -5 10 339.198 93.6285 27
0 -5 10 512.489 113.92 21
0 -5 9 39.7486 47.5703 30
0 -5 8 7554.13 413.526 30
0 -5 7 153.326 62.3021 30
0 5 -7 -33.5627 31.413 10
0 -5 6 14323.7 477.967 4
0 5 -6 15406.9 507.302 10
0 5 -5 3930.81 246.07 10
0 -5 5 3653.36 227.342 4
0 -5 5 4177.69 230.262 7
0 5 -4 47264.1 809.93 10
0 -5 4 43926.7 740.699 4
0 5 -3 20054.1 503.505 14
0 5 -3 26415.8 579.206 10
0 5 -2 20107.4 527.412 14
0 5 -2 19425.7 484.847 10
0 5 -1 3644.64 235.541 14
0 5 -1 3541.83 204.077 1
0 5 0 11588.1 437.865 14
0 5 0 11084.6 393.081 1
0 -5 -1 18140.6 577.908 3
0 5 1 19096.8 590.861 14
0 5 1 17007.5 526.823 1
0 5 2 3331.33 276.221 15
0 5 2 3133.83 262.95 23
0 5 3 7865.71 420.381 23
0 5 3 7231.52 419.586 15
0 5 4 3429.54 291.991 15
0 5 4 2932.45 270.609 31
0 5 4 2946.13 251.451 23
0 5 5 1787.15 197.65 31
0 5 6 41.9851 39.3971 31
0 -6 11 225.689 74.8783 21
0 -6 10 93.566 59.579 30
0 -6 10 142.66 71.6005 21
0 -6 9 7689.25 425.56 30
0 -6 8 860.255 150.011 30
0 -6 7 323.7 83.3304 24
0 -6 7 348.473 97.597 30
0 -6 6 1978.69 193.76 4
0 -6 5 1105.62 137.358 4
0 6 -5 1194.2 149.423 10
0 -6 4 -2.82135 36.2556 4
0 6 -4 -38.6168 48.6955 10
0 6 -3 2034.93 182.965 10
0 6 -3 2248.44 199.457 14
0 6 -2 1138.76 145.861 14
0 6 -1 1623.85 182.741 14
0 6 0 1624.74 191.291 23
0 6 1 13616.5 560.714 23
0 6 1 13140.8 543.551 31
0 6 2 131.386 73.4867 31
0 6 2 115.651 79.4547 23
0 6 3 10269.1 468.092 23
0 6 3 10372.7 477.988 31
0 6 4 80.3042 58.1352 31
0 6 4 13.597 41.3305 23
0 6 5 16.0292 35.1927 31
0 -7 11 -0.42354 42.8546 21
0 -7 10 638.355 120.476 21
0 -7 9 543.851 121.817 30
0 -7 8 3391.41 285.764 30
0 -7 7 2712.71 254.743 30
0 -7 7 3076.83 257.972 24
0 -7 6 89.9067 50.2816 24
0 -7 6 52.2545 53.3049 30
0 -7 5 5540.52 345.275 24
0 -7 4 1416.38 178.12 24
0 -7 3 2670.92 239.04 24
0 7 -3 2635.85 236.793 23
0 7 -2 1927.45 206.831 23
0 -7 2 1850.63 200.782 24
0 7 -1 36.9627 50.7909 23
0 -7 1 62.4802 47.2696 24
0 7 0 299.738 97.0949 23
0 7 1 4331.89 315.528 23
0 7 1 4510.35 307.414 31
0 7 2 76.3108 66.6733 23
0 7 2 -33.2869 51.826 31
0 7 3 166.75 64.9017 23
0 7 3 177.793 61.0883 31
0 -8 11 457.002 76.9578 21
0 -8 10 553.359 92.8311 17
0 -8 10 438.346 88.8783 21
0 -8 9 631.937 112.758 21
0 -8 9 640.114 121.33 30
0 -8 8 -70.193 59.7011 30
0 -8 8 78.8106 52.5306 24
0 -8 7 223.38 78.0593 24
0 -8 7 267.436 83.056 30
0 -8 6 743.157 137.893 24
0 -8 5 596.986 125.208 24
0 -8 4 717.829 138.617 24
0 8 -3 50.7324 49.4561 23
0 -8 3 25.8984 41.6671 24
0 -8 2 1026.75 150.401 24
0 8 -2 1057.84 159.325 23
0 8 -1 1379.55 180.882 23
0 -8 1 1623.37 180.336 24
0 8 0 3251.71 261.051 23
0 8 1 3535.56 247.94 23
0 8 2 2010.05 160.794 23
0 -9 10 289.304 59.4639 17
0 -9 9 42.5048 41.309 17
0 -9 8 303.181 80.0431 24
0 -9 7 196.182 73.393 24
0 -9 6 860.805 136.367 24
0 -9 5 1253.03 165.993 24
0 -9 4 426.92 100.829 24
0 9 -3 665.442 114.385 23
0 -9 3 602.237 110.464 24
0 -9 2 152.097 56.6015 24
0 9 -2 46.5704 40.2384 23
0 9 -1 1590.06 159.66 23
0 9 0 1563.3 142.056 23
0 -10 8 291.01 59.9484 24
0 -10 8 334.153 71.4184 17
0 -10 7 -11.8792 41.5935 24
0 -10 6 93.9496 52.2109 24
0 -10 5 5.48498 37.4132 24
0 -10 4 58.6007 42.7319 24
0 -10 3 119.619 41.1595 24
-1 10 -1 3154.87 181.495 23
-1 10 -2 9.24 33.9346 23
-1 10 -3 750.841 106.155 23
1 -10 3 490.51 86.2308 24
1 -10 4 1324.81 147.667 24
1 -10 5 455.637 95.2542 24
1 -10 6 186.468 70.998 24
1 -10 7 1680.75 169.097 24
1 -10 8 1682.56 157.972 24
1 -10 8 1673.49 161.753 17
1 -10 9 98.0776 45.809 17
-1 9 1 2968.92 176.325 22
-1 9 1 3181.06 198.265 23
-1 9 0 1193.46 145.837 23
-1 9 -1 2950.18 236.671 23
-1 9 -2 269.84 81.2895 23
1 -9 2 253.493 74.1648 24
-1 9 -3 2695.63 235.885 23
1 -9 3 2465.19 226.067 24
1 -9 4 31.1484 68.0978 24
1 -9 5 179.395 75.4847 24
1 -9 6 462.022 109.149 24
1 -9 7 98.1681 60.1571 24
1 -9 8 80.4526 51.669 24
1 -9 9 48.2707 43.0596 17
1 -9 10 225.274 58.4347 21
1 -9 10 214.214 60.1718 17
-1 8 3 2899.35 172.165 23
-1 8 3 2544.45 160.262 31
-1 8 2 408.254 87.3646 23
-1 8 2 253.569 72.2323 31
-1 8 1 6466.27 364.21 23
-1 8 1 6738.01 348.919 31
-1 8 0 492.99 117.033 23
-1 8 -1 12597.1 538.086 23
1 -8 2 2644.21 239.021 24
-1 8 -2 2711.61 251.35 23
1 -8 3 0.63051 41.5616 24
-1 8 -3 31.1377 44.9154 23
1 -8 4 2749.23 253.137 24
1 -8 5 4582.25 323.028 24
1 -8 6 53484 1089.7 24
1 -8 7 474.355 109.98 30
1 -8 7 377.669 102.326 24
1 -8 8 355.924 98.7178 21
1 -8 8 344.14 92.6038 24
1 -8 8 434.45 111.526 30
1 -8 9 173.335 65.4763 21
1 -8 9 99.4896 51.5609 17
1 -8 10 683.934 106.204 17
1 -8 10 700.71 117.303 21
1 -8 11 1298.35 131.096 21
-1 7 4 1136.4 118.822 23
-1 7 4 1172.1 131.195 31
-1 7 3 688.53 121.311 31
-1 7 3 734.59 121.507 23
-1 7 2 7935.38 420.963 31
-1 7 2 8010.33 419.261 23
-1 7 1 3173.61 273.059 31
-1 7 1 2933.75 263.679 23
-1 7 0 10458.1 492.172 23
-1 7 0 11573 503.957 31
-1 7 -1 688.02 132.855 23
1 -7 1 668.509 118.741 24
-1 7 -2 608.203 116.751 23
1 -7 2 369.712 91.1512 24
1 -7 3 2224.23 210.885 24
1 -7 4 27158.6 735.209 24
1 -7 5 18945.1 624.036 24
1 -7 6 6569.79 373.365 30
1 -7 6 6028.44 357.795 24
1 -7 7 44.6976 48.5424 24
1 -7 7 105.027 71.4052 30
1 -7 8 1415.42 186.722 30
1 -7 8 1566.97 179.773 24
1 -7 9 93.1107 72.221 21
1 -7 9 111.591 68.5251 30
1 -7 9 135.541 69.4939 17
1 -7 10 198.268 79.1704 21
1 -7 11 87.9159 60.9429 21
-1 6 5 21.5245 44.2967 31
-1 6 4 674.839 118.116 23
-1 6 4 435.821 107.815 31
-1 6 3 31840.5 836.227 23
-1 6 3 32064.3 864.595 31
-1 6 2 994.185 159.979 31
-1 6 2 938.379 148.96 23
-1 6 1 1027.13 154.057 31
-1 6 1 1170.62 162.349 23
-1 6 0 11061.3 433.287 1
-1 6 0 11001.1 462.234 14
-1 6 0 11459 431.653 11
-1 6 -1 620.588 103.421 11
-1 6 -1 512.072 98.5438 14
-1 6 -1 558.984 94.7915 1
-1 6 -2 2835.85 195.688 1
-1 6 -2 3071.43 228.816 14
-1 6 -3 27.0246 39.1538 10
-1 6 -4 127571 1422.96 10
1 -6 5 13225.1 463.147 4
1 -6 5 14583 478.365 7
-1 6 -5 15248.3 495.604 11
-1 6 -5 13874.7 487.563 10
-1 6 -6 814.963 127.844 10
1 -6 6 671.989 117.59 4
1 -6 6 813.396 122.735 7
1 -6 7 2689.25 228.415 24
1 -6 7 2666.38 243.136 30
1 -6 8 -76.4205 57.0264 30
1 -6 9 12850.2 551.238 30
1 -6 9 12059.9 529.425 21
1 -6 10 54.1989 63.3362 21
1 -6 11 161.333 65.8946 21
1 -6 11 6.22292 33.0461 29
-1 5 7 396.858 70.964 31
-1 5 6 39.4212 59.5426 31
-1 5 5 13421.9 558.298 15
-1 5 5 13609 552.165 31
-1 5 4 4019.42 314.793 31
-1 5 4 4128.97 296.468 23
-1 5 4 4276.3 330.702 15
-1 5 3 2635.66 253.834 31
-1 5 3 3152.4 282.077 15
-1 5 3 2720.87 242.586 23
-1 5 2 27119.1 703.526 14
-1 5 2 24680 664.756 1
-1 5 1 43346.4 843.079 14
-1 5 1 40754.4 793.616 1
-1 5 0 896.169 107.61 11
-1 5 0 1058.57 130.838 14
-1 5 0 771.055 104.902 1
-1 5 -1 360.24 72.3622 1
-1 5 -1 313.595 73.1332 14
-1 5 -2 2758.76 166.959 1
-1 5 -2 2997.1 188.36 10
-1 5 -2 2968.13 193.989 14
-1 5 -3 174865 1260.71 1
-1 5 -3 179695 1470.76 10
-1 5 -4 422191 2313.57 10
-1 5 -4 412530 1939.54 1
1 -5 5 549.403 96.9807 4
1 -5 5 654.989 96.5332 7
-1 5 -5 657.618 105.94 10
-1 5 -6 130.7 52.0659 10
1 -5 6 39.1754 37.2004 4
1 -5 6 137.518 52.5721 7
1 -5 6 73.2874 45.6379 5
1 -5 7 123.184 49.5739 7
1 -5 7 172.808 54.9506 5
1 -5 8 9238.02 458.727 30
1 -5 9 5603.28 359.974 21
1 -5 10 111.246 60.9932 21
1 -5 11 1435.36 150.652 21
-1 4 7 238.408 75.7238 31
-1 4 7 394.992 97.0918 15
-1 4 6 2115.81 220.592 31
-1 4 6 2095.81 228.538 15
-1 4 5 11439.3 538.434 15
-1 4 4 1082.4 170.274 32
-1 4 4 837.732 151.11 15
-1 4 3 2507.52 206.494 1
1 -4 -3 2339.03 205.33 3
-1 4 3 2549.71 201.67 14
-1 4 2 1267.38 138.623 1
-1 4 2 1127.96 127.796 14
-1 4 1 3303.43 179.304 11
-1 4 1 3233.99 200.07 14
-1 4 1 3098.43 189.56 1
-1 4 0 4201.3 213.421 14
-1 4 0 4062.24 200.098 1
-1 4 -1 31467 554.177 14
-1 4 -1 30392 508.457 10
-1 4 -1 30231.5 494.777 1
-1 4 -2 1715.52 126.179 10
-1 4 -2 1884.72 117.471 1
-1 4 -2 1704.77 129.465 14
-1 4 -3 5725 232.262 10
-1 4 -3 6399.68 216.519 1
1 -4 4 7895.54 287.475 4
1 -4 4 8914.93 298.826 7
-1 4 -4 8215.64 290.811 10
-1 4 -4 8219.55 257.953 1
-1 4 -5 947.329 96.412 11
1 -4 5 720.905 93.9117 7
1 -4 5 598.131 94.6909 4
1 -4 5 864.01 103.799 5
-1 4 -5 902.307 104.918 10
-1 4 -6 8452.69 331.066 10
1 -4 6 7392.51 337.143 4
1 -4 6 8021.54 337.055 7
1 -4 6 8355.33 335.039 5
1 -4 7 476.199 96.681 7
1 -4 7 343.862 89.6821 4
1 -4 8 1998.63 217.505 27
1 -4 8 2279.24 222.241 30
1 -4 9 1052.83 168.62 27
1 -4 9 772.463 134.119 21
1 -4 10 6616.62 353.876 21
1 -4 10 6256.23 376.759 27
1 -4 10 6528.92 356.779 29
1 -4 11 235.295 80.2149 15
-1 3 8 301.539 71.4653 31
-1 3 8 333.344 92.6768 15
-1 3 7 1215.47 169.763 31
-1 3 7 1130.43 172.86 15
-1 3 6 2366.41 252.473 15
-1 3 6 2049.68 229.428 32
-1 3 5 123.495 67.7676 15
-1 3 5 5.7811 34.7226 32
1 -3 -4 245.25 68.8364 3
-1 3 4 321.299 80.6964 1
-1 3 3 8171.01 330.923 1
-1 3 3 8896.78 319.876 14
-1 3 2 49211.3 694.766 14
-1 3 2 48777.4 720.589 1
-1 3 1 47766.4 634.18 14
-1 3 1 48746.1 561.983 11
-1 3 1 46774.7 623.959 1
-1 3 0 1413.26 99.6365 1
-1 3 0 1363.35 99.4959 2
-1 3 0 1418.6 102.202 14
-1 3 -1 55137 576.049 10
-1 3 -1 55823.9 549.561 1
-1 3 -1 55624.2 549.597 2
-1 3 -1 53737 610.719 14
-1 3 -2 999999 2335.9 1
-1 3 -3 99116.1 551.429 2
-1 3 -3 93611.6 816.977 10
1 -3 3 95260.1 679.488 6
1 -3 3 97915.4 850.401 4
1 -3 4 20651.6 426.762 7
1 -3 4 21349.5 443.189 4
1 -3 4 21626 428.961 5
-1 3 -4 21843.1 373.014 11
-1 3 -4 20893.8 408.049 10
1 -3 4 22324.8 410.915 6
1 -3 5 3795.05 199.736 5
-1 3 -5 3584.1 181.067 10
1 -3 5 3565.75 200.539 7
1 -3 5 3612.08 207.805 4
1 -3 6 6004.48 276.886 5
1 -3 6 5737.24 291.652 4
1 -3 6 5754.59 287.511 7
1 -3 7 77690.4 1200.71 4
1 -3 7 76808.8 1160.28 7
1 -3 8 103.624 55.7244 21
1 -3 8 564.331 122.55 27
1 -3 9 150.054 64.8949 29
1 -3 9 217.237 99.0871 27
1 -3 10 1479.93 193.888 15
1 -3 11 1310.86 149.509 15
-1 2 9 222.165 72.5424 15
-1 2 8 25.2964 38.6715 31
-1 2 8 125.731 81.0079 15
-1 2 7 -3.27539 45.4614 32
-1 2 7 69.3738 57.2653 15
-1 2 6 2787.03 259.981 15
-1 2 6 3042.02 268.059 32
-1 2 6 2727.7 250.44 27
-1 2 5 8411.69 387.841 7
1 -2 -4 21710.1 523.437 3
-1 2 4 21469.1 529.34 1
-1 2 4 22332.6 557.966 7
-1 2 3 144531 1207.48 1
-1 2 3 149839 1147.58 13
-1 2 3 148563 1073.04 14
-1 2 3 142185 1240.01 7
-1 2 2 2103.57 118.882 14
-1 2 2 2021.58 126.035 1
-1 2 2 2014.56 130.512 7
-1 2 1 18958.4 329.692 1
-1 2 1 19349.4 323.914 2
-1 2 0 12313.1 225.712 2
-1 2 0 12368.5 224.088 11
-1 2 0 12074.1 224.468 1
-1 2 -1 167684 794.603 1
-1 2 -1 168506 732.397 2
1 -2 2 222299 856.64 6
-1 2 -2 222235 931.441 11
-1 2 -2 222818 975.342 10
-1 2 -2 221656 909.522 3
-1 2 -3 173.911 19.3667 2
-1 2 -3 76.2191 20.8778 11
-1 2 -3 46.6982 20.796 3
1 -2 3 71.9259 28.4741 6
-1 2 -3 129.502 30.5387 10
1 -2 3 85.5235 30.7824 5
1 -2 3 47.987 24.6612 7
1 -2 3 76.3134 34.0618 4
-1 2 -4 59004.6 584.137 3
-1 2 -4 59127.7 584.992 10
1 -2 4 58773.8 720.893 4
1 -2 4 58138.7 710.391 7
1 -2 4 58461 673.089 5
1 -2 5 38729.2 624.302 5
1 -2 5 38455.7 677.565 4
1 -2 5 38234.8 671.687 7
-1 2 -5 38315.3 538.826 3
1 -2 6 13774.5 456.165 7
1 -2 6 14227.5 467.146 4
1 -2 7 7390.15 377.635 7
1 -2 7 7315.98 373.934 4
1 -2 8 10955.9 527.038 27
1 -2 8 11179.5 491.5 29
1 -2 9 14542.4 612.205 15
1 -2 9 14506.4 610.119 27
1 -2 10 2131.12 217.843 15
1 -2 11 1672.55 151.846 15
-1 1 10 493.825 84.2005 15
-1 1 9 203.303 76.6233 15
-1 1 8 3916.17 314.828 15
-1 1 8 3271.4 286.628 27
-1 1 7 315.03 102.757 27
-1 1 7 370.725 112.067 15
-1 1 6 2148.08 198.283 7
-1 1 5 47293.4 819.139 7
-1 1 4 84517.2 956.272 13
1 -1 -4 85773.2 864.094 3
-1 1 4 84309.7 988.917 6
-1 1 4 86477.7 923.391 1
-1 1 3 168479 1183.76 6
-1 1 3 171009 1116 1
-1 1 3 172913 1165.76 7
-1 1 3 170295 1162.68 13
-1 1 2 132249 813.749 1
-1 1 2 131495 671.734 14
-1 1 1 145778 622.44 14
-1 1 1 146453 589.336 11
-1 1 1 145853 686.459 1
-1 1 1 145193 669.94 6
-1 1 1 144875 669.483 2
-1 1 0 146977 574.825 2
-1 1 0 147084 580.66 1
-1 1 -2 611.544 40.0433 10
-1 1 -2 601.509 50.4374 3
1 -1 2 631.058 55.1753 4
-1 1 -3 120501 802.092 3
1 -1 3 122720 867.192 5
-1 1 -3 117069 433.625 9
1 -1 3 121109 916.194 7
1 -1 3 119144 883.827 4
-1 1 -3 118086 588.113 10
1 -1 4 27566.3 483.235 5
1 -1 4 28163.3 516.94 4
1 -1 4 28199.9 406.811 8
-1 1 -4 27421.6 450.523 3
1 -1 5 25087.4 517.519 5
-1 1 -5 25229.2 501.709 3
1 -1 5 23868 558.823 7
1 -1 5 25040.1 562.293 4
1 -1 6 17973.5 557.696 7
1 -1 6 17530.9 536.999 4
1 -1 6 18218.1 496.2 5
1 -1 7 747.371 141.347 27
1 -1 8 2438.7 260.404 15
1 -1 8 2796.77 258.243 32
1 -1 8 2440.93 258.016 27
1 -1 9 248.146 91.8027 15
1 -1 10 70.0905 55.18 15
-1 0 10 736.188 116.499 15
-1 0 9 2968.81 271.172 27
-1 0 9 2977.73 274.002 15
-1 0 8 1871.69 222.277 27
-1 0 8 2017.09 215.932 28
-1 0 8 2113.83 234.442 15
-1 0 7 2657.42 241.412 28
-1 0 7 2199.47 226.095 15
-1 0 7 2405.88 240.078 27
-1 0 6 4364.54 259.237 7
-1 0 6 3913.97 258.504 4
-1 0 5 34391.4 641.669 7
-1 0 5 34433.3 687.702 6
-1 0 5 33540.6 653.715 4
-1 0 4 36574.5 586.413 4
-1 0 4 37363.7 564.693 7
-1 0 4 36360.2 612.806 6
1 0 -4 37915.6 449.769 3
-1 0 4 37829.9 613.307 13
-1 0 3 30.3254 26.5317 6
-1 0 3 70.2021 25.0329 1
-1 0 3 29.7324 28.406 4
-1 0 3 73.9152 10.779 14
1 0 -3 65.3514 19.8869 3
-1 0 3 57.4603 17.0482 5
-1 0 3 100.238 19.9747 2
-1 0 3 37.0302 24.2611 7
-1 0 3 121.221 39.2722 13
-1 0 2 13220.6 137.859 5
-1 0 2 13562.7 192.196 1
-1 0 2 12833.7 231.588 4
-1 0 2 12773 203.511 7
-1 0 2 13220.4 167.362 2
-1 0 1 28536.9 167.571 1
-1 0 1 27810.9 221.536 2
-1 0 1 28110.6 228.313 4
-1 0 1 28815.2 162.938 7
-1 0 0 195661 614.293 3
1 0 1 7338.33 138.474 4
-1 0 -1 6855.82 159.602 3
1 0 2 64619 586.282 5
-1 0 -2 63710.2 590.163 3
1 0 3 5976.41 211.35 5
1 0 3 5865.27 191.493 8
1 0 3 5939.25 213.645 4
-1 0 -3 5913.14 212.198 3
1 0 3 5765.35 224.414 7
1 0 4 110886 942.911 8
-1 0 -4 107844 1033.22 3
1 0 4 109997 1034.19 5
1 0 4 110518 1093.71 4
1 0 4 111291 1152.72 7
1 0 5 462.314 81.1532 5
1 0 5 386.499 87.0889 7
1 0 5 418.72 84.1257 4
-1 0 -5 385.845 72.6533 3
1 0 6 1983.15 199.505 7
1 0 7 23646.6 773.319 15
1 0 8 804.927 154.39 15
1 0 8 848.644 145.334 32
1 0 9 776.204 136.825 15
1 0 9 635.207 114.004 32
1 0 10 288.009 69.1247 15
-1 -1 11 65.0845 40.8137 15
-1 -1 10 1388.36 181.918 27
-1 -1 10 1398.91 175.202 15
-1 -1 9 1841.16 225.034 27
-1 -1 9 2347.47 247.482 15
-1 -1 8 86.4976 63.3196 28
-1 -1 8 157.161 78.3752 15
-1 -1 8 -29.2927 58.5939 27
-1 -1 7 15995 548.607 4
-1 -1 6 5179.86 264.169 7
-1 -1 6 4824.2 284.367 6
-1 -1 5 95805 965.511 7
-1 -1 5 94461.5 1096.94 6
-1 -1 4 21954.4 461.835 13
-1 -1 4 22334.1 434.95 4
-1 -1 4 21817.3 381.586 7
-1 -1 4 22633.3 467.201 6
-1 -1 3 38.7543 7.02852 2
-1 -1 3 49.7018 29.54 13
-1 -1 3 51.1792 24.7364 4
-1 -1 3 121.261 23.5214 5
-1 -1 3 91.7283 35.2023 6
-1 -1 2 6560.83 150.853 4
-1 -1 2 6553.95 123.844 7
1 1 -2 6818.38 105.937 14
-1 -1 2 6395.24 170.259 13
1 1 -1 73047 280.979 1
-1 -1 1 71884.8 396.966 13
1 1 -1 71981.2 460.045 8
1 1 0 42107.4 387.636 7
-1 -1 0 42718.4 412.472 3
1 1 1 22173.4 339.285 1
-1 -1 -1 22088.4 360.922 3
1 1 1 22070.8 175.246 10
1 1 2 984.679 93.9342 7
-1 -1 -2 920.428 89.9775 3
1 1 2 862.341 84.0408 5
-1 -1 -3 2304.26 161.245 3
1 1 3 2478.41 151.601 8
1 1 3 2277.32 162.794 7
1 1 4 3707.06 232.105 7
1 1 4 4036.91 223.691 5
-1 -1 -4 3639.1 219.443 3
-1 -1 -5 16406.2 515.301 3
1 1 5 17303.8 510.074 5
1 1 5 16840.9 557.441 7
1 1 6 3680.52 304.845 15
1 1 6 3901.55 309.451 32
1 1 7 11949.2 555.522 15
1 1 7 13130.5 575.382 32
1 1 8 1408.66 181.743 32
1 1 8 1468.95 185.936 15
1 1 9 3.18976 39.197 15
-1 -2 11 1331.12 142.189 15
-1 -2 10 5222.7 342.44 15
-1 -2 10 5283.85 356.308 27
-1 -2 9 1630.47 216.166 27
-1 -2 8 1246.45 178.821 27
-1 -2 8 1315.41 176.871 28
-1 -2 7 828.201 131.335 6
-1 -2 7 652.512 113.361 4
-1 -2 6 26243.1 638.108 6
1 2 -6 26632.6 550.658 10
-1 -2 6 24763.8 593.594 4
-1 -2 6 26482.7 554.089 7
-1 -2 5 519.581 80.9272 4
-1 -2 5 646.993 77.0934 7
-1 -2 5 674.467 96.5286 6
1 2 -5 537.509 74.792 10
-1 -2 4 41026.7 499.333 7
-1 -2 4 41440.2 617.282 6
-1 -2 4 40316.5 567.549 4
1 2 -3 92394.3 404.499 1
-1 -2 3 90833.6 732.816 4
-1 -2 3 91844.5 788.119 6
1 2 -3 90189.3 542.535 14
1 2 -2 12782 151.091 1
1 2 -2 11941.1 236.299 14
-1 -2 2 12275.2 257.61 6
1 2 -1 33543.4 334.708 1
1 2 0 28716.8 391.95 1
1 2 0 26502.8 432.203 8
-1 -2 -1 23425 450.96 3
1 2 1 22891.4 448.503 7
1 2 1 22676.2 439.915 8
1 2 1 23153.5 442.837 5
1 2 1 23328.1 417.319 1
-1 -2 -2 32932.7 608.823 3
1 2 2 32870.1 577.075 1
1 2 2 33806.8 590.92 5
1 2 2 34132.7 620.768 7
-1 -2 -3 7197.96 324.465 3
1 2 3 7006.5 299.05 5
1 2 3 7636.34 333.652 7
1 2 3 7775.68 319.203 14
-1 -2 -4 295.845 74.6837 3
1 2 4 243.951 72.7994 7
1 2 4 369.209 79.3615 14
1 2 4 239.649 72.7192 5
1 2 5 5750.51 374.791 32
1 2 5 5381.74 357.232 15
1 2 6 791.269 151.742 32
1 2 6 365.157 115.459 15
1 2 7 684.341 136.465 15
1 2 7 744.761 145.003 32
1 2 8 -10.5872 47.6214 15
-1 -3 11 202.551 78.5281 27
-1 -3 11 290.763 73.3558 15
-1 -3 10 19.1455 68.2771 27
-1 -3 10 30.0208 50.787 15
-1 -3 9 11035.8 529.415 27
-1 -3 8 6908.42 375.43 30
-1 -3 8 7026.76 408.64 27
-1 -3 7 9525.15 406.106 4
-1 -3 7 10289.7 437.113 6
-1 -3 6 18024.1 502.368 4
1 3 -6 18878.4 500.704 10
-1 -3 6 19369.4 536.81 6
-1 -3 5 4900.01 206.006 7
1 3 -5 4732.7 235.513 10
-1 -3 5 4310.57 231.678 6
-1 -3 5 4525.31 224.731 4
1 3 -4 9176.84 302.907 10
-1 -3 4 9536.16 297.926 6
-1 -3 4 9198.56 284.28 4
-1 -3 4 9227.51 253.194 7
1 3 -3 36725.2 567.082 10
1 3 -3 35391.8 494.611 14
-1 -3 3 36864.9 523.617 6
-1 -3 3 36724.6 499.135 4
1 3 -2 677.355 78.2953 14
1 3 -2 731.018 56.1483 1
1 3 -2 741.485 79.7631 10
-1 -3 2 584.015 66.241 6
1 3 -1 39753.2 603.687 14
1 3 -1 39330.4 487.545 1
1 3 0 19760.9 459.802 14
1 3 0 19035 391.457 1
1 3 0 19364.1 347.566 10
1 3 1 4087.02 207.992 1
1 3 1 4496.09 239.492 14
-1 -3 -1 4011.72 223.079 3
1 3 2 6728.72 312.639 14
-1 -3 -2 6761.96 320.856 3
-1 -3 -3 10036.1 434.06 3
1 3 3 9875.79 404.602 14
1 3 4 28059.5 827.381 32
1 3 4 27987.2 798.281 15
1 3 5 38797.5 900.219 23
1 3 5 38363 993.614 32
1 3 5 37910.2 961.743 15
1 3 6 675.077 132.4 15
1 3 6 549.646 125.722 32
1 3 7 307.132 81.3161 15
1 3 8 2311.24 155.155 31
-1 -4 11 5102.24 278.613 21
-1 -4 11 3445.22 252.832 27
-1 -4 10 708.2 142.542 27
-1 -4 9 -6.88187 43.8437 30
-1 -4 9 -83.2372 62.9273 27
-1 -4 8 187.284 74.0561 27
-1 -4 8 490.551 111.378 30
1 4 -7 84.2259 58.1017 10
-1 -4 7 -120.199 58.1591 4
-1 -4 6 190.752 57.5709 4
-1 -4 6 277.308 71.2767 6
1 4 -6 199.903 59.1245 10
1 4 -5 800.469 107.448 10
-1 -4 5 720.388 94.7563 4
-1 -4 5 759.822 100.37 6
-1 -4 4 151.248 46.247 4
1 4 -4 297.03 70.6496 10
1 4 -3 3709.43 199.006 14
1 4 -3 3681.05 202.59 10
1 4 -2 564.206 80.8074 10
1 4 -2 498.176 79.4031 14
1 4 -1 1618.95 127.024 10
1 4 -1 1368.8 136.917 14
1 4 -1 1609.23 121.086 1
-1 -4 0 19448 513.893 3
1 4 0 19336.6 468.573 1
1 4 0 19590.3 531.391 14
1 4 1 1424.28 143.499 1
1 4 1 1438.29 155.892 14
-1 -4 -1 1622.91 168.036 3
-1 -4 -2 3401.74 261.444 3
1 4 2 3307.33 249.754 14
1 4 3 2127.46 224.179 15
1 4 3 1987.78 224.276 32
1 4 4 2744.81 271.596 32
1 4 4 2920.79 267.289 15
1 4 4 2762.93 251.005 23
1 4 5 52.7795 59.7972 32
1 4 5 -7.39282 41.228 23
1 4 5 35.3215 54.9382 15
1 4 6 56.7881 47.4484 15
1 4 6 78.9332 57.8473 31
1 4 7 9.84204 28.2021 31
-1 -5 11 4167.57 262.949 27
-1 -5 11 4007.13 260.801 21
-1 -5 10 12.156 47.0624 27
-1 -5 10 -51.2679 48.2323 30
-1 -5 9 826.871 144.417 30
-1 -5 8 4811.65 334.141 30
-1 -5 7 92.6272 61.2567 30
1 5 -6 9483.15 413.329 10
1 5 -5 33818.2 748.791 10
1 5 -4 1748.07 167.385 10
1 5 -3 2027.1 172.715 14
1 5 -3 2390.45 187.403 10
1 5 -2 1946.93 161.911 10
1 5 -2 2154.95 188.183 14
1 5 -1 1446.05 162.791 14
-1 -5 1 1702.39 164.207 3
1 5 0 -37.2393 41.6569 14
-1 -5 0 28.5911 43.3511 3
1 5 1 1158.43 159.917 23
1 5 2 14108 570.481 23
1 5 3 19134.8 660.072 23
1 5 4 314.189 87.3633 23
1 5 4 504.071 114.525 31
1 5 5 107.882 45.1878 23
1 5 5 21.2984 45.4405 31
-1 -6 11 123.509 60.7542 21
-1 -6 10 2519.77 230.244 30
-1 -6 9 -168.275 79.878 30
-1 -6 8 58.5363 51.4646 30
-1 -6 7 253.769 86.8706 30
-1 -6 6 225.624 75.3753 24
-1 -6 6 117.942 68.7369 30
-1 -6 5 95.0579 52.5117 24
1 6 -4 77.0618 49.253 10
-1 -6 4 -58.2025 45.5374 24
1 6 -3 8762.52 409.319 14
1 6 -3 7797.15 367.289 10
-1 -6 3 8320.28 405.796 24
-1 -6 2 4419.79 298.963 24
1 6 -1 2656.94 245.254 23
-1 -6 1 2703.7 235.825 24
-1 -6 0 587.62 112.223 24
1 6 0 447.032 114.051 23
1 6 1 398.675 103.582 23
1 6 2 20360.3 652.301 31
1 6 2 19289.7 653.559 23
1 6 3 152.701 70.8978 23
1 6 3 217.528 78.3191 31
1 6 4 954.572 119.859 31
1 6 4 804.552 107.705 23
-1 -7 11 954.004 120.245 21
-1 -7 10 168.678 68.4775 30
-1 -7 10 215.538 72.1728 21
-1 -7 9 61.251 66.7772 30
-1 -7 8 416.658 111.257 30
-1 -7 7 16.4695 48.2707 30
-1 -7 7 81.2725 46.7437 24
-1 -7 6 95.1892 55.2682 24
-1 -7 6 29.1449 45.2157 30
-1 -7 5 2738.81 247.797 24
-1 -7 4 1262.05 172.192 24
-1 -7 3 7902.36 419.8 24
1 7 -2 -51.9315 49.4515 23
-1 -7 2 22.0581 43.7455 24
1 7 -1 425.841 110.998 23
-1 -7 1 404.692 103.246 24
-1 -7 0 305.841 85.3855 24
1 7 0 256.432 94.3975 23
1 7 1 12817.7 513.312 23
1 7 2 1105.54 141.377 23
1 7 3 637.279 89.5059 23
-1 -8 10 27.7988 31.0286 21
-1 -8 9 1033.51 127.398 21
-1 -8 9 1027.73 140.931 30
-1 -8 8 1043.25 150.018 30
-1 -8 8 1154.7 145.707 24
-1 -8 7 4408.42 297.918 24
-1 -8 7 4752.69 305.981 30
-1 -8 6 -3.46543 53.1414 24
-1 -8 5 731.93 135.903 24
-1 -8 4 4.56105 59.9791 24
-1 -8 3 208.337 82.4536 24
-1 -8 2 3155.97 248.96 24
1 8 -2 3627.53 267.363 23
-1 -8 1 629.204 106.411 24
1 8 -1 615.54 110.9 23
1 8 0 2809.21 219.298 23
1 8 1 11.1659 34.3978 23
-1 -9 8 48.9153 38.4178 24
-1 -9 7 548.991 102.499 24
-1 -9 6 301.148 82.5573 24
-1 -9 5 5436.01 309.38 24
-1 -9 4 498.492 99.3124 24
-1 -9 3 398.949 84.2223 24
-1 -9 2 85.1743 40.1972 24
1 9 -2 81.8697 44.6784 23
1 9 -1 6672.67 259.21 23
-1 -10 6 403.834 70.8143 24
-1 -10 5 789.645 91.6312 24
-2 11 -3 450.729 71.8478 22
-2 11 -4 29.0445 28.6677 22
2 -11 5 338.37 66.6502 24
2 -11 6 -0.0984 28.2224 17
2 -11 6 19.3849 40.4701 24
2 -11 7 1672.19 141.554 24
2 -11 7 1763.98 140.165 17
2 -11 8 8731.8 291.3 17
-2 10 0 1099.26 113.445 23
-2 10 0 1035.78 105.513 22
-2 10 -1 22.7286 39.6653 23
-2 10 -2 2307.04 197.123 23
-2 10 -3 1203.9 146.932 23
2 -10 3 1737.95 164.47 24
2 -10 4 -18.0252 42.5998 24
2 -10 5 228.49 78.6924 24
2 -10 6 3218.43 248.732 24
2 -10 7 9205.87 402.416 24
2 -10 7 9023.11 400.882 17
2 -10 8 6140.74 315.984 17
2 -10 8 6400.72 315.662 24
2 -10 9 88.1557 54.7077 17
-2 9 2 -21.2193 31.1325 23
-2 9 1 3202.69 208.889 31
-2 9 1 3211.42 223.861 23
-2 9 0 11.578 51.2058 23
-2 9 -1 1053.15 157.445 23
2 -9 2 850.185 130.842 24
-2 9 -2 923.615 148.504 23
-2 9 -3 151.233 75.8291 23
2 -9 3 134.523 69.3214 24
2 -9 4 848.213 143.355 24
-2 9 -4 813.912 131.969 23
2 -9 5 1053.33 160.538 24
2 -9 6 3163.77 266.999 24
2 -9 7 5371.71 340.252 24
2 -9 8 -72.4009 60.9512 17
2 -9 8 -23.7153 54.3905 24
2 -9 9 145.327 57.1583 21
2 -9 9 71.9553 54.7247 17
2 -9 10 184.674 59.8625 21
2 -9 10 164.4 57.4587 17
-2 8 3 514.088 85.6456 23
-2 8 3 489.667 91.7308 31
-2 8 2 1669.05 182.159 31
-2 8 2 1448.89 167.808 23
-2 8 1 1048.16 158.724 31
-2 8 1 811.229 140.832 23
-2 8 0 1401.82 182.155 23
-2 8 0 1690.48 194.533 31
-2 8 -1 5785.12 369.652 23
-2 8 -1 5861.51 356.12 31
2 -8 2 11.7554 45.1935 24
-2 8 -2 -33.6103 54.8883 23
-2 8 -3 77.0575 56.8319 23
2 -8 3 100.666 59.5111 24
2 -8 4 14.2149 47.3155 24
-2 8 -4 110.507 66.2725 23
2 -8 5 39712.4 935.34 24
2 -8 6 60241.1 1156.33 24
2 -8 7 180.464 71.8528 21
2 -8 7 34.6157 53.1759 24
2 -8 8 66.6485 63.7272 21
2 -8 8 -61.6173 53.5039 24
2 -8 8 2.98612 55.2657 17
2 -8 9 912.381 139.05 21
2 -8 9 948.35 145.886 17
2 -8 10 3540.37 233.208 17
2 -8 10 3211.25 238.384 21
2 -8 11 1250.22 132.745 21
-2 7 5 336.639 68.636 31
-2 7 4 87.2206 45.6708 23
-2 7 4 150.17 63.5638 31
-2 7 3 64.3914 65.319 31
-2 7 3 49.3021 61.807 23
-2 7 2 3522.09 291.186 31
-2 7 2 4227.61 310.082 23
-2 7 1 2394.18 237.528 23
-2 7 1 2175.79 228.289 31
-2 7 0 3292.74 273.548 31
-2 7 0 3414.11 278.607 23
-2 7 -1 13285.8 531.851 23
-2 7 -2 3792.68 265.965 11
-2 7 -2 3554.75 243.577 1
-2 7 -3 10939.1 453.605 11
-2 7 -4 5835.45 333.839 11
2 -7 5 1421.77 175.138 24
2 -7 5 1392.6 167.238 7
2 -7 6 9169.68 436.18 24
2 -7 6 9152.7 424.362 21
2 -7 6 9215.57 442.61 30
2 -7 7 -40.6634 48.1563 24
2 -7 7 -6.28298 47.4316 21
2 -7 7 -69.0947 59.255 30
2 -7 8 6526.83 368.977 24
2 -7 8 6186.66 379.413 21
2 -7 8 6210.13 374.047 17
2 -7 9 356.079 106.698 21
2 -7 9 256.681 83.2562 17
2 -7 10 150.352 76.6588 21
2 -7 11 56.3147 48.5636 21
2 -7 11 56.3385 51.8544 29
-2 6 6 68.3407 45.5754 31
-2 6 5 398.643 99.6231 31
-2 6 4 1565.88 176.166 23
-2 6 4 1609.02 198.587 31
-2 6 3 1951.54 223.591 31
-2 6 3 2171.13 218.55 23
-2 6 2 6511.49 388.67 31
-2 6 2 7185.01 394.401 23
-2 6 1 87.006 53.7956 23
-2 6 1 163.274 59.5229 14
-2 6 0 6436.56 337.757 14
-2 6 0 6666.13 318.067 11
-2 6 0 6069.14 314.046 1
-2 6 -1 19214.8 530.381 1
-2 6 -1 21813.9 579.891 11
-2 6 -2 105.782 54.2795 11
-2 6 -2 54.5336 42.4048 1
-2 6 -3 87.1707 52.6444 11
-2 6 -3 97.0772 46.6561 1
-2 6 -4 59281.9 853.232 1
-2 6 -4 61012.5 961.271 11
2 -6 5 22421.6 610 4
2 -6 5 23519.8 616.853 7
2 -6 6 1199.62 153.882 4
2 -6 6 988.722 138.114 5
2 -6 6 1005.36 137.387 7
2 -6 7 1974.56 199.063 24
2 -6 7 2148.18 215.565 21
2 -6 7 2137.06 218.917 30
2 -6 8 1472.64 187.711 21
2 -6 8 1648.73 189.984 17
2 -6 9 5526.9 359.59 21
2 -6 10 723.296 129.723 21
2 -6 11 -129.647 58.3326 29
2 -6 11 79.4211 53.0486 21
-2 5 7 32.4395 34.2354 31
-2 5 6 1078.14 155.357 15
-2 5 6 1125.13 153.45 31
-2 5 5 290.624 92.1561 31
-2 5 5 353.693 113.635 15
-2 5 4 8446.46 456.816 15
-2 5 4 8269.93 444.489 31
-2 5 3 795.721 124.327 23
-2 5 3 714.93 126.379 31
-2 5 3 913.74 152.71 15
-2 5 2 4.16082 45.7354 1
-2 5 2 -18.8264 24.992 14
-2 5 1 41609.7 703.811 11
-2 5 1 41885.8 792.002 14
-2 5 0 20632.5 508.217 1
-2 5 0 20933.3 534.063 14
-2 5 0 20769.8 499.15 11
-2 5 -1 1351.52 112.637 12
-2 5 -1 1359.04 123.995 2
-2 5 -1 1414.88 133.686 11
-2 5 -1 1333.15 124.787 1
-2 5 -2 8808.75 320.103 11
-2 5 -2 8570.41 297.453 1
-2 5 -2 8638.97 290.301 2
-2 5 -3 6332.64 255.687 1
-2 5 -3 6493.13 274.701 11
-2 5 -3 6392.83 233.634 2
2 -5 4 91333.3 1091.6 4
-2 5 -4 92826 1002.12 1
-2 5 -4 92818.7 1090.59 10
-2 5 -5 9250.97 338.889 1
-2 5 -5 9927.72 343.926 11
-2 5 -5 9610.12 363.398 10
2 -5 5 9221.71 366.702 4
2 -5 5 10185.5 379.319 7
2 -5 5 10145.5 379.342 5
2 -5 6 6358.87 317.922 5
2 -5 6 6638.07 333.455 7
2 -5 6 5810.82 315.876 4
2 -5 7 3404.67 247.979 5
2 -5 7 3325.79 264.02 30
2 -5 7 3112.75 245.025 7
2 -5 8 7330.79 402.584 21
2 -5 9 1139.1 166.906 21
2 -5 10 304.066 85.6825 21
2 -5 10 299.524 87.0321 29
2 -5 11 7789.66 368.812 15
2 -5 11 7613.56 324.348 29
-2 4 8 -9.09626 29.4756 31
-2 4 7 36.1344 52.6867 15
-2 4 7 73.4592 55.1398 31
-2 4 6 2596.14 245.485 31
-2 4 6 3258.47 285.452 15
-2 4 5 12153.4 548.197 15
-2 4 5 11871.8 526.041 31
-2 4 4 212.951 89.2837 15
-2 4 3 16730 517.889 1
-2 4 2 178.217 56.9252 1
-2 4 2 248.942 60.5521 14
-2 4 1 83591.9 962.694 14
-2 4 1 81130.1 864.978 11
-2 4 1 81458.8 943.553 2
-2 4 1 83355.7 851.116 12
-2 4 0 2349.29 155.469 14
-2 4 0 2382.28 149.665 11
-2 4 0 2316.67 148.06 2
-2 4 0 2502.03 141.969 12
-2 4 0 2392.99 152.148 1
-2 4 -1 12226 317.857 1
-2 4 -1 12363.8 311.889 2
-2 4 -1 12311.9 331.132 11
-2 4 -2 11003.8 302.04 1
-2 4 -2 11086.6 276.292 2
-2 4 -2 10984.6 310.712 11
-2 4 -3 90781.8 884.486 1
-2 4 -3 95210 921.3 11
-2 4 -3 93055.4 745.686 2
-2 4 -3 89251 915.236 10
2 -4 4 13124.8 375.345 5
-2 4 -4 12654.2 357.535 10
-2 4 -4 12714.6 335.358 11
2 -4 4 12450 366.966 4
2 -4 4 13058.1 372.961 7
2 -4 5 20292.6 523.445 4
2 -4 5 20299.4 504.806 5
-2 4 -5 20549.6 478.006 10
2 -4 5 20329.9 515.825 7
2 -4 6 3244.26 228.607 7
2 -4 6 3423.98 227.39 5
2 -4 6 3406.65 234.153 4
2 -4 7 137.908 57.0106 7
2 -4 7 -25.9142 27.5353 5
2 -4 7 97.367 57.2487 4
2 -4 8 13316.5 530.998 21
2 -4 8 13599.5 561.913 27
2 -4 9 -93.4761 62.77 21
2 -4 10 532.898 109.232 29
2 -4 11 222.741 71.8422 15
-2 3 9 23.8571 27.107 15
-2 3 8 1108.32 152.455 15
-2 3 8 1107.95 134.971 31
-2 3 7 7102.39 413.467 15
-2 3 7 6782.87 380.514 31
-2 3 6 11640.6 527.018 28
-2 3 6 11544.5 535.117 15
-2 3 5 6226.73 373.324 32
-2 3 5 5758.15 357.359 28
-2 3 5 6577.97 386.355 15
-2 3 4 30556.4 680.4 1
-2 3 3 3727.75 207.482 13
-2 3 3 3849.28 197.117 14
-2 3 3 3401.92 208.141 1
-2 3 2 140516 1111.21 14
-2 3 2 138507 1142.2 2
-2 3 2 137941 1158.53 1
-2 3 2 139250 966.233 11
-2 3 1 5251.97 206.598 1
-2 3 1 5216.19 187.134 11
-2 3 1 5507.45 202.075 12
-2 3 1 5197.61 201.949 2
-2 3 1 5343.29 203.238 14
-2 3 0 66344.7 651.082 11
-2 3 0 66392.5 660.547 2
-2 3 0 65255.6 658.557 1
-2 3 -1 225870 1115.75 2
-2 3 -1 221077 1174.95 1
-2 3 -2 45246.9 538.585 11
-2 3 -2 36445.4 424.172 2
-2 3 -3 4829.5 181.564 3
2 -3 3 4764.47 195.015 5
-2 3 -3 4671.3 145.051 2
2 -3 3 4417.64 187.325 7
2 -3 3 4409.22 186.509 4
-2 3 -3 4465.41 169.756 11
-2 3 -4 2570.89 129.367 11
2 -3 4 2325.62 151.714 5
2 -3 4 2376.2 155.986 4
2 -3 4 2243.61 152.683 7
-2 3 -4 2326.22 136.674 3
2 -3 5 5425.84 260.443 4
2 -3 5 5301.28 261.295 7
-2 3 -5 5410.62 228.162 3
2 -3 5 5295.48 253.454 5
2 -3 6 22884.9 580.032 5
2 -3 6 22743.8 598.286 4
2 -3 6 21966 596.961 7
2 -3 7 3476.64 244.534 5
2 -3 8 2572.92 243.79 29
2 -3 8 2668.16 259.52 27
2 -3 9 13845.8 552.832 29
2 -3 10 507.819 116.503 15
2 -3 10 421.31 94.1893 29
2 -3 11 12.3716 41.9772 15
-2 2 9 190.159 66.5731 15
-2 2 8 49.129 63.1311 15
-2 2 7 3751 301.951 28
-2 2 7 4018.48 308.871 27
-2 2 7 3804.69 309.166 15
-2 2 6 126.468 66.036 15
-2 2 6 119.064 59.3275 27
-2 2 6 140.363 69.1162 28
-2 2 5 16964 520.684 13
-2 2 4 3838.45 224.622 13
-2 2 4 3779.12 211.351 1
-2 2 4 4020.06 229.353 6
-2 2 3 63834.1 763.899 1
-2 2 3 63590.6 803.93 13
-2 2 3 64941.7 781.441 6
-2 2 3 65469.9 639.104 14
-2 2 3 63153.8 715.775 2
-2 2 2 1827.73 112.041 2
-2 2 2 1999.99 106.966 14
-2 2 2 1827.85 110.729 6
-2 2 2 1735.46 112.008 1
-2 2 1 124189 713.639 6
-2 2 1 122943 864.727 12
-2 2 1 122239 816.065 2
-2 2 0 145561 823.539 2
-2 2 0 144540 823.398 1
-2 2 -1 45395.8 460.558 3
-2 2 -1 45222.7 435.959 2
-2 2 -2 10997.9 243.833 3
2 -2 2 10999.9 248.894 7
2 -2 2 11323 246.273 4
-2 2 -2 11276.9 216.174 2
2 -2 3 5187.22 198.693 5
2 -2 3 5124.22 198.852 7
2 -2 3 5323.61 195.666 4
-2 2 -3 5208.95 153.229 2
-2 2 -3 5832.64 196.142 3
2 -2 4 13822.6 365.327 5
2 -2 4 13583.8 359.249 4
2 -2 4 13391.6 371.975 7
-2 2 -4 13971.1 343.407 3
2 -2 5 49.7869 38.1248 7
-2 2 -5 41.3625 33.1677 3
2 -2 5 65.7624 45.727 4
2 -2 5 33.2903 33.7297 5
2 -2 6 4739.35 280.25 4
2 -2 6 4535.12 261.717 5
2 -2 6 4346.52 276.201 7
2 -2 7 2407.28 228.449 29
2 -2 7 2743.43 255.991 27
2 -2 8 3743.91 293.717 29
2 -2 9 11450.1 530.981 15
2 -2 9 12780.2 502.594 29
2 -2 10 73.9526 55.1118 15
-2 1 10 351.75 76.2962 15
-2 1 9 606.359 113.341 28
-2 1 9 536.179 122.226 27
-2 1 9 614.261 119.683 15
-2 1 8 26096.6 784.179 28
-2 1 8 26201.7 799.355 15
-2 1 8 26053.2 798.646 27
-2 1 7 94.1592 66.7174 15
-2 1 7 80.0437 50.089 28
-2 1 7 208.889 90.1423 27
-2 1 6 2756.38 231.319 6
-2 1 5 4131.39 249.681 13
-2 1 5 4019.08 249.885 6
-2 1 5 4514.68 239.34 7
-2 1 4 39854.2 682.581 13
-2 1 4 39705.2 676.703 6
-2 1 4 40579.4 594.806 1
-2 1 4 40513 615.099 7
-2 1 3 3774.03 157.843 7
-2 1 3 3716.54 155.597 1
-2 1 3 3760.19 181.346 6
-2 1 3 3612.59 142.269 2
-2 1 3 3737.47 186.553 13
-2 1 2 21752.1 312.38 1
-2 1 2 21817.6 319.504 2
-2 1 2 21961.2 363.276 6
2 -1 -1 161166 406.606 5
-2 1 1 163796 800.21 2
-2 1 1 162883 722.718 1
-2 1 0 2927.04 102.416 3
-2 1 0 3015.29 108.335 2
2 -1 0 2905.99 90.6661 5
2 -1 1 36533.6 375.443 7
2 -1 1 37543.3 326.676 4
-2 1 -1 37401.1 381.615 9
-2 1 -1 36657.1 401.958 3
-2 1 -2 1668.58 83.2101 9
2 -1 2 1621.81 100.314 7
-2 1 -2 1728.27 103.605 3
2 -1 2 1653.94 90.0195 4
2 -1 3 670.663 72.388 4
2 -1 3 692.601 80.206 5
2 -1 3 601.686 76.3663 7
-2 1 -3 605.413 47.6124 9
-2 1 -3 578.417 70.8644 3
2 -1 4 28331.2 540.795 4
2 -1 4 27596.4 541.549 5
2 -1 4 26558.1 553.256 7
-2 1 -4 26992.3 523.686 3
2 -1 4 27246.3 489.124 8
-2 1 -5 6619.85 293.418 3
2 -1 5 6883.16 305.687 5
2 -1 5 7135.14 313.686 4
2 -1 5 6762.69 322.173 7
2 -1 6 45.1673 33.3865 5
2 -1 6 -32.4949 38.5589 7
2 -1 6 36.189 43.8986 4
2 -1 7 9838.76 464.411 29
2 -1 8 740.364 149.029 15
2 -1 8 582.757 122.893 29
2 -1 9 12.7433 51.4355 15
2 -1 9 -23.7173 40.2594 32
2 -1 10 152.681 55.8243 15
-2 0 10 30.316 46.6776 27
-2 0 10 2.48198 34.1148 15
-2 0 9 390.097 115.871 27
-2 0 9 467.795 110.252 28
-2 0 9 575.855 124.792 15
-2 0 8 2130.26 232.374 28
-2 0 8 1905.03 224.307 27
-2 0 8 2092.51 226.228 15
-2 0 7 30080.7 812.972 15
-2 0 7 29128.3 818.558 27
-2 0 7 29431.6 818.119 28
-2 0 6 10211.1 428.551 6
-2 0 6 9205.81 384.608 4
-2 0 5 3672.4 229.68 13
-2 0 5 3767.61 230.573 6
-2 0 5 3797.24 193.791 7
-2 0 5 3574.47 213.463 4
-2 0 4 52992.5 606.964 7
-2 0 4 50138.9 678.285 4
-2 0 4 51084.4 738.881 13
-2 0 4 52117.7 756.31 6
-2 0 3 5669.33 216.656 13
-2 0 3 6144.36 161.291 7
-2 0 3 5654.7 190.962 4
-2 0 3 6223.96 154.248 2
-2 0 3 5642.67 214.571 6
-2 0 3 6181.76 150.153 1
-2 0 2 234253 654.589 1
-2 0 2 232053 607.836 7
-2 0 2 234285 945.839 4
-2 0 1 390567 1248.66 12
2 0 0 91.3725 25.8835 5
-2 0 0 96.4507 26.4403 3
2 0 0 132.465 21.9997 7
2 0 1 249.511 28.8823 4
2 0 1 252.534 38.4596 7
2 0 2 14041 328.634 5
2 0 2 13366.4 309.815 8
2 0 2 13300.3 320.161 7
-2 0 -2 13654.8 323.945 3
2 0 2 14103.4 279.031 4
2 0 3 3388.55 185.735 5
2 0 3 3371.5 175.236 8
2 0 3 3164.48 186.889 7
2 0 3 3186.78 165.077 4
-2 0 -3 3274.56 181.384 3
2 0 4 11076.8 373.224 5
-2 0 -4 10687.2 366.56 3
2 0 4 11573.6 359.081 8
2 0 4 11136.5 398.746 7
2 0 4 12291.9 377.704 4
-2 0 -5 87.498 44.0867 3
2 0 5 139.06 52.6956 5
2 0 6 36294.9 870.429 29
2 0 6 34638 902.138 15
2 0 7 27735.1 771.283 29
2 0 7 26640.4 823.954 15
2 0 8 1308.61 181.489 15
2 0 8 1109.9 164.195 32
2 0 9 -2.54064 37.8715 32
2 0 9 3.11894 40.4702 15
-2 -1 10 4022.36 279.878 15
-2 -1 10 3799.17 292.631 27
-2 -1 9 3802.98 307.969 28
-2 -1 9 3997.76 307.6 15
-2 -1 9 3898.74 319.638 27
-2 -1 8 2228.92 240.214 27
-2 -1 8 2954.95 271.653 28
-2 -1 8 2209.69 231.673 15
-2 -1 7 1350.75 171.259 6
-2 -1 7 1069.08 145.158 4
-2 -1 6 6780.66 316.755 4
-2 -1 6 7125.29 345.846 6
-2 -1 5 4478.28 245.429 13
-2 -1 5 4341.91 222.384 4
-2 -1 5 5043.63 264.993 6
-2 -1 4 7840.79 286.393 6
-2 -1 4 7630.43 278.397 13
-2 -1 4 7836.61 254.519 4
-2 -1 3 32030.3 509.826 6
-2 -1 3 30620.4 483.824 13
-2 -1 3 33015 339.897 2
-2 -1 3 31583.8 289.93 7
-2 -1 2 34159.1 420.307 13
2 1 -2 34132 353.912 8
-2 -1 2 35431.8 321.666 4
-2 -1 2 33919.2 190.526 7
-2 -1 2 33959.9 479.639 6
-2 -1 2 35378.1 255.166 3
2 1 -1 149718 877.325 8
-2 -1 1 152003 774.594 3
2 1 0 74009.1 696.596 5
2 1 0 74509.7 686.289 8
-2 -1 0 76812.9 673.349 3
2 1 0 75918.6 600.911 7
-2 -1 -1 168432 1160.08 3
2 1 1 165562 1161.63 5
2 1 1 164598 650.415 10
2 1 1 164920 1146.52 8
2 1 1 167785 1094.72 7
-2 -1 -2 131487 1157.49 3
2 1 2 129342 1129.62 8
2 1 2 133866 1151.43 7
2 1 2 131207 1157.01 5
-2 -1 -3 75.7855 46.3193 3
2 1 3 147.584 49.365 5
2 1 3 168.287 61.0212 7
2 1 3 21.2846 31.4501 8
2 1 4 1679.5 164.877 5
2 1 4 1697.2 159.65 8
-2 -1 -4 1580.56 162.278 3
2 1 4 1682.65 174.136 7
2 1 5 17881.6 602.75 29
2 1 6 20667.3 713.614 15
2 1 6 21086 672.4 29
2 1 6 21123.4 743.146 32
2 1 7 1472.89 169.655 29
2 1 7 1315.32 186.265 32
2 1 7 1408.87 189.084 15
2 1 8 91.9887 55.5317 15
2 1 8 157.689 69.1111 32
2 1 9 -7.2105 28.6935 31
-2 -2 11 -69.6287 60.2959 27
-2 -2 10 1017.65 164.125 27
-2 -2 9 14815 616.534 27
-2 -2 8 18664.8 681.419 27
-2 -2 8 20754.3 710.742 28
-2 -2 7 1899.16 196.335 6
-2 -2 7 1827.5 183.004 4
2 2 -6 8614.24 336.642 10
-2 -2 6 8471.13 375.77 6
-2 -2 6 8270 339.295 4
-2 -2 5 3566.65 219.342 6
-2 -2 5 3836.01 203.495 4
-2 -2 4 113212 925.035 4
-2 -2 4 111205 1093.49 6
-2 -2 3 71138.1 618.786 4
2 2 -3 73238.8 597.829 14
-2 -2 3 73295.7 797.989 6
-2 -2 2 996.526 59.7252 4
-2 -2 2 1276.93 75.5202 3
2 2 -1 8629.23 262.444 8
-2 -2 1 9283.05 251.118 3
-2 -2 0 157.793 48.074 3
2 2 0 186.562 50.9866 8
2 2 1 22026.3 497.176 5
2 2 1 22779.9 506.962 8
2 2 1 21935.3 480.615 7
2 2 2 17231.6 479.953 5
-2 -2 -2 17555.9 491.756 3
2 2 2 18143.6 491.491 8
-2 -2 -3 14039.2 480.49 3
2 2 3 14762.9 482.012 5
2 2 3 15101.8 502.977 7
2 2 4 6633.73 366.525 29
2 2 4 6053.1 338.005 14
2 2 5 22298.6 724.27 15
2 2 5 23597.8 710.63 29
2 2 6 1439.28 177.875 29
2 2 6 1252.36 178.374 15
2 2 6 1422.96 201.994 32
2 2 7 1118.51 149.29 15
2 2 7 1648.59 194.484 32
2 2 8 566.841 91.3451 31
2 2 8 432.38 75.3342 15
-2 -3 11 1534.39 174.391 27
-2 -3 10 6611.54 396.065 27
-2 -3 9 264.472 95.2922 27
-2 -3 8 14067.7 545.4 30
-2 -3 7 2262.24 213.446 6
2 3 -7 2396.57 202.173 10
-2 -3 6 6792.33 341.226 6
2 3 -6 6810.3 321.575 10
-2 -3 6 6514.47 301.654 4
2 3 -5 13643.1 423.874 10
-2 -3 5 13006.9 370.537 4
2 3 -4 25690 543.494 10
-2 -3 4 19191.3 470.484 6
2 3 -3 3630.95 176.062 14
2 3 -3 3587.16 193.093 10
-2 -3 3 3863.49 197.012 6
2 3 -2 107.17 40.0234 10
-2 -3 2 44.2661 26.4707 3
2 3 -1 30313.9 501.99 10
2 3 -1 31331.1 609.06 14
-2 -3 1 31184.6 552.257 3
2 3 0 4554.43 252.689 14
-2 -3 0 4665.52 240.893 3
-2 -3 -1 20477 558.12 3
2 3 1 20784.3 571.516 14
-2 -3 -2 502.258 99.2914 3
2 3 2 310.692 79.4248 14
2 3 3 18.4868 48.28 29
2 3 3 355.402 97.1454 32
2 3 4 30185.7 826.487 15
2 3 4 30028.4 868.422 32
2 3 5 51.7817 82.2066 32
2 3 5 1.935 45.6712 15
2 3 6 364.112 89.0449 15
2 3 6 593.615 129.013 32
2 3 7 -22.1831 40.3714 31
-2 -4 11 110.476 63.8801 27
-2 -4 10 13962.3 517.239 30
-2 -4 10 14050.2 564.254 27
-2 -4 9 55.3467 52.5586 30
-2 -4 9 -115.722 73.1037 27
-2 -4 8 1684.21 195.728 30
-2 -4 7 3362.33 267.94 30
2 4 -6 13252.4 477.275 10
2 4 -5 5452.68 292.883 10
2 4 -4 -10.6524 33.3767 10
2 4 -3 3509.81 215.121 10
2 4 -3 3869.53 219.438 14
2 4 -2 10904.3 390.327 14
2 4 -2 11050.7 361.944 10
2 4 -1 63283.1 989.027 14
-2 -4 1 63870 937.134 3
-2 -4 0 2554.29 207.696 3
2 4 0 2265.17 200.952 14
-2 -4 -1 8419.11 402.545 3
2 4 1 8468.71 402.809 14
2 4 2 794.456 141.299 32
2 4 3 44217.5 1046.33 32
2 4 4 11479.9 527.499 32
2 4 4 9906.76 464.205 23
2 4 5 351.8 85.6476 23
2 4 6 811.665 111.431 31
-2 -5 11 6337.51 310.569 27
-2 -5 10 64.6451 59.4715 30
-2 -5 10 -0.5908 47.0649 27
-2 -5 9 64.253 54.2754 27
-2 -5 9 -106.475 59.2808 30
-2 -5 8 1336.76 180.246 30
-2 -5 7 9348.78 462.959 30
-2 -5 6 2320.82 223.854 30
2 5 -5 6401.62 342.21 10
2 5 -4 568.158 103.311 10
2 5 -3 8070.22 367.504 14
2 5 -3 7577.23 346.476 10
2 5 -2 932.604 135.799 14
-2 -5 1 7692.07 389.943 24
-2 -5 0 9767.08 442.343 24
-2 -5 -1 11021.9 470.305 24
2 5 2 373.772 108.889 23
2 5 3 1058.66 159.919 23
2 5 3 814.106 134.196 31
2 5 4 -11.6092 39.6758 23
2 5 4 96.8225 46.7593 31
2 5 5 273.167 60.3276 31
-2 -6 11 34.2846 49.0848 21
-2 -6 10 2714.38 231.956 30
-2 -6 9 36.5231 54.3024 30
-2 -6 8 -21.2243 57.9213 30
-2 -6 7 970.165 156.876 30
-2 -6 6 1130.12 156.607 24
-2 -6 6 1261.73 170.996 30
-2 -6 5 173.531 67.5013 24
-2 -6 5 76.4661 49.9936 30
-2 -6 4 3110.26 257.681 24
-2 -6 3 15575.2 575.124 24
2 6 -2 238.853 79.0276 23
-2 -6 2 152.297 73.9454 24
2 6 -1 4021.24 302.296 23
-2 -6 1 3300.15 268.776 24
-2 -6 0 572.711 118.328 24
2 6 0 719.75 135.713 23
2 6 1 11225.5 500.064 23
-2 -6 -1 11355.4 455.985 24
2 6 2 14977.6 541.417 23
2 6 3 245.437 71.9765 23
-2 -7 11 122.377 47.4454 21
-2 -7 10 75.0274 59.2187 30
-2 -7 9 32.7462 53.6484 30
-2 -7 8 4925.06 325.352 30
-2 -7 7 1076.16 145.012 24
-2 -7 7 941.514 147.482 30
-2 -7 6 4126.69 299.923 24
-2 -7 6 4517.48 307.98 30
-2 -7 5 1824.07 204.556 24
-2 -7 4 4625.97 323.84 24
-2 -7 3 2566.68 241.393 24
-2 -7 2 584.325 117.57 24
2 7 -2 698.55 129.984 23
-2 -7 1 1124.12 153.838 24
2 7 -1 1239.49 167.548 23
-2 -7 0 4930.96 286.834 24
2 7 0 5405.54 323.963 23
2 7 1 2695.09 215.131 23
2 7 2 202.378 58.4338 23
-2 -8 10 306.073 67.8697 30
-2 -8 9 1928.25 171.239 30
-2 -8 8 22.403 43.462 30
-2 -8 7 66.6694 53.731 24
-2 -8 6 6301.38 347.218 24
-2 -8 5 170.493 75.3105 24
-2 -8 4 10.3781 49.4093 24
-2 -8 3 2362.24 211.673 24
-2 -8 2 -5.45182 52.4666 24
2 8 -2 82.053 48.1165 23
-2 -8 1 1071.78 118.436 24
2 8 -1 1942.58 167.109 23
2 8 0 909.017 103.722 23
-2 -9 7 98.7265 45.0582 24
-2 -9 6 43.8054 34.4375 24
-2 -9 5 921.264 115.797 24
-2 -9 4 226.569 63.4849 24
-2 -9 3 83.7123 40.6487 24
-3 11 -2 503.493 78.4632 22
-3 11 -3 177.524 58.7459 22
3 -11 4 400.297 75.5208 24
-3 11 -4 629.159 94.594 22
3 -11 5 123.846 53.0089 24
3 -11 6 178.498 62.4642 24
3 -11 6 139.677 51.1426 17
3 -11 7 1976.77 163.75 24
3 -11 7 2166.84 164.815 17
3 -11 8 5152.33 240.737 17
-3 10 0 1939.14 163.726 22
-3 10 -1 469.329 90.9768 23
-3 10 -2 2552.11 220.314 23
3 -10 3 2513.62 206.593 24
3 -10 4 416.874 95.7477 24
3 -10 5 31.6794 48.209 24
3 -10 5 -60.7175 46.328 17
3 -10 6 2450.17 222.133 24
3 -10 6 2455.09 218.44 17
3 -10 7 -58.768 63.7807 24
3 -10 7 104.727 61.0731 17
3 -10 8 2353.82 203.355 17
3 -10 9 18.2705 39.7149 17
3 -10 10 963.245 98.066 17
-3 9 2 4033.21 227.124 23
-3 9 2 3794.82 222.926 31
-3 9 1 1145.64 146.277 22
-3 9 1 954.116 136.602 23
-3 9 1 638.373 111.984 31
-3 9 0 3014.5 244.205 31
-3 9 0 2880.36 246.966 23
-3 9 -1 72.351 53.2827 31
-3 9 -1 42.3249 63.5271 23
-3 9 -2 -93.8831 65.1929 23
3 -9 3 5757.42 346.425 24
-3 9 -3 5359.41 349.291 23
3 -9 4 324.842 97.5181 24
3 -9 5 1399.02 182.491 24
3 -9 6 3168.24 270.558 24
3 -9 7 1282.01 170.288 24
3 -9 7 1280.71 174.17 17
3 -9 8 207.862 69.9221 21
3 -9 8 204.786 76.234 17
3 -9 9 198.427 66.3513 21
3 -9 9 327.039 90.5836 17
3 -9 10 47.4442 35.8299 17
-3 8 4 2625.64 176.18 31
-3 8 3 294.558 88.3266 31
-3 8 3 282.829 69.4305 23
-3 8 2 2453.1 223.487 23
-3 8 2 2605.06 223.307 22
-3 8 2 2342.41 223.349 31
-3 8 1 1060.19 162.797 31
-3 8 1 1265 173.209 23
-3 8 0 598.921 120.001 23
-3 8 0 516.498 120.61 31
-3 8 -1 4034.86 307.293 23
-3 8 -1 4362.66 317.372 31
3 -8 2 13593.7 515.61 24
-3 8 -2 14493.2 559.771 31
-3 8 -2 14549.3 573.014 23
3 -8 3 -4.79487 38.2572 24
-3 8 -3 -5.14103 40.3518 23
3 -8 4 5846.6 353.933 24
3 -8 5 3339 272.717 24
3 -8 6 4702.66 324.509 24
3 -8 7 -60.3411 58.1621 24
3 -8 7 50.5855 51.1752 21
3 -8 7 91.1215 63.4802 17
3 -8 8 79.6484 74.9463 21
3 -8 8 169.932 77.6307 17
3 -8 9 1392.74 175.232 21
3 -8 9 1192.73 158.844 17
3 -8 10 115.248 62.9648 21
3 -8 10 242.847 63.606 17
3 -8 11 42.8624 38.5055 29
-3 7 5 28.7796 40.1242 31
-3 7 4 3437.03 260.103 31
-3 7 3 3124.96 250.867 23
-3 7 3 2599.61 247.921 31
-3 7 2 766.227 134.759 23
-3 7 2 649.69 135.331 31
-3 7 1 802.729 141.12 23
-3 7 1 907.718 151.184 31
-3 7 0 1799.61 197.776 23
-3 7 0 2178.3 219.852 31
-3 7 -1 6365.47 363.993 23
-3 7 -1 6189.46 333.747 11
-3 7 -2 68.8391 50.7592 11
-3 7 -2 -18.1989 32.7988 1
-3 7 -3 118.418 58.4478 11
-3 7 -3 1395.27 151.658 1
-3 7 -4 314.444 74.4224 1
-3 7 -4 245.403 74.4663 11
3 -7 5 -2.70735 27.7915 24
-3 7 -5 38.1429 48.7445 11
3 -7 6 89.2818 50.697 24
3 -7 6 31.3728 50.6159 21
3 -7 7 27.802 50.4064 21
3 -7 7 118.135 53.4672 24
3 -7 7 174.23 76.0896 17
3 -7 8 84.6866 58.2194 21
3 -7 8 105.992 69.1694 17
3 -7 9 83.0918 67.5052 21
3 -7 9 159.573 73.7191 17
3 -7 10 1048.66 150.738 21
3 -7 11 158.468 59.7497 29
-3 6 6 539.445 94.0772 31
-3 6 5 1190.06 162.116 31
-3 6 4 15924.6 606.481 31
-3 6 3 6137.5 383.57 31
-3 6 3 5854.2 349.974 23
-3 6 2 -38.0616 55.817 31
-3 6 2 -9.47221 26.5521 23
-3 6 1 931.788 135.283 1
-3 6 0 42136 824.998 1
-3 6 0 42794.4 802.086 11
-3 6 -1 299.996 70.8405 2
-3 6 -1 227.274 71.1979 11
-3 6 -1 424.346 86.4996 1
-3 6 -2 23008.4 577.887 11
-3 6 -2 21910.9 547.872 1
-3 6 -2 22214.9 541.513 2
-3 6 -3 67585.8 993.566 11
-3 6 -3 69895.5 900.618 2
-3 6 -4 1026.37 127.141 11
-3 6 -4 1119.44 130.12 1
3 -6 5 2339.29 202.245 4
-3 6 -5 2052.16 178.521 11
3 -6 5 2213.59 194.276 5
-3 6 -5 1989.33 176.674 1
3 -6 5 2356.38 201.782 7
3 -6 6 355.556 83.9241 5
3 -6 6 365.378 94.5997 4
3 -6 6 426.661 94.2152 7
3 -6 7 1538.39 188.3 21
3 -6 7 1688.42 193.76 17
3 -6 8 -26.4282 49.2081 21
3 -6 8 -2.69826 52.8869 17
3 -6 9 -69.9072 64.3483 21
3 -6 10 69.3139 54.8292 21
3 -6 10 82.8383 55.9089 29
3 -6 11 3288.13 214.337 29
-3 5 7 1021.72 121.735 31
-3 5 6 608.377 114.977 28
-3 5 6 533.747 114.932 31
-3 5 6 624.782 126.631 15
-3 5 5 332.901 108.909 15
-3 5 5 145.777 83.0139 28
-3 5 5 106.556 63.3792 31
-3 5 4 19313.9 680.537 15
-3 5 4 19246.9 669.473 31
-3 5 3 388.463 101.431 31
-3 5 3 482.045 113.444 15
-3 5 2 3487.62 239.481 1
-3 5 1 16304.4 447.62 11
-3 5 1 15686.1 476.178 1
-3 5 1 16386.9 453.664 12
-3 5 1 15487.6 470.981 2
-3 5 0 2297.91 168.753 11
-3 5 0 2369.33 165.999 12
-3 5 0 2232.82 168.932 2
-3 5 0 2613.2 183.312 1
-3 5 -1 36.0861 34.7622 11
-3 5 -1 15.4531 31.0291 2
-3 5 -2 1966.45 151.417 1
-3 5 -2 1920.6 152.72 11
-3 5 -2 1798.74 135.629 2
-3 5 -3 13764.4 399.219 11
-3 5 -3 13019.1 388.211 1
-3 5 -3 13749.2 352.84 2
-3 5 -4 3417.2 210.717 1
3 -5 4 3561.88 219.922 5
3 -5 4 3587.37 221.527 4
3 -5 4 3596.48 218.915 7
3 -5 5 2765.82 206.148 5
3 -5 5 2385.25 194.261 4
3 -5 5 2464.1 194.332 7
3 -5 6 5447.71 306.027 5
3 -5 6 5368.06 308.838 4
3 -5 6 4757.52 292.741 7
3 -5 7 880.187 139.619 21
3 -5 7 802.027 132.521 17
3 -5 8 289.744 89.1734 21
3 -5 9 2648.86 239.328 21
3 -5 10 1617.69 182.765 29
3 -5 11 4107.97 225.625 29
3 -5 11 4343.88 257.368 15
-3 4 7 197.442 71.768 28
-3 4 7 198.581 68.8496 31
-3 4 7 189.717 73.5303 15
-3 4 6 31615.4 875.05 28
-3 4 6 31325.4 831.05 31
-3 4 6 32928.2 885.452 15
-3 4 5 260.719 70.5397 31
-3 4 5 263.288 89.8313 28
-3 4 5 323.5 107.222 15
-3 4 4 41530.6 864.658 1
-3 4 3 14827.8 469.167 13
-3 4 3 14111 465.049 1
-3 4 2 28336.1 601.611 1
-3 4 2 28172.5 593.969 2
-3 4 1 46585.9 709.662 1
-3 4 1 45670.2 666.832 11
-3 4 1 47713.4 716.628 2
-3 4 1 45942.3 703.722 12
-3 4 0 33001.1 569.147 12
-3 4 0 32213.9 552.974 11
-3 4 0 32255.8 558.132 1
-3 4 0 32191.2 551.141 2
-3 4 -1 3015.99 170.848 11
-3 4 -1 3220.75 173.939 1
-3 4 -1 3375.15 170.816 2
-3 4 -2 614.356 80.0749 1
-3 4 -2 569.597 79.3517 11
-3 4 -2 594.377 70.8622 2
-3 4 -3 8581.17 282.184 11
3 -4 3 8209.47 290.386 5
-3 4 -3 9034.41 258.811 2
3 -4 3 8627.59 298.434 7
3 -4 4 25980.2 554.157 5
3 -4 4 25368.1 541.034 4
3 -4 4 24984.4 546.626 7
-3 4 -5 3865.45 216.086 3
3 -4 5 3829.34 234.469 5
3 -4 5 3814.44 232.854 4
3 -4 5 3760.12 235.151 7
3 -4 6 4832.1 284.423 5
3 -4 6 4638.69 281.185 4
3 -4 6 4746.79 291.214 7
3 -4 7 1255.8 161.079 21
3 -4 8 139.777 60.9535 21
3 -4 9 9292.38 424.075 21
3 -4 9 9432.27 465.192 29
3 -4 10 3733.69 261.835 29
3 -4 10 4003.06 289.308 15
3 -4 11 241.713 66.0808 15
-3 3 9 61.8439 36.9065 15
-3 3 8 8.83546 39.3413 28
-3 3 8 40.934 46.5901 15
-3 3 7 1758.88 211.144 28
-3 3 7 1637.76 197.752 15
-3 3 6 15685.5 613.709 19
-3 3 6 15555 607.296 15
-3 3 6 14747.8 605.122 28
-3 3 5 21647.5 637.159 13
-3 3 5 20639.1 597.835 1
-3 3 4 2389.79 196.028 13
-3 3 4 2332.22 187.23 1
-3 3 4 2466.67 189.65 6
-3 3 3 237.577 57.2561 2
-3 3 3 295.319 74.6904 1
-3 3 3 332.586 67.5571 6
-3 3 2 16860.2 428.092 12
-3 3 2 16965.3 405.971 1
-3 3 2 17952 373.488 6
-3 3 2 17062.4 403.436 2
-3 3 1 41556.3 617.087 12
-3 3 1 43657.9 592.15 1
-3 3 1 42706 597.009 2
-3 3 0 46254.9 582.642 1
-3 3 0 45607.2 578.542 2
-3 3 -1 156634 1093.15 1
3 -3 1 155836 987.439 5
-3 3 -1 157485 1037.76 2
-3 3 -2 268.708 50.8909 3
3 -3 2 265.811 51.0948 5
-3 3 -2 409.62 55.9822 2
3 -3 2 285.991 52.8569 7
-3 3 -3 9529.89 288.353 3
3 -3 3 9876.82 304.257 5
3 -3 3 10246 293.924 4
-3 3 -3 9942.32 259.824 2
3 -3 3 9984.46 305.46 7
-3 3 -4 652.272 86.383 3
3 -3 4 736.308 98.5153 5
3 -3 4 747.591 92.561 4
3 -3 4 795.42 99.4708 7
-3 3 -5 13502.9 408.038 3
3 -3 5 13029.7 432.857 5
3 -3 5 13160.8 439.936 7
3 -3 5 14057.3 432.402 4
3 -3 6 5577.85 306.667 5
3 -3 6 5932.17 320.282 4
3 -3 6 5544.09 316.401 7
3 -3 7 964.679 153.699 29
3 -3 8 385.839 109.398 29
3 -3 9 5071.45 332.47 29
3 -3 9 5057.71 351.045 15
3 -3 10 665.871 104.435 29
3 -3 10 723.787 121.617 15
-3 2 9 326.996 79.4138 15
-3 2 9 439.446 96.0431 28
-3 2 8 1872.32 206.873 15
-3 2 8 1971.9 215.969 28
-3 2 8 2181.78 221.273 27
-3 2 7 11144.6 529.652 28
-3 2 7 10912.5 505.117 15
-3 2 7 10761.7 500.604 27
-3 2 6 1608.29 201.066 19
-3 2 6 1722.09 198.67 15
-3 2 6 1662.24 193.074 27
-3 2 6 1347.13 180.272 28
-3 2 5 55.8939 45.7269 13
-3 2 5 43.1975 33.7334 6
-3 2 4 37443.2 640.086 1
-3 2 4 35773.1 716.056 13
-3 2 4 37896.5 609.812 2
-3 2 4 37745.8 706.385 6
-3 2 3 3558.24 158.435 9
-3 2 3 3787.55 197.267 6
-3 2 3 3436.18 171.803 1
-3 2 3 3490.35 172.658 2
-3 2 2 13940.4 307.566 1
-3 2 2 13185.7 352.82 12
-3 2 2 13625.8 304.581 9
-3 2 2 13847.7 320.241 2
-3 2 2 14298.7 327.069 6
-3 2 1 6972.63 235.342 12
3 -2 -1 6661.87 129.728 5
-3 2 1 7031.02 216.107 2
-3 2 1 7143.26 203.379 1
-3 2 1 6919.63 196.691 6
3 -2 0 68012.7 527.75 5
-3 2 0 68181.8 650.84 2
-3 2 0 67743.4 623.925 1
3 -2 1 5768.94 182.636 5
-3 2 -1 6114.37 192.991 2
-3 2 -1 6073.36 197.362 3
3 -2 1 5835.62 173.504 7
-3 2 -2 57412.2 652.665 3
-3 2 -2 59904.3 617.373 2
3 -2 2 59729.6 583.819 4
3 -2 2 56710.9 637.67 7
3 -2 2 57307.7 663.823 5
3 -2 3 99399.9 993.511 5
-3 2 -3 104754 829.733 9
3 -2 3 99983.5 970.523 7
3 -2 3 103315 893.052 4
-3 2 -3 98737 943.71 3
3 -2 4 32876 636.265 7
3 -2 4 32888.9 587.445 4
3 -2 4 33565.5 639.199 5
-3 2 -4 31252.8 589.17 3
3 -2 5 24661.2 604.764 5
-3 2 -5 24121.2 572.778 3
3 -2 5 26464.7 567.282 8
3 -2 5 26281.4 601.908 4
3 -2 5 24381.2 617.892 7
-3 2 -6 7520 350.104 3
3 -2 6 7492 363.932 5
3 -2 6 7730.82 368.016 4
3 -2 6 6882.17 368.174 7
3 -2 7 17366.4 630.296 29
3 -2 8 28628.3 807.551 29
3 -2 8 26810.1 821.16 15
3 -2 9 2002.38 196.704 29
3 -2 9 2055.67 208.634 32
3 -2 9 2137.45 216.238 15
3 -2 10 103.822 50.6465 15
-3 1 9 4.08347 48.4056 28
-3 1 9 32.3285 53.5602 27
-3 1 9 -87.6256 53.9745 15
-3 1 8 31.7382 40.5897 15
-3 1 8 -8.21471 51.6505 28
-3 1 8 116.223 65.6607 27
-3 1 7 13736.9 591.034 19
-3 1 7 15083.5 609.941 28
-3 1 7 14106.4 579.393 27
-3 1 6 96189.8 1366.13 13
-3 1 6 96035 1365.81 6
-3 1 5 19488.7 556.465 6
-3 1 5 19850.5 569.154 13
-3 1 4 10785.9 372.003 6
-3 1 4 11362.2 294.188 1
-3 1 4 10649.7 374.445 13
-3 1 3 2679.22 133.925 9
-3 1 3 2708.51 124.284 1
-3 1 3 2795.35 137.236 2
-3 1 3 2837.55 166.762 6
-3 1 2 184805 1239.29 12
-3 1 2 188872 1068.64 2
-3 1 2 188939 920.952 1
-3 1 2 186244 1189.74 6
3 -1 -1 39338.7 325.775 5
-3 1 1 41094.2 432.196 3
-3 1 1 39370.1 513.196 12
-3 1 1 40142.2 484.676 2
-3 1 1 40346.9 409.897 1
-3 1 1 41277.4 512.979 9
3 -1 -1 39066.7 262.304 7
3 -1 0 62916.9 541.925 5
-3 1 0 63686 629.972 9
3 -1 0 63145.8 438.102 7
3 -1 1 32599.9 462.354 5
-3 1 -1 32021.7 442.814 9
3 -1 1 32776.3 414.226 7
-3 1 -1 32561.2 467.046 3
3 -1 2 15023.5 357.569 5
-3 1 -2 15201.9 359.692 3
-3 1 -2 14715.8 305.122 9
3 -1 2 15366.5 345.088 7
3 -1 3 36399.8 625.622 5
3 -1 3 35726.9 592.731 8
3 -1 3 35605.3 611.214 7
-3 1 -3 35653.4 611.798 3
-3 1 -4 156.45 54.4738 3
3 -1 4 263.869 72.4308 7
3 -1 4 156.44 54.2137 5
3 -1 4 123.353 54.9538 8
3 -1 4 199.049 53.6192 4
3 -1 5 5451.23 299.518 5
3 -1 5 6043.72 295.08 8
3 -1 5 5433.86 314.527 7
-3 1 -5 5566.42 299.877 3
3 -1 6 10709.7 484.029 29
3 -1 7 14332.9 574.613 29
3 -1 7 15342.7 616.891 15
3 -1 8 3163.59 257.382 29
3 -1 8 3628.92 293.397 15
3 -1 9 1750.35 158.72 29
3 -1 9 1339.37 155.288 15
3 -1 9 1792.76 181.157 32
-3 0 10 28.1663 50.8482 27
-3 0 9 4038.9 313.033 28
-3 0 9 3790.69 307.237 27
-3 0 8 15600.5 631.918 28
-3 0 8 15422.8 624.913 27
-3 0 7 11548.4 523.632 28
-3 0 7 11534.4 530.24 19
-3 0 7 11930.6 527.095 27
-3 0 6 17896.2 575.346 6
-3 0 6 18734.5 587.72 13
-3 0 5 5779.6 298.2 13
-3 0 5 5553.92 295.356 6
-3 0 4 35444.7 565.853 4
-3 0 4 34706.6 643.451 13
-3 0 4 34905.5 648.101 6
-3 0 3 161835 959.119 2
-3 0 3 158671 1243.73 6
-3 0 2 111375 811.064 2
3 0 -2 111886 689.235 8
-3 0 2 111030 963.52 6
-3 0 2 112498 439.652 1
-3 0 1 67700.2 611.267 12
-3 0 1 66602.9 555.195 3
3 0 0 81489.3 732.616 5
-3 0 0 82406.3 616.46 12
3 0 0 80372.8 742.483 8
-3 0 0 80216.9 707.915 3
3 0 1 28051 484.032 5
-3 0 -1 28148.4 471.316 3
3 0 1 27011.4 474.31 8
3 0 2 18699.9 442.455 5
3 0 2 18512.5 433.303 8
3 0 2 19337.3 435.591 7
-3 0 -2 18599.8 433.336 3
3 0 3 135147 1321.94 5
3 0 3 133233 1263.77 8
-3 0 -4 437.625 89.46 3
3 0 4 399.185 88.7636 5
3 0 4 409.704 82.3975 8
3 0 4 339.941 79.6029 7
3 0 5 15052.1 561.731 29
3 0 6 21711.3 717.46 15
3 0 6 21398.4 696.612 29
3 0 7 30.9832 57.9677 15
3 0 7 66.3379 60.0148 29
3 0 8 488.217 102.601 15
3 0 8 343.208 83.2814 29
3 0 8 456.882 104.904 32
3 0 9 549.435 86.3292 32
-3 -1 11 442.257 86.4561 27
-3 -1 10 248.772 95.8157 27
-3 -1 9 5554.88 373.016 28
-3 -1 9 5038.03 362.539 27
-3 -1 8 20688.5 723.129 27
-3 -1 8 21122.9 725.749 28
-3 -1 7 -60.8603 43.2618 18
-3 -1 7 42.26 42.4039 19
-3 -1 7 68.9083 60.3154 28
-3 -1 6 2385.58 185.014 4
-3 -1 6 2869.21 233.897 6
-3 -1 5 306.703 79.1462 13
-3 -1 5 452.982 89.605 6
-3 -1 5 424.007 71.3595 4
-3 -1 4 7677.07 296.862 13
-3 -1 4 7584.69 241.095 4
-3 -1 4 6958.67 295.794 6
-3 -1 3 47716.7 639.065 13
-3 -1 3 46265.2 538.379 2
-3 -1 3 46750.2 692.88 6
-3 -1 2 27822.9 419.378 13
3 1 -2 28050 416.151 8
-3 -1 2 28660.6 337.677 3
3 1 -1 5549.97 205.784 8
-3 -1 1 5563.09 184.417 3
3 1 0 2430.54 149.806 5
-3 -1 0 2455.57 144.425 3
3 1 0 2398.54 149.297 8
3 1 0 2487.76 125.145 7
3 1 1 72655.2 891.858 5
3 1 1 71059.8 881.509 8
3 1 1 73368 819.85 7
-3 -1 -1 72191.9 870.422 3
3 1 2 18507 495.437 5
3 1 2 18605.5 492.089 8
-3 -1 -2 18992.3 494.45 3
-3 -1 -3 164.225 61.3022 3
3 1 3 272.875 72.4203 5
3 1 3 184.477 62.342 7
3 1 3 250.17 69.9956 8
3 1 4 9402.8 410.011 8
3 1 4 9550.32 429.912 7
3 1 4 9298.63 414.553 5
3 1 5 35475.6 891.567 29
3 1 6 16331.7 598.484 29
3 1 6 16760.5 613.943 15
3 1 7 34.1837 49.0251 32
3 1 7 -20.6613 41.8766 15
3 1 8 908.886 122.756 32
-3 -2 11 -9.73151 43.1771 27
-3 -2 10 4501.03 325.934 27
-3 -2 9 24647.7 796.052 27
-3 -2 8 187.239 88.6519 28
3 2 -7 1343.41 154.494 10
-3 -2 7 1901.64 206.203 18
-3 -2 7 1850.98 207.971 28
-3 -2 6 276.567 78.4215 6
-3 -2 5 42960.6 812.57 6
-3 -2 4 32912.4 654.883 6
-3 -2 3 31724 613.124 6
3 2 -2 2721.36 159.569 8
3 2 -1 34296.5 605.216 8
-3 -2 1 34791.9 546.662 3
3 2 0 1615.05 143.994 8
-3 -2 0 1506.01 131.242 3
3 2 1 60372.6 931.982 8
-3 -2 -1 61588.3 911.012 3
3 2 2 4271.14 268.345 8
-3 -2 -2 4001.62 257.244 3
3 2 3 32780.8 821.187 29
3 2 4 6856.33 419.116 32
3 2 4 7320.39 405.447 29
3 2 5 162.412 83.1325 32
3 2 5 152.116 81.9666 29
3 2 6 19.3332 50.382 32
3 2 7 89.818 59.518 32
-3 -3 11 5882.78 320.023 27
-3 -3 10 973.554 159.303 27
-3 -3 9 4258.6 332.678 27
-3 -3 9 4279.94 302.043 30
-3 -3 8 1796.62 202.703 30
-3 -3 7 311.542 97.057 18
3 3 -6 7996.05 369.669 10
-3 -3 6 8196.3 391.304 6
3 3 -5 5535.37 295.209 10
-3 -3 5 5788.28 310.25 6
-3 -3 4 31.0486 39.8837 6
3 3 -4 30.4782 35.3092 10
3 3 -3 1299.8 131.493 10
-3 -3 3 1107.08 124.912 6
3 3 -2 67058.2 939.484 14
3 3 -2 79816 953.596 10
-3 -3 1 15270.8 425.552 3
3 3 -1 15304.2 480.008 14
-3 -3 0 535 98.4608 3
3 3 1 3864.74 273.07 14
-3 -3 -1 3725.24 256.466 3
-3 -3 -2 290.371 83.7726 24
3 3 2 322.506 95.8237 32
3 3 3 2749.25 262.663 32
3 3 4 22138.8 741.007 32
3 3 5 419.904 91.1396 23
3 3 5 238.362 88.7742 32
3 3 6 378.493 72.5717 23
-3 -4 11 968.118 130.735 27
-3 -4 10 68.0442 52.6623 30
-3 -4 10 69.0841 67.5439 27
-3 -4 9 992.403 155.687 30
-3 -4 9 835.374 152.14 27
-3 -4 8 139.075 65.9144 30
-3 -4 7 2135.82 232.94 25
-3 -4 7 2135.03 224.028 18
-3 -4 6 12155.5 507.116 18
3 4 -5 1721.66 178.896 10
3 4 -4 10464.9 413.409 10
3 4 -3 6522.86 314.006 10
3 4 -2 6343.06 326.354 14
3 4 -1 8886.66 409.443 14
-3 -4 0 484.765 106.249 24
-3 -4 -1 791.385 133.327 24
-3 -4 -2 13924.8 531.496 24
3 4 3 13678.6 555.362 32
3 4 4 206.392 79.5475 23
3 4 5 961.933 113.732 23
3 4 5 953.04 119.146 31
-3 -5 11 7611.34 305.96 30
-3 -5 11 8354.49 326.344 27
-3 -5 10 -82.2819 54.3246 27
-3 -5 10 25.5553 44.8335 30
-3 -5 9 1934.88 208.169 27
-3 -5 9 2030.05 215.03 30
-3 -5 8 407.237 102.923 30
-3 -5 7 2634.57 253.6 30
-3 -5 7 2677.22 257.296 25
-3 -5 6 8818.78 445.454 25
-3 -5 5 483.739 107.587 24
-3 -5 4 16053.7 571.589 24
-3 -5 3 4432.99 303.285 24
-3 -5 2 1373.1 173.651 24
-3 -5 1 3145.17 262.849 24
-3 -5 0 13.4956 48.6492 24
3 5 1 29187.1 817.089 23
-3 -5 -1 29343.3 767.808 24
3 5 2 1144.38 165.812 23
3 5 3 188.413 70.5142 23
3 5 4 74.5185 42.9647 23
-3 -6 11 1524.23 132.926 30
-3 -6 10 44.7456 44.165 30
-3 -6 9 -33.1343 54.287 30
-3 -6 8 580 125.97 30
-3 -6 7 229.965 84.8416 30
-3 -6 6 1552.08 180.385 24
-3 -6 6 1247.32 174.129 30
-3 -6 5 1496.29 181.037 24
-3 -6 4 2143.11 217.858 24
-3 -6 3 4768.72 327.47 24
-3 -6 2 190.464 75.2046 24
-3 -6 1 2334.96 226.378 24
3 6 -1 2786.58 246.297 23
3 6 0 12.6317 56.3695 23
-3 -6 0 59.2866 53.7594 24
-3 -6 -1 765.971 114.516 24
3 6 1 698.393 119.412 23
3 6 2 -15.2555 40.7007 23
-3 -7 10 52.1725 36.2237 21
-3 -7 10 37.4594 37.8301 30
-3 -7 9 564.222 105.636 30
-3 -7 8 2398.06 214.718 30
-3 -7 7 56.4021 49.8544 24
-3 -7 7 284.014 82.7961 30
-3 -7 6 360.204 91.0249 24
-3 -7 5 3952.45 285.944 24
-3 -7 4 941.595 144.413 24
-3 -7 3 444.385 108.451 24
-3 -7 2 682.238 118.444 24
-3 -7 1 4189.59 259.711 24
3 7 -1 4664.6 275.322 23
-3 -7 0 601.063 89.3121 24
3 7 0 663.574 100.848 23
3 7 1 678.091 87.233 23
-3 -8 8 999.7 107.796 30
-3 -8 7 886.457 109.102 24
-3 -8 6 763.585 111.431 24
-3 -8 5 368.574 83.2897 24
-3 -8 4 170.807 63.7133 24
-3 -8 3 931.138 117.542 24
-3 -8 2 2384.17 164.159 24
-4 11 -2 0.24764 34.7443 22
-4 11 -3 1510.41 151.07 22
4 -11 4 1601.87 140.866 24
-4 11 -4 1855.9 165.17 22
4 -11 5 126.923 52.7367 24
4 -11 6 138.686 57.6903 17
4 -11 7 1246.49 130.325 17
4 -11 8 78.2066 46.0379 17
-4 10 1 1486.98 124.36 22
-4 10 0 279.659 75.3474 22
-4 10 -1 322.452 86.7808 22
-4 10 -2 25.4889 49.1265 22
-4 10 -3 153.18 68.1398 22
4 -10 4 163.432 68.4616 24
-4 10 -4 325.646 86.3599 22
4 -10 5 -36.1565 47.7176 24
4 -10 5 25.4229 41.4192 17
4 -10 6 187.695 78.0151 24
4 -10 6 72.907 52.5643 17
4 -10 7 129.111 67.5053 17
4 -10 8 19.7997 55.2678 17
4 -10 9 362.525 78.7773 17
-4 9 2 3345.36 210.145 22
-4 9 2 3494.04 232.16 31
-4 9 1 1363.38 164.865 23
-4 9 1 1475.52 169.801 31
-4 9 1 1609.77 180.989 22
-4 9 0 5679.79 348.297 23
-4 9 0 5932.12 360.594 22
-4 9 0 5760.53 348.011 31
-4 9 -1 434.996 108.805 23
-4 9 -2 3893.49 304.128 23
4 -9 3 51.32 62.3112 24
4 -9 4 1813.44 201.821 24
4 -9 4 2006.15 205.648 17
4 -9 5 719.73 129.333 24
4 -9 5 440.076 110.606 17
4 -9 6 501.433 117.873 24
4 -9 6 690.589 135.195 17
4 -9 7 878.032 145.883 17
4 -9 8 463.176 109.177 17
4 -9 9 94.6566 53.1339 17
4 -9 10 64.5023 38.775 17
-4 8 4 197.28 64.8269 31
-4 8 3 1165.75 133.571 23
-4 8 3 977.603 141.991 31
-4 8 2 10054.6 444.677 23
-4 8 2 10089.3 449.712 22
-4 8 2 10041.4 465.841 31
-4 8 1 1287.62 170.088 23
-4 8 1 1159.99 170.853 31
-4 8 0 683.219 132.913 23
-4 8 0 1001.3 159.5 31
-4 8 -1 2888.47 261.076 23
-4 8 -1 2363.2 237.802 31
-4 8 -2 25.8254 47.7253 23
4 -8 3 8663.57 416.72 24
4 -8 4 951.015 147.807 24
4 -8 4 915.26 140.856 17
4 -8 5 10416.7 477.797 24
4 -8 5 9993.32 468.093 17
4 -8 6 1056.63 159.615 24
4 -8 6 1199.2 167.478 21
4 -8 6 1353.76 179.544 17
4 -8 7 379.787 102.429 21
4 -8 7 344.389 100.157 17
4 -8 8 52.0099 66.5088 21
4 -8 8 117.115 62.6745 17
4 -8 9 1747.98 183.997 17
4 -8 10 8.74693 30.7695 17
4 -8 11 124.013 46.4781 29
-4 7 5 83.2442 49.587 31
-4 7 5 111.52 43.4535 28
-4 7 4 3779.31 276.738 31
-4 7 4 3991.53 287.779 28
-4 7 3 2700.61 232.636 23
-4 7 3 3000.23 262.902 31
-4 7 2 19114.4 641.126 23
-4 7 2 19018.9 651.965 22
-4 7 2 19091.7 673.332 31
-4 7 1 859.252 145.313 31
-4 7 1 895.565 142.682 23
-4 7 0 7120.21 387.673 23
-4 7 0 7568.56 409.97 31
-4 7 -1 10566.5 465.178 23
-4 7 -1 10291.6 431.903 11
-4 7 -2 3253.21 242.997 11
-4 7 -2 2957.32 225.379 2
-4 7 -2 3068.66 234.831 1
-4 7 -3 18050.8 570.043 11
-4 7 -3 18133.3 559.046 1
-4 7 -4 9267.04 409.767 11
4 -7 4 8715.04 400.196 5
-4 7 -4 8894.41 394.976 1
4 -7 4 8831.87 410.217 7
4 -7 5 903.001 138.172 24
4 -7 5 988.821 145.883 17
4 -7 5 1183.41 156.12 21
4 -7 6 12149.9 508.913 24
4 -7 6 11300.8 491.597 21
4 -7 6 10942.3 492.633 17
4 -7 7 320.338 101.213 21
4 -7 7 192.108 79.8755 17
4 -7 8 2430.28 243.096 21
4 -7 8 2107.21 219.186 17
4 -7 9 169.841 80.3135 21
4 -7 9 337.414 88.0817 17
4 -7 10 1095.35 148.397 29
4 -7 11 3909.14 212.288 29
-4 6 6 659.778 103.892 28
-4 6 6 774.35 111.867 31
-4 6 5 908.118 142.262 31
-4 6 5 744.186 129.762 28
-4 6 4 4469.99 323.264 31
-4 6 3 36048.1 916.682 31
-4 6 2 6087.85 348.773 23
-4 6 2 6383.88 376.734 31
-4 6 1 2647.97 220.498 2
-4 6 1 2384.24 209.066 1
-4 6 0 6024.89 314.115 1
-4 6 0 6628.5 322.523 12
-4 6 0 5762.21 305.089 2
-4 6 -1 31319.3 686.271 12
-4 6 -1 30141.3 677.213 11
-4 6 -1 28726.4 660.836 1
-4 6 -1 29787.4 661.523 2
-4 6 -2 10883.3 404.413 11
-4 6 -2 10628.3 381.711 2
-4 6 -2 10696 395.503 1
-4 6 -3 19004.7 537.513 11
4 -6 3 19403.9 537.419 5
-4 6 -3 17856 522.709 1
-4 6 -3 18992 491.493 2
-4 6 -4 3203.12 223.683 11
4 -6 4 3029.51 224.26 5
-4 6 -4 3220.65 228.1 1
4 -6 4 2942.11 224.199 4
4 -6 4 3172.08 230.022 7
4 -6 5 705.584 119.337 5
4 -6 5 838.078 129.687 7
-4 6 -5 845.597 128.474 1
4 -6 5 696.165 114.942 4
4 -6 6 33.752 44.8385 21
4 -6 6 -6.84023 54.7237 17
4 -6 7 12116.7 517.613 21
4 -6 7 11515.6 500.676 17
4 -6 8 22.377 52.9764 21
4 -6 8 -14.472 47.1722 17
4 -6 9 2607.9 220.76 17
4 -6 10 1133.59 147.83 29
4 -6 11 1496.17 131.589 29
4 -6 11 1452.52 137.538 15
-4 5 7 1773.57 166.269 28
-4 5 6 167.78 67.9571 31
-4 5 6 127.809 66.2716 28
-4 5 5 32790.2 855.867 31
-4 5 5 32513.8 912.559 28
-4 5 5 35025.1 901.259 15
-4 5 4 598.952 127.507 31
-4 5 4 1868.51 211.944 15
-4 5 3 139.4 67.6041 15
-4 5 3 106.427 61.8942 31
-4 5 2 4009.85 256.081 1
-4 5 2 4107.07 260.526 2
-4 5 1 325.035 78.1508 2
-4 5 1 293.781 70.7994 12
-4 5 1 229.465 63.1851 1
-4 5 0 53915.4 856.462 12
-4 5 0 52660.7 830.701 1
-4 5 0 51517.9 818.133 2
-4 5 -1 3756.96 218.406 11
-4 5 -1 3757.76 216.802 1
-4 5 -1 3648.57 212.421 2
-4 5 -2 3113.67 199.16 11
4 -5 2 2436.08 168.337 5
-4 5 -2 3338.78 207.742 1
-4 5 -2 2783.26 178.747 2
-4 5 -3 7944.53 327.037 1
4 -5 3 8431.41 329.364 5
-4 5 -3 8734.96 304.38 2
-4 5 -4 2444.73 192.378 1
4 -5 4 2873.25 205.98 5
4 -5 4 3023.4 208.188 4
4 -5 4 2762.84 202.956 7
4 -5 5 8376.65 374.154 5
4 -5 5 9453.19 397.287 4
4 -5 5 8793.23 388.375 7
4 -5 6 2977.13 246.403 21
4 -5 6 2661.05 220.963 4
4 -5 7 10293.9 475.557 21
4 -5 7 11365.5 484.392 17
4 -5 8 3.63785 43.3948 21
4 -5 8 156.06 51.4552 17
4 -5 9 326.429 105.057 29
4 -5 10 10605.3 428.367 29
-4 4 8 104.089 52.727 28
-4 4 7 117.986 62.5334 28
-4 4 7 -16.749 41.0892 15
-4 4 6 68.1962 62.5728 15
-4 4 6 350.476 106.788 28
-4 4 5 5776.3 351.653 31
-4 4 5 5819.01 368.823 19
-4 4 5 5430.58 374.212 28
-4 4 5 5544.2 355.577 15
-4 4 4 37737 810.025 1
-4 4 4 38372.2 856.273 13
-4 4 3 9972.55 383.576 1
-4 4 3 10099 388.167 2
-4 4 2 20914.7 551.192 12
-4 4 2 21258.4 524.746 1
-4 4 2 20406.5 515.846 2
-4 4 1 8456.21 329.232 12
-4 4 1 9029.11 320.242 1
-4 4 1 8694.98 319.038 2
-4 4 0 71220.1 921.734 12
4 -4 0 71467.9 733.697 5
-4 4 0 72069.2 858.001 1
-4 4 0 71306.1 865.455 2
4 -4 1 4573.98 196.712 5
-4 4 -1 4548.45 221.791 1
-4 4 -1 4664.17 215.279 2
-4 4 -2 27354.3 552.862 1
4 -4 2 28487.9 529.12 5
-4 4 -2 28298.3 522.645 2
4 -4 2 29139.4 544.502 7
4 -4 3 4666.46 232.948 5
4 -4 3 4696.53 225.935 4
-4 4 -3 4627.08 210.826 2
4 -4 3 4774.73 235.248 7
-4 4 -4 17437.3 474.742 3
4 -4 4 17238.5 489.131 5
4 -4 4 18708.9 485.967 4
4 -4 4 18136.4 500.262 7
-4 4 -5 9943.31 384.318 3
4 -4 5 9698.18 399.145 5
4 -4 5 9743.22 402.265 7
4 -4 5 10050.5 388.988 4
-4 4 -6 3586.48 247.263 3
4 -4 6 3425.43 251.269 4
4 -4 7 82.1876 59.6493 17
4 -4 7 36.4928 50.813 21
4 -4 8 17523.4 650.27 29
4 -4 9 10168 467.909 29
4 -4 10 1406.12 151.268 29
4 -4 10 1289.73 148.69 15
-4 3 9 1411.36 130.498 28
-4 3 8 65.8966 58.9207 28
-4 3 8 65.7992 47.6431 15
-4 3 7 7734.64 440.382 28
-4 3 7 7680.9 406.098 15
-4 3 6 15116.9 615.223 19
-4 3 6 14103.8 602.804 28
-4 3 5 42725.2 985.343 19
-4 3 5 42851.6 1003.38 28
-4 3 4 1476.59 162.756 13
-4 3 4 1336.1 138.024 1
-4 3 3 3588.63 205.437 1
-4 3 3 3518.92 207.043 2
-4 3 3 3706.38 211.685 6
-4 3 2 38215.2 693.947 12
-4 3 2 39823 625.024 1
-4 3 2 39350.5 625.956 9
-4 3 2 39930.9 648.555 2
-4 3 2 39793.8 605.694 6
-4 3 1 52396.1 764.427 12
-4 3 1 52643.2 709.968 2
-4 3 1 52454.7 674.01 1
-4 3 0 3473.84 191.354 12
4 -3 0 3406.39 143.304 5
-4 3 0 3471.12 174.32 1
-4 3 0 3609.29 181.929 2
-4 3 -1 84829.9 877.138 1
4 -3 1 86305.8 801.068 5
4 -3 1 84196.3 781.53 7
-4 3 -2 105714 1012.66 3
4 -3 2 106581 1008.7 5
4 -3 2 108172 909.619 4
-4 3 -2 107631 984.189 2
4 -3 2 107287 968.478 7
4 -3 3 1373.05 128.7 5
-4 3 -3 976.717 109.298 3
-4 3 -3 1007.1 101.368 2
4 -3 3 981.387 99.3579 4
-4 3 -3 1020.8 102.83 9
4 -3 3 981.911 106.048 7
-4 3 -4 3067.41 202.391 3
4 -3 4 3252.1 218.185 5
4 -3 4 3701.46 206.725 4
4 -3 4 3206.98 211.276 7
-4 3 -5 70790.6 1047.01 3
4 -3 5 73266.5 1101.64 5
4 -3 5 72479.6 1108.48 7
4 -3 6 44.3901 55.3966 29
4 -3 7 39062.2 961.968 29
4 -3 8 5300.1 353.527 29
4 -3 9 9.06782 39.4281 15
4 -3 9 178.153 70.5572 29
4 -3 10 548.866 87.5847 15
4 -3 10 558.971 87.4604 29
-4 2 9 973.389 139.215 28
-4 2 8 8.55465 51.7947 28
-4 2 8 73.5452 61.8757 27
-4 2 7 20375.9 727.691 28
-4 2 7 20097.8 723.515 19
-4 2 7 22404.9 716.546 27
-4 2 6 153.186 67.4396 28
-4 2 6 48.5135 47.9978 27
-4 2 5 131.637 52.6097 13
-4 2 5 212.688 67.4782 6
-4 2 4 2773.37 215.252 13
-4 2 4 2449.35 192.511 6
-4 2 3 9441.59 296.479 9
-4 2 3 9690.77 284.582 1
-4 2 3 9800.71 309.953 2
-4 2 3 9707.22 336.367 6
-4 2 2 31561 595.038 12
-4 2 2 32048.8 543.567 9
-4 2 2 32520 541.315 2
-4 2 2 32539.4 486.513 1
-4 2 2 32890.1 558.19 6
-4 2 1 1030.43 104.689 12
-4 2 1 957.9 97.4741 9
-4 2 1 963.407 93.8366 2
-4 2 1 924.007 82.0907 1
4 -2 0 4559.03 167.991 5
-4 2 0 4433.96 184.789 3
-4 2 0 4733.18 186.21 1
-4 2 0 4334.71 199.675 12
-4 2 0 4530.87 198.623 2
-4 2 0 4750.73 206.633 9
4 -2 0 4568.81 146.138 7
4 -2 1 19571.3 396.503 5
-4 2 -1 19502.8 411.12 3
-4 2 -1 19645.6 411.066 2
4 -2 1 20307.6 306.727 4
-4 2 -1 20774.1 428.744 9
4 -2 1 19371.1 353.193 7
-4 2 -2 22930.9 477.138 3
-4 2 -2 22834.8 458.793 2
-4 2 -2 23445.2 457.349 9
4 -2 2 24617.4 380.704 4
4 -2 2 23701.1 453.451 7
4 -2 2 23730.1 488.993 5
4 -2 3 24663.7 550.503 5
-4 2 -3 25693.1 473.997 9
-4 2 -3 23992.2 531.077 3
4 -2 4 15540.7 481.433 5
4 -2 4 16315.8 469.854 8
4 -2 4 16221.4 484.305 7
-4 2 -4 15050.9 460.62 3
4 -2 5 4324.59 277.702 5
-4 2 -5 4642.43 277.834 3
4 -2 5 4736.82 274.568 8
4 -2 5 4341.8 284.219 7
4 -2 6 6009.57 372.942 29
4 -2 7 5966.06 380.098 29
4 -2 7 6419.47 395.303 15
4 -2 8 4887.41 327.289 29
4 -2 8 5092.57 334.833 15
4 -2 9 94.9503 54.4983 32
4 -2 9 128.622 55.9055 15
4 -2 9 112.075 58.9029 29
-4 1 10 89.0095 53.1621 27
-4 1 9 325.349 91.1998 28
-4 1 9 619.683 116.984 27
-4 1 8 2531.17 258.55 28
-4 1 8 2871.96 266.661 27
-4 1 7 20349 727.212 19
-4 1 7 20265.5 714.178 28
-4 1 7 22017.5 725.935 27
-4 1 6 663.15 122.893 6
-4 1 5 14322.1 504.973 13
-4 1 5 14552.8 507.92 6
-4 1 4 2011.34 175.599 13
-4 1 4 2064.86 171.861 6
-4 1 3 37378.3 596.948 9
-4 1 3 38184.5 576.407 2
-4 1 3 36289.1 652.123 6
-4 1 2 144568 1203.2 12
-4 1 2 143936 1099.96 2
-4 1 2 142435 1145.54 9
-4 1 2 142022 1186.53 6
-4 1 1 170871 1047.56 3
-4 1 1 171255 1218.51 12
-4 1 1 172589 961.501 1
-4 1 1 173154 1203.81 2
-4 1 1 174948 1244.51 9
4 -1 -1 170225 920.043 5
-4 1 0 2799.05 147.939 3
4 -1 0 2811.03 141.876 5
-4 1 0 2757.05 148.932 12
-4 1 0 2799.26 158.116 9
4 -1 1 148266 1158.92 5
-4 1 -1 145433 1155.6 9
4 -1 1 148855 993.644 7
-4 1 -1 144496 1146.88 3
4 -1 2 263.192 55.428 7
-4 1 -2 304.663 63.6918 3
4 -1 2 227.894 58.8003 5
4 -1 2 312.764 67.5232 8
4 -1 3 43656.2 778.184 5
4 -1 3 45069.7 767.701 8
4 -1 3 44377.6 762.197 7
-4 1 -3 44942.4 777.22 3
4 -1 4 17585.9 541.615 5
4 -1 4 17947.2 526.84 8
4 -1 4 18617.3 560.592 7
-4 1 -4 17035.6 526.613 3
4 -1 5 32969.8 846.285 29
4 -1 6 8142.68 437.482 29
4 -1 7 1882.98 211.429 29
4 -1 8 -11.095 39.7142 15
4 -1 8 101.067 56.0748 29
4 -1 8 -17.0368 43.3579 32
4 -1 9 683.313 98.9952 32
-4 0 10 78.2791 59.8326 27
-4 0 9 3899.47 307.074 27
-4 0 9 4453.64 328.819 28
-4 0 8 14919.3 630.449 19
-4 0 8 15397.8 630.882 28
-4 0 8 14706.9 612.219 27
-4 0 7 21104.1 728.524 19
-4 0 7 21585.5 675.832 18
-4 0 7 21481.2 725.725 28
-4 0 6 3077.89 250.597 13
-4 0 6 3185.86 255.689 6
-4 0 5 964.414 130.589 13
-4 0 5 873.683 126.709 6
-4 0 4 23991.7 571.128 13
-4 0 4 22946.8 574.502 6
-4 0 3 29147.3 501.375 2
-4 0 3 40834.6 699.979 6
-4 0 2 11170.7 313.02 2
4 0 -2 10364.9 268.456 8
-4 0 2 10552.3 344.81 6
4 0 -1 29944.1 468.972 5
-4 0 1 32442.1 489.098 12
4 0 -1 32060.6 514.856 8
-4 0 1 30688.6 460.192 3
4 0 0 137049 1129.71 5
4 0 0 135381 1148.77 8
4 0 1 921.159 107.867 5
4 0 1 762.524 96.7063 8
-4 0 -1 926.096 105.912 3
4 0 2 21912.7 552.897 5
4 0 2 21229.2 536.134 8
4 0 2 22077.6 510.252 7
-4 0 -2 20989.1 531.542 3
-4 0 -3 105.227 51.0533 3
4 0 3 170.617 62.2241 5
4 0 3 137.033 55.5782 8
4 0 3 59.0698 46.5787 7
4 0 4 2099.94 196.704 8
4 0 4 2205.01 206.531 7
4 0 4 1998.13 204.692 29
4 0 5 25742.2 769.43 29
4 0 6 5819.6 366.626 29
4 0 7 158.269 77.541 32
4 0 7 179.528 71.1539 29
4 0 8 18.2371 36.6734 32
-4 -1 11 46.9269 44.0959 27
-4 -1 10 17.2395 59.415 27
-4 -1 9 639.173 140.058 27
-4 -1 9 655.154 140.178 28
-4 -1 8 11.4968 57.1618 19
-4 -1 8 179.583 83.826 18
-4 -1 8 102.427 76.4891 28
-4 -1 7 9089.03 467.944 19
-4 -1 7 9853.42 467.262 18
-4 -1 7 9665.99 478.133 28
-4 -1 6 550.776 111.568 6
-4 -1 6 516.667 108.206 13
-4 -1 5 118.777 53.8641 6
-4 -1 5 87.1634 46.7192 13
-4 -1 4 12957.3 408.981 13
-4 -1 4 12035.1 426.259 6
-4 -1 3 58619.3 771.416 13
-4 -1 3 58037.8 733.813 2
-4 -1 3 57315.5 876.924 6
4 1 -2 15085.6 372.532 8
4 1 -1 9244.36 316.494 8
-4 -1 1 10318.7 300.981 3
4 1 0 5854.75 273.471 8
-4 -1 0 6116.93 258.787 3
4 1 1 26704.4 615.537 5
4 1 1 27714.4 631.469 8
-4 -1 -1 27751.6 604.555 3
4 1 2 16397.4 522.595 5
4 1 2 18293.7 548.818 8
-4 -1 -2 17122.9 520.958 3
4 1 3 375.352 93.5195 29
4 1 4 742.213 139.177 29
4 1 5 6058.59 376.198 29
4 1 6 601.884 124.585 32
4 1 6 588.199 114.985 29
4 1 7 646.959 115.372 32
-4 -2 11 136.431 59.5762 27
-4 -2 10 2588.85 241.814 27
-4 -2 9 8452.33 462.092 27
-4 -2 8 58.3389 55.4431 18
-4 -2 8 -63.1675 51.7652 30
-4 -2 7 9531.49 467.681 18
-4 -2 7 9688.05 473.593 28
-4 -2 6 355.785 89.4085 6
-4 -2 5 3838.44 266.049 6
-4 -2 4 36971.2 782.687 6
-4 -2 3 351.571 80.4639 6
4 2 -2 2270.24 169.365 8
4 2 -1 66641.8 967.914 8
4 2 0 14221.2 476.401 8
-4 -2 0 13539.5 432 3
-4 -2 -1 393.398 88.6385 3
4 2 1 414.049 91.9033 8
4 2 2 136.56 63.6055 29
4 2 3 37321.4 922.473 29
4 2 4 1813.82 219.142 32
4 2 5 557.741 120.641 32
4 2 6 157.06 56.8219 23
4 2 6 64.2903 58.2767 32
-4 -3 11 -15.9462 37.7017 27
-4 -3 10 952.266 149.97 27
-4 -3 9 15609.2 569.914 30
-4 -3 8 532.147 117.709 30
-4 -3 8 470.609 119.565 18
-4 -3 7 2777.72 266.126 25
-4 -3 7 2805.33 260.255 18
-4 -3 6 231.663 91.1818 25
-4 -3 6 387.119 100.469 18
4 3 -5 9546.83 413.654 10
-4 -3 5 9777.64 434.773 6
4 3 -4 4917.11 284.719 10
-4 -3 4 4886.6 297.099 6
4 3 -3 5379.37 284.163 10
-4 -3 3 5184.09 301.979 6
4 3 -2 15749.4 510.546 14
4 3 -1 11300.1 457.165 14
-4 -3 0 1826.12 194.895 24
-4 -3 -1 2006.02 208.293 24
-4 -3 -2 22906.8 691.467 24
-4 -3 -3 191.537 77.4404 24
4 3 3 265.836 93.3092 32
4 3 4 87.2344 64.1424 32
4 3 5 781.183 112.922 23
4 3 5 736.523 115.219 32
-4 -4 11 230.654 63.7962 27
-4 -4 10 447.633 92.813 30
-4 -4 10 415.29 97.3048 27
-4 -4 9 3037.65 258.43 30
-4 -4 8 2887.59 262.884 30
-4 -4 7 268.708 99.5773 25
-4 -4 7 120.162 67.4875 18
-4 -4 6 325.716 99.2077 25
-4 -4 6 2507.05 236.102 18
-4 -4 5 2959.14 250.968 18
-4 -4 4 256.02 72.515 24
-4 -4 3 9508.57 437.453 24
-4 -4 2 132.566 75.223 24
-4 -4 1 939.248 146.915 24
-4 -4 0 2240.63 224.808 24
-4 -4 -1 7380.34 396.615 24
-4 -4 -2 1882.1 194.193 24
4 4 3 174.094 77.8122 23
4 4 4 112.884 50.3739 23
-4 -5 10 3.37702 43.7842 30
-4 -5 10 -61.461 45.5735 27
-4 -5 9 1493.1 178.493 30
-4 -5 8 264.33 91.8026 30
-4 -5 7 1395.15 192.9 25
-4 -5 7 1372.09 182.425 30
-4 -5 6 2153.48 231.777 25
-4 -5 5 320.799 83.4019 24
-4 -5 4 939.474 145.767 24
-4 -5 3 39.5724 49.2572 24
-4 -5 2 225.863 82.1723 24
-4 -5 1 3502.21 277.972 24
4 5 -1 3617.26 281.234 23
-4 -5 0 12287.2 500.39 24
4 5 0 12434.3 516.536 23
-4 -5 -1 2042.58 191.96 24
4 5 1 2022.11 203.38 23
-4 -5 -2 390.183 79.6412 24
4 5 2 419.421 89.4494 23
4 5 3 38.5808 36.3764 23
-4 -6 10 549.126 92.3088 30
-4 -6 9 62.763 53.7963 30
-4 -6 8 -8.52922 46.4031 30
-4 -6 7 1729.6 190.836 25
-4 -6 7 1482.77 177.525 30
-4 -6 6 52.2252 74.4149 25
-4 -6 6 65.1665 53.3069 24
-4 -6 6 95.9451 62.9332 30
-4 -6 5 1485.09 192.954 25
-4 -6 5 1175.15 158.024 24
-4 -6 4 1207.23 165.018 24
-4 -6 3 1697.28 189.985 24
-4 -6 2 206.274 74.1342 24
-4 -6 1 1950.87 191.799 24
4 6 -1 1922.93 185.339 23
-4 -6 0 143.524 56.8737 24
4 6 0 126.987 61.176 23
-4 -6 -1 252.78 56.2894 24
4 6 1 207.086 59.7584 23
-4 -7 9 101.072 49.4985 30
-4 -7 8 170.134 60.9238 30
-4 -7 7 1606.98 151.602 30
-4 -7 6 1017.6 129.499 24
-4 -7 5 614.488 109.748 24
-4 -7 4 1160.21 144.93 24
-4 -7 3 609.776 104.257 24
-4 -7 2 2712.33 194.736 24
-4 -7 1 1062.77 108.152 24
-4 -8 5 70.32 38.8385 24
-5 11 -1 2293.77 162.942 22
-5 11 -2 433.554 84.0318 22
-5 11 -2 469.317 84.1604 26
-5 11 -3 70.9182 48.7554 22
-5 11 -4 301.662 71.9878 22
-5 11 -5 1625.29 162.944 26
-5 11 -6 53.0829 36.484 26
5 -11 6 -76.9 44.4322 17
5 -11 7 1437.68 136.154 17
5 -11 8 652.691 88.6788 17
-5 10 1 4180.62 221.934 22
-5 10 0 7.05719 34.4871 26
-5 10 0 12.9209 45.5226 22
-5 10 -1 122.296 63.8992 22
-5 10 -2 1776.12 196.155 22
-5 10 -3 316.686 87.3188 22
5 -10 4 448.712 101.145 24
-5 10 -4 423.3 102.049 22
5 -10 5 1645.75 175.297 17
-5 10 -6 630.312 109.061 26
5 -10 6 819.646 129.76 17
5 -10 7 203.718 73.1691 17
5 -10 8 811.718 119.123 17
5 -10 9 -28.5874 41.106 17
-5 9 3 63.1699 34.2885 28
-5 9 2 226.997 68.5588 22
-5 9 1 13148.3 505.591 22
-5 9 1 12706.5 498.538 31
-5 9 0 2428.88 235.949 22
-5 9 -1 1963.73 218.292 22
-5 9 -2 3342.04 284.109 22
5 -9 3 3792.86 277.849 24
-5 9 -3 4151.82 311.219 22
5 -9 4 9275.05 444.355 24
-5 9 -4 9843.66 466.108 22
5 -9 5 3332.92 272.787 24
5 -9 5 3351.63 271.586 17
5 -9 6 -7.07484 53.0975 17
5 -9 7 1154.82 164.053 17
5 -9 8 136.393 72.2772 17
5 -9 9 1679.07 165.152 17
5 -9 10 32.3775 29.9896 17
5 -9 10 -29.2947 35.6814 29
-5 8 4 23.9607 40.5473 31
-5 8 4 7.92111 27.1476 28
-5 8 3 12031.4 475.353 31
-5 8 2 9398.22 442.245 22
-5 8 2 9608.1 457.331 31
-5 8 1 2135.88 221.323 23
-5 8 1 1892.89 215.624 22
-5 8 1 2169.29 227.814 31
-5 8 0 108.311 62.0877 23
-5 8 0 24.0161 53.5123 22
-5 8 0 54.8391 69.594 31
-5 8 -1 997.72 159.783 22
-5 8 -2 25541.5 766.841 22
5 -8 3 181.625 69.929 24
-5 8 -3 172.555 72.0082 22
5 -8 4 14.7456 44.0752 24
5 -8 4 184.588 73.7212 17
5 -8 5 -13.3144 51.4186 24
5 -8 5 109.688 61.2401 17
5 -8 6 3181.69 273.239 17
5 -8 7 51.1071 56.8426 17
5 -8 8 3071.96 254.667 17
5 -8 9 1699.81 172.426 17
5 -8 10 205.535 52.3864 17
5 -8 10 138.133 55.8034 29
-5 7 5 1563.16 153.802 31
-5 7 5 1746.94 172.787 28
-5 7 4 2735.99 235.005 31
-5 7 4 2841.41 254.735 28
-5 7 3 729.012 125.888 22
-5 7 3 501.993 122.929 31
-5 7 2 2422.5 228.488 23
-5 7 2 2184.89 225.629 22
-5 7 2 1957.64 221.954 31
-5 7 1 2421.45 224.558 23
-5 7 1 2348.04 234.191 22
-5 7 1 2537.66 246.404 31
-5 7 0 6390.05 368.392 23
-5 7 0 6335.97 378.106 22
-5 7 0 6471.58 381.591 31
-5 7 -1 572.899 110 12
-5 7 -1 614.211 121.585 22
-5 7 -1 699.978 132.83 31
-5 7 -2 6272.73 348.693 12
-5 7 -2 7947.07 373.375 2
5 -7 3 4302.49 274.138 5
5 -7 4 2756.2 235.209 24
5 -7 4 2663.52 233.139 17
5 -7 5 405.355 106.703 17
5 -7 6 84.09 57.8226 17
5 -7 7 974.886 156.026 17
5 -7 8 25.7777 59.9485 17
5 -7 9 17.6464 41.0105 17
5 -7 9 -15.0494 64.5757 29
5 -7 10 2934.23 215.982 29
-5 6 6 289.656 70.0712 31
-5 6 6 434.898 91.524 28
-5 6 5 1318.5 167.325 31
-5 6 5 1679.39 203.216 28
-5 6 4 17975.2 632.97 31
-5 6 3 15986.9 586.095 22
-5 6 3 15748.7 599.331 31
-5 6 2 433.157 98.7118 22
-5 6 2 366.915 99.4461 31
-5 6 1 5064.93 306.737 1
-5 6 1 5236.89 316.115 12
-5 6 0 6798.62 349.449 12
-5 6 0 6572.05 332.361 2
-5 6 0 6262.02 328.304 1
-5 6 -1 9980.01 416.59 12
-5 6 -1 9494.01 392.21 1
-5 6 -1 9177.9 383.553 2
5 -6 2 20825.5 544.18 5
-5 6 -2 20866 579.075 1
-5 6 -2 20595.2 559.27 2
5 -6 3 10557.2 405.44 5
5 -6 3 10726.2 417.651 7
-5 6 -3 9833.32 408.398 1
-5 6 -3 10383.8 389.525 2
5 -6 4 9197.09 398.895 5
-5 6 -4 9518.41 415.069 1
5 -6 4 9260.48 399.631 4
5 -6 4 9100.67 400.274 7
5 -6 5 9759.13 446.451 17
5 -6 6 3488.85 278.052 17
5 -6 7 9883.86 469.493 17
5 -6 8 -4.59462 46.8681 17
5 -6 8 0.44859 63.8796 29
5 -6 9 13207.9 459.565 17
5 -6 9 12413.1 506.597 29
5 -6 10 56.3371 51.6106 29
-5 5 7 924.029 131.032 28
-5 5 6 3594.08 293.627 28
-5 5 5 9159.25 437.058 31
-5 5 5 8854.94 481.754 28
-5 5 4 13008.9 529.852 31
-5 5 3 13946.4 535.913 31
-5 5 2 5247.48 298.695 1
-5 5 2 4702.1 283.553 2
-5 5 1 1873.61 172.682 2
-5 5 1 1717.21 172.158 12
-5 5 1 1736.72 166.256 1
-5 5 0 13710.7 466.31 12
-5 5 0 13182.1 428.865 1
-5 5 0 14020 449.274 2
-5 5 -1 13618.4 462.432 12
-5 5 -1 13698.1 432.976 1
-5 5 -1 13968 434.881 2
5 -5 2 1999.6 158.684 5
-5 5 -2 2094.08 169.039 2
5 -5 2 2060.04 164.15 7
-5 5 -3 25052 623.948 1
5 -5 3 24982.4 597.187 5
5 -5 3 25834 593.938 4
-5 5 -3 24165.2 558.129 2
5 -5 3 25136.7 596.436 7
5 -5 4 22153 603.129 5
5 -5 4 23737.5 599.108 4
5 -5 4 21994.6 602.723 7
5 -5 5 655.875 110.938 7
5 -5 5 457.219 103.019 5
5 -5 6 514.363 112.697 17
5 -5 7 515.974 118.267 17
5 -5 7 382.97 108.066 29
5 -5 8 1989.79 198.931 17
5 -5 8 2459.87 246.236 29
5 -5 9 315.658 97.1681 29
5 -5 10 875.646 112.851 29
5 -5 10 947.115 113.427 15
-5 4 8 483.634 94.5224 28
-5 4 7 1034.17 161.273 28
-5 4 6 1830 216.322 19
-5 4 6 1517.88 206.522 28
-5 4 5 2146.6 233.779 19
-5 4 5 2196.39 245.971 28
-5 4 4 4797.36 333.886 19
-5 4 3 11389.6 424.385 2
-5 4 3 11023.5 405.704 1
-5 4 2 752.136 109.147 2
-5 4 2 902.857 112.193 1
-5 4 2 891.29 126.163 12
-5 4 2 715.437 102.77 9
-5 4 1 811.753 113.178 12
-5 4 1 1042.66 119.036 2
-5 4 1 915.171 108.42 1
-5 4 0 25464.1 599.601 12
-5 4 0 26088.9 551.86 1
-5 4 0 25240.7 557.821 2
5 -4 1 51196.8 702.782 5
-5 4 -1 49141.8 770.887 1
-5 4 -1 48329.9 759.682 2
5 -4 1 50816.1 709.207 7
-5 4 -2 3933.04 229.792 1
-5 4 -2 3543.19 208.294 2
5 -4 2 3845.22 208.155 7
-5 4 -3 40109.5 748.919 3
5 -4 3 41151.8 753.003 5
-5 4 -3 42369.7 743.977 9
-5 4 -3 41998.4 717.933 2
5 -4 3 41868.4 742.026 7
-5 4 -4 447.7 89.2957 3
5 -4 4 368.303 85.6107 5
5 -4 4 538.957 98.2523 7
-5 4 -5 9073.52 402.421 3
5 -4 5 8790.73 406.679 5
5 -4 5 9445.21 419.778 7
5 -4 6 16638.2 587.307 17
5 -4 6 16001.3 604.553 29
5 -4 7 5014.36 320.839 17
5 -4 7 3962.91 309.702 29
5 -4 8 4601.72 327.194 29
5 -4 9 135.177 62.2536 15
5 -4 9 49.2906 51.993 29
5 -4 10 64.5655 37.603 29
-5 3 9 421.256 78.4677 28
-5 3 8 2716.72 239.934 28
-5 3 7 217.747 85.3665 19
-5 3 7 362.326 99.6998 28
-5 3 6 22668 763.322 19
-5 3 6 22157 763.002 28
-5 3 5 38897.1 969.048 19
-5 3 5 37162 951.533 28
-5 3 4 12865.7 501.298 13
-5 3 3 18365.1 480.193 9
-5 3 3 18819.8 507.165 2
-5 3 3 19787.3 520.105 6
-5 3 2 1099.17 130.301 12
-5 3 2 890.708 107.698 9
-5 3 2 1097.67 120.493 2
-5 3 2 1160.3 117.441 6
-5 3 2 1004.45 104.85 1
-5 3 1 77148.1 966.936 9
-5 3 1 76864.9 944.538 2
-5 3 1 77216.2 863.658 1
-5 3 1 77975.4 878.184 6
-5 3 0 37797.6 692.371 12
-5 3 0 38305.3 625.562 1
-5 3 0 39397 680.538 9
-5 3 0 37329.6 645.152 2
-5 3 -1 10077.3 339.557 3
5 -3 1 10291.4 319.172 5
-5 3 -1 9343.85 326.703 2
-5 3 -1 9931.01 345.703 9
-5 3 -2 41662.7 717.107 3
5 -3 2 30632.9 609.359 5
-5 3 -2 41089 706.646 2
-5 3 -2 30974.6 615.145 9
5 -3 2 42279.1 656.717 7
-5 3 -3 30487.8 660.035 3
5 -3 3 32397.9 679.236 5
-5 3 -3 32764.1 646.497 2
-5 3 -3 33100.5 624.811 9
5 -3 3 31932.7 645.618 7
-5 3 -4 2899.22 219.71 3
5 -3 4 3067.63 228.788 5
5 -3 4 3150.95 226.641 7
5 -3 5 13.1914 40.8028 17
5 -3 5 -24.5195 44.7146 29
5 -3 6 17210.2 592.116 17
5 -3 6 16304.4 620.512 29
5 -3 7 15869.3 615.071 29
5 -3 8 39.4232 54.3746 29
5 -3 9 1342.36 149.168 29
-5 2 9 14.4033 46.7764 28
-5 2 8 388.686 90.6272 27
-5 2 8 403.447 109.11 28
-5 2 7 8939.44 489.761 19
-5 2 7 8456.64 470.899 28
-5 2 7 8753.73 449.503 27
-5 2 6 271.336 98.1001 19
-5 2 6 227.79 88.2303 28
-5 2 5 24478.6 710.229 13
-5 2 5 26327.1 713.75 6
-5 2 4 140.723 59.3098 6
-5 2 3 15307.9 437.611 9
-5 2 3 15459 429.764 2
-5 2 3 15627.5 469.865 6
-5 2 2 719.675 103.914 12
-5 2 2 763.035 100.227 9
-5 2 2 752.729 95.9672 2
-5 2 2 941.411 109.343 6
-5 2 1 15356.9 430.951 12
-5 2 1 15412.7 416.352 2
-5 2 1 14997.1 414.948 9
-5 2 1 16157 364.335 1
-5 2 1 16409.9 434.455 6
-5 2 0 24371.4 492.026 3
5 -2 0 23595.8 442.988 5
-5 2 0 25050.6 480.135 1
-5 2 0 24570.9 527.183 12
-5 2 0 24163.8 522.15 2
-5 2 0 23309.4 515.852 9
-5 2 -1 822.864 100.363 3
5 -2 1 733.636 91.0675 5
-5 2 -1 804.462 102.461 2
-5 2 -1 812.71 100.916 9
-5 2 -2 6860.16 299.689 3
5 -2 2 6893.02 298.672 5
-5 2 -2 6584.27 289.982 2
-5 2 -3 18571.4 531.073 3
5 -2 3 18086.5 527.081 5
-5 2 -3 18116 504.123 2
5 -2 3 18312.1 527.139 8
5 -2 3 18446.6 502.354 7
-5 2 -4 18303.7 563.305 3
5 -2 4 19770.1 594.943 5
5 -2 4 19015.7 568.824 8
5 -2 4 18918.6 573.768 7
5 -2 5 3657.71 270.292 17
5 -2 5 3559.1 286.805 29
5 -2 6 1868.65 216.952 29
5 -2 7 538.666 119.399 29
5 -2 8 -42.1664 46.5584 29
5 -2 9 105.814 49.4324 32
5 -2 9 137.81 44.3152 29
-5 1 10 3168.72 197.924 27
-5 1 9 -71.68 56.278 28
-5 1 9 47.4865 54.2798 27
-5 1 8 -33.3116 66.5003 19
-5 1 8 19.3618 67.0144 28
-5 1 8 8.23004 50.3956 27
-5 1 7 1427.92 201.35 19
-5 1 7 1219.56 182.797 28
-5 1 6 439.427 111.209 19
-5 1 6 475.678 103.944 18
-5 1 6 367.187 103.2 28
-5 1 5 31256.2 779.819 13
-5 1 5 33419.7 802.153 6
-5 1 4 94.3747 51.0428 13
-5 1 4 44.721 40.1657 6
-5 1 3 5019.34 239.286 2
-5 1 3 5144.08 275.7 6
-5 1 2 12063.4 370.102 2
-5 1 2 11858.2 396.749 6
-5 1 1 19290.3 414.744 3
-5 1 1 18717.8 448.436 12
-5 1 1 18464.1 458.946 2
-5 1 0 21.7619 24.6191 12
-5 1 0 -2.02573 31.129 3
-5 1 0 37.7569 30.2384 2
5 -1 0 18.4887 28.0067 5
5 -1 1 54665.3 839.822 8
-5 1 -1 55080 815.25 3
5 -1 2 668.802 105.442 5
5 -1 2 680.763 104.872 8
-5 1 -2 755.246 107.86 3
-5 1 -3 518.18 96.4848 3
5 -1 3 455.496 95.4121 5
5 -1 3 628.933 103.925 8
5 -1 4 4733.88 323.09 29
5 -1 5 11402 520.876 29
5 -1 6 3850.69 300.589 29
5 -1 7 1015.06 145.815 29
5 -1 8 413.048 88.9384 32
5 -1 8 501.373 90.1653 29
-5 0 10 159.188 66.5195 27
-5 0 9 45.425 64.7752 28
-5 0 9 59.642 61.0784 27
-5 0 8 31.8055 59.4882 19
-5 0 8 202.121 78.2381 18
-5 0 8 30.191 62.0708 28
-5 0 7 31787.6 906.303 19
-5 0 7 32281.9 895.078 28
-5 0 6 4155.9 315.144 19
-5 0 6 3822.72 293.375 18
-5 0 6 4066.29 306.113 28
-5 0 5 11909 468.306 13
-5 0 5 12002.1 482.985 6
-5 0 4 12388.2 439.866 13
-5 0 4 15591.4 520.965 6
-5 0 3 11723.4 393.832 13
-5 0 3 11815.3 373.413 2
-5 0 3 11236.3 418.265 6
-5 0 2 30040.7 600.366 2
-5 0 2 29351.1 660.429 6
-5 0 1 9588.92 305.139 3
5 0 -1 6456.65 275.682 8
5 0 0 8663.48 326.394 5
5 0 0 8717.58 343.124 8
-5 0 0 8808.5 324.14 3
-5 0 -1 424.629 83.9248 3
5 0 1 408.144 85.0863 5
5 0 1 313.083 76.7335 8
5 0 2 16992.4 541.604 5
5 0 2 17038.6 543.429 8
-5 0 -2 17967 544.686 3
5 0 3 10336.6 470.094 29
5 0 3 10701.8 454.978 16
5 0 4 15175 595.643 29
5 0 5 6939.39 404.006 29
5 0 6 156.892 75.9382 29
5 0 7 270.294 80.761 32
-5 -1 11 111.439 51.297 27
-5 -1 10 -56.5241 53.3712 27
-5 -1 9 2486.5 245.041 27
-5 -1 8 441.774 120.231 19
-5 -1 8 494.663 116.012 18
-5 -1 8 779.602 151.12 28
-5 -1 7 11962.6 539.569 19
-5 -1 7 10552.3 514.389 18
-5 -1 7 11487.7 524.522 28
-5 -1 6 8507.17 440.871 25
-5 -1 6 9147.49 451.5 18
-5 -1 6 8903.77 437.363 28
-5 -1 5 1420.52 173.369 6
-5 -1 4 4657.85 295.082 6
-5 -1 3 51606.2 818.136 2
-5 -1 3 49754 923.248 6
5 1 -1 17.8036 31.3664 8
5 1 0 1057.57 135.887 8
-5 -1 0 1110.57 127.334 3
5 1 1 13949.3 498.819 5
5 1 1 13624.9 496.874 8
-5 -1 -1 14379.8 491.761 3
5 1 2 9155.78 444.778 29
5 1 2 9149.13 427.704 16
5 1 3 1463.36 190.426 29
5 1 3 1891.82 198.583 16
5 1 4 -0.44332 61.9883 29
5 1 5 172.674 75.2802 32
5 1 6 501.828 101.352 32
-5 -2 11 26.1045 35.331 27
-5 -2 10 5559.68 328.061 27
-5 -2 8 1330.49 182.033 18
-5 -2 8 1822.55 201.471 30
-5 -2 7 8456.42 450.562 18
-5 -2 6 2194.32 230.728 25
-5 -2 6 2225.07 231.994 18
-5 -2 5 821.725 139.047 25
-5 -2 5 950.662 148.1 20
-5 -2 4 7072.33 374.992 6
-5 -2 3 1257.31 159.025 6
5 2 -1 -69.013 41.8973 8
5 2 0 18844.2 623.849 16
5 2 1 8398.49 418.743 16
5 2 2 4362.06 302.563 16
-5 -2 -3 6010.23 353.088 24
-5 -2 -4 89.2143 52.4789 24
5 2 4 155.269 69.2024 32
5 2 5 1338.26 146.618 32
-5 -3 11 159.463 50.6436 27
-5 -3 10 262.64 67.1578 30
-5 -3 10 69.0278 64.518 27
-5 -3 9 1807.9 194.073 30
-5 -3 8 1292.2 182.945 18
-5 -3 8 1127.39 165.754 30
-5 -3 7 1523.15 202.588 25
-5 -3 7 1598.68 203.771 18
-5 -3 6 152.154 67.3589 25
-5 -3 6 138.92 65.7722 18
-5 -3 5 4060.72 322.252 25
-5 -3 5 4163.03 304.826 18
-5 -3 4 2980.25 250.918 20
-5 -3 3 7650.24 389.373 24
-5 -3 2 7384.3 389.155 24
-5 -3 1 4244.48 303.717 24
-5 -3 0 797.726 138.853 24
-5 -3 -1 776.806 135.879 24
-5 -3 -2 264.217 80.78 24
-5 -3 -3 330.889 85.7845 24
5 3 4 2896.51 210.736 23
-5 -4 10 2391.49 183.626 30
-5 -4 10 2290.09 192.11 27
-5 -4 9 613.337 115.579 30
-5 -4 8 105.662 65.9633 30
-5 -4 7 1746.97 209.729 25
-5 -4 7 1952.51 215.048 18
-5 -4 6 -21.0446 65.2638 25
-5 -4 6 97.7883 49.607 18
-5 -4 5 8327.71 455.55 25
-5 -4 4 1553.1 183.276 24
-5 -4 3 2398.73 229.082 24
-5 -4 2 7671.64 408.847 24
-5 -4 1 1174.76 164.272 24
-5 -4 0 8043.69 410.281 24
-5 -4 -1 3398.27 255.409 24
-5 -4 -2 477.04 86.9098 24
5 4 2 478.207 102.42 23
5 4 3 196.303 60.0191 23
-5 -5 10 2101.18 160.973 30
-5 -5 9 1101.25 138.769 30
-5 -5 8 241.634 81.8485 30
-5 -5 7 2.80651 54.4208 25
-5 -5 7 47.1611 58.7051 30
-5 -5 6 310.095 103.27 25
-5 -5 5 5338.02 356.028 25
-5 -5 5 5594.5 328.031 24
-5 -5 4 2439.51 224.785 24
-5 -5 3 70.9279 56.1552 24
-5 -5 2 1688.66 187.797 24
-5 -5 1 -14.6834 55.7823 24
5 5 -1 25.0826 41.9937 23
-5 -5 0 6275.05 320.094 24
5 5 0 4171.68 261.121 23
-5 -5 -1 178.526 56.2254 24
5 5 1 328.689 74.1611 23
-5 -6 9 170.589 50.2594 30
-5 -6 8 3.77266 41.1273 30
-5 -6 7 655.376 107.903 25
-5 -6 7 476.705 93.0638 30
-5 -6 6 3849.7 261.744 25
-5 -6 6 3958.87 246.805 30
-5 -6 5 543.765 107.409 25
-5 -6 5 729.538 113.903 24
-5 -6 4 3552.78 254.76 25
-5 -6 4 4610.34 280.558 24
-5 -6 3 1284.47 148.987 24
-5 -6 2 4343.03 255.392 24
-5 -6 1 3346.93 206.878 24
-5 -7 5 153.64 44.5225 24
-5 -7 4 366.479 67.9342 24
-6 11 -1 3615.09 206.399 22
-6 11 -1 3418.87 183.544 26
-6 11 -2 -1.90284 37.959 26
-6 11 -2 -5.28818 36.8633 22
-6 11 -3 1883.49 168.819 22
-6 11 -3 2280.99 187.698 26
-6 11 -4 1544.94 148.138 22
-6 11 -4 1817.48 171.343 26
-6 11 -5 523.612 92.9902 26
6 -11 6 375.181 69.8942 17
-6 11 -6 445.649 78.4423 26
6 -11 7 295.34 63.9972 17
-6 10 1 4842.13 242.515 22
-6 10 0 77.3049 58.8981 22
-6 10 0 55.7816 46.0703 26
-6 10 -1 1197.36 157.298 22
-6 10 -1 1423.08 162.017 26
-6 10 -2 611.024 120.212 26
-6 10 -2 419.979 101.975 22
-6 10 -3 1353.92 170.505 22
-6 10 -3 1053.32 154.683 26
-6 10 -4 215 82.3776 26
-6 10 -4 142.846 59.9518 22
-6 10 -5 438.531 100.641 26
6 -10 5 563.129 102.68 17
6 -10 6 2145.17 197.058 17
-6 10 -6 2230.21 192.485 26
6 -10 7 200.332 69.5442 17
6 -10 8 249.787 67.7546 17
6 -10 9 70.611 37.6572 17
-6 9 3 64.1193 48.3174 28
-6 9 2 3882.2 240.632 22
-6 9 1 937.478 144.677 22
-6 9 0 279.17 83.953 26
-6 9 0 418.584 111.178 22
-6 9 -1 2329.18 233.139 22
-6 9 -2 134.299 76.2528 22
-6 9 -3 4818.57 332.475 22
-6 9 -4 1047.45 157.823 26
-6 9 -4 991.108 150.059 22
-6 9 -5 613.326 120.401 26
6 -9 5 533.729 116.019 17
6 -9 6 595.252 119.166 17
6 -9 7 2547.3 226.07 17
6 -9 8 1143.86 148.27 17
6 -9 9 2357.91 177.467 17
6 -9 9 2680.98 187.892 29
-6 8 4 618.493 104.588 28
-6 8 2 8653.72 421.552 22
-6 8 2 8402.57 423.785 31
-6 8 1 12445.8 532.778 22
-6 8 1 12453.1 504.912 26
-6 8 0 4127.91 316.412 22
-6 8 0 4305.52 312.171 26
-6 8 -1 7721.87 431.704 22
-6 8 -2 1078.64 165.842 22
-6 8 -3 3097.7 267.213 22
6 -8 4 9579.05 450.118 17
-6 8 -4 9039.81 453.389 26
6 -8 5 2023.43 218.01 17
-6 8 -5 2284.1 224.286 26
6 -8 6 4063.97 302.19 17
6 -8 7 1156.3 163.902 17
6 -8 8 176.244 74.8872 17
6 -8 8 211.405 69.7986 29
6 -8 9 925.352 119.604 17
6 -8 9 864.117 120.624 29
-6 7 5 -103.81 58.7327 28
-6 7 4 207.237 71.9461 31
-6 7 4 194.751 88.71 28
-6 7 3 7897.38 402.355 22
-6 7 3 7391.54 404.275 31
-6 7 2 1207 171.754 22
-6 7 2 1109.22 174.178 31
-6 7 1 9491.69 471.65 22
-6 7 1 10550.7 493.335 31
-6 7 1 9939.87 462.352 26
-6 7 0 321.436 91.8774 26
-6 7 0 232.474 84.3048 22
-6 7 -1 16.1902 42.6413 22
-6 7 -2 1491.76 184.806 22
-6 7 -3 39.8547 55.1051 26
-6 7 -3 -87.2045 64.4024 22
6 -7 3 82.9796 54.2346 17
-6 7 -4 870.405 137.749 26
6 -7 4 820.038 137.282 17
6 -7 5 55.8369 52.9326 17
6 -7 6 95.4811 73.7114 17
6 -7 7 8290.75 426.843 17
6 -7 8 1467.91 172.479 17
6 -7 8 1400.96 175.733 29
6 -7 9 18.6778 33.6529 17
6 -7 9 12.9766 49.3418 29
6 -7 10 333.446 69.1434 29
-6 6 6 2540.95 216.706 28
-6 6 5 42.9683 45.6711 31
-6 6 5 123.326 74.313 28
-6 6 4 217.316 82.4068 31
-6 6 3 11864.2 510.459 22
-6 6 3 12330.3 522.35 31
-6 6 2 2097.12 221.543 22
-6 6 2 2263.9 224.637 31
-6 6 1 26050.3 750.635 22
-6 6 1 28095.7 765.061 31
-6 6 1 26159.5 724.177 26
-6 6 0 1124.94 155.119 12
-6 6 0 1334.61 160.859 1
-6 6 -1 5785.84 339.392 12
-6 6 -1 5548.72 313.145 1
-6 6 -1 5645.17 318.013 2
-6 6 -2 23879.3 688.081 12
-6 6 -2 24674.7 664.38 1
-6 6 -2 24035 636.87 2
6 -6 2 24739.2 633.05 7
6 -6 3 1596.14 167.773 5
-6 6 -3 1405.31 156.665 2
6 -6 3 1319.12 152.044 7
6 -6 4 4429.58 300.992 17
-6 6 -4 4055.79 286.593 26
6 -6 5 16254.6 596.682 17
6 -6 6 1448.9 186.919 17
6 -6 6 1456.83 186.108 29
6 -6 7 292.56 88.5067 17
6 -6 7 126.381 67.866 29
6 -6 8 5362.7 317.563 17
6 -6 8 5662.31 345.836 29
6 -6 9 7833.99 362.33 29
6 -6 10 212.487 55.0179 29
-6 5 7 849.731 127.88 28
-6 5 6 3823.93 278.455 19
-6 5 6 3375.11 281.304 28
-6 5 5 2878.58 262.575 19
-6 5 5 2555.64 261.914 28
-6 5 4 3610.41 300.595 19
-6 5 3 16038 580.554 22
-6 5 3 15648.9 607.956 19
-6 5 3 16165.5 571.519 31
-6 5 2 4467.53 307.784 22
-6 5 2 4161.38 273.924 9
-6 5 1 84.3388 48.6839 2
-6 5 1 -5.00732 50.6034 1
-6 5 1 21.8564 29.814 12
-6 5 0 1396.77 162.333 12
-6 5 0 1473.62 157.38 9
-6 5 0 1543.49 159.362 1
-6 5 0 1272.82 147.341 2
-6 5 -1 46.3858 38.9015 2
-6 5 -1 94.113 47.9851 12
-6 5 -2 4220.29 266.13 1
-6 5 -2 4359.07 272.279 9
-6 5 -2 3852.46 246.694 2
-6 5 -3 8.23043 30.7592 2
6 -5 3 96.6584 49.513 5
-6 5 -3 133.149 58.428 9
-6 5 -3 124.801 60.9452 1
6 -5 4 1708.19 179.174 7
6 -5 4 1874.73 197.523 17
6 -5 5 7617.58 406.583 17
6 -5 5 7032.24 391.165 29
6 -5 6 2500.78 238.112 17
6 -5 6 2665.91 250.615 29
6 -5 7 8173.91 414.667 17
6 -5 7 7995.23 431.5 29
6 -5 8 1259.79 151.146 17
6 -5 8 1168.24 164.178 29
6 -5 9 1606.12 163.398 29
-6 4 8 5796.83 299.548 28
-6 4 7 1043 155.159 19
-6 4 7 855.304 148.071 28
-6 4 6 9230.59 476.591 19
-6 4 6 9275.4 484.714 28
-6 4 5 149.029 78.4921 19
-6 4 5 174.937 81.699 28
-6 4 4 5694.2 375.168 19
-6 4 3 62870.1 1053.83 2
-6 4 2 1393.78 166.028 12
-6 4 2 1436.45 155.493 9
-6 4 2 1257.12 149.131 2
-6 4 1 12757 473.486 12
-6 4 1 13676.9 468.284 9
-6 4 1 13501.3 458.108 2
-6 4 1 13745.8 428.084 1
-6 4 0 11308.4 434.591 12
-6 4 0 11536.4 423.804 9
-6 4 0 11923.1 400.266 1
-6 4 0 11189.6 408.173 2
-6 4 -1 15268.5 501.579 12
-6 4 -1 15645.6 471.008 1
-6 4 -1 16311 508.634 9
6 -4 2 1051.66 126.152 5
-6 4 -2 922.352 124.414 1
-6 4 -2 1119.19 135.488 9
-6 4 -2 847.963 116.047 2
6 -4 3 2791.31 215.333 5
-6 4 -3 2987.26 227.528 3
-6 4 -3 2880.85 213.171 9
-6 4 -3 2789.18 209.571 2
6 -4 4 3028.43 248.059 17
6 -4 5 1674.09 193.344 17
6 -4 5 1654.96 195.337 29
6 -4 6 7872.7 412.274 17
6 -4 6 7370.79 419.667 29
6 -4 7 4497.44 298.109 17
6 -4 7 3901.46 301.275 29
6 -4 8 136.188 67.2605 29
6 -4 9 178.35 58.1826 29
-6 3 9 91.9078 46.8211 28
-6 3 8 26.6454 64.0268 28
-6 3 7 1032.76 167.907 19
-6 3 7 1190.19 178.035 28
-6 3 6 1276.49 189.891 19
-6 3 6 1405.08 195.725 28
-6 3 5 13900.5 598.777 19
-6 3 5 13218.8 572.395 28
-6 3 4 686.675 133.216 19
-6 3 3 305.249 74.9751 2
-6 3 3 367.249 80.5619 9
-6 3 2 6700.23 340.909 12
-6 3 2 6521.93 313.999 9
-6 3 2 6947.12 322.342 2
-6 3 2 7157.53 324.316 6
-6 3 1 273.142 63.9445 6
-6 3 1 262.609 73.2254 2
-6 3 1 285.051 75.7702 12
-6 3 1 334.594 77.8618 9
-6 3 0 4005.2 249.305 12
-6 3 0 4307.17 231.448 1
-6 3 0 4129.05 247.404 9
-6 3 0 4907.58 265.611 2
-6 3 -1 14896.2 458.452 3
-6 3 -1 14683.9 447.862 1
-6 3 -1 14743 474.112 12
-6 3 -1 14377.7 464.129 2
-6 3 -1 15276.2 473.236 9
-6 3 -2 1142.37 136.639 3
6 -3 2 1029.12 124.497 5
-6 3 -2 1338.18 147.51 2
-6 3 -3 145.832 55.3725 2
-6 3 -3 -21.4936 42.467 3
6 -3 3 73.8443 45.631 5
6 -3 4 16693.6 584.634 17
6 -3 4 16209.5 583.551 29
6 -3 5 15721 581.566 17
6 -3 5 14508.1 578.365 29
6 -3 6 -27.4736 56.2013 29
6 -3 7 6106.47 362.962 29
6 -3 8 147.562 64.2792 29
-6 2 9 1336.81 152.739 28
-6 2 8 40.2608 51.6124 19
-6 2 8 9.52468 60.6309 28
-6 2 8 32.2015 44.5029 27
-6 2 7 2703.69 273.578 19
-6 2 7 2416.46 249.021 28
-6 2 7 2904.19 256.243 27
-6 2 6 202.81 84.3355 19
-6 2 6 163.359 89.6421 28
-6 2 5 14227.2 596.865 19
-6 2 5 14686.2 581.654 28
-6 2 4 9151.4 431.005 13
-6 2 4 9338.33 422.368 6
-6 2 3 218.141 60.2765 6
-6 2 3 247.468 67.3489 2
-6 2 2 -12.7817 35.3509 6
-6 2 2 68.2012 50.6085 2
-6 2 1 29113.1 654.719 12
-6 2 1 29131.5 658.534 9
-6 2 1 29167.2 649.006 2
-6 2 1 29794.6 670.71 6
-6 2 0 7733.56 317.457 3
-6 2 0 7790.01 329.031 12
-6 2 0 7447.73 331.41 2
-6 2 0 7757.3 343.622 9
-6 2 -1 338.587 79.3395 2
-6 2 -1 484.686 90.6148 3
6 -2 1 316.259 70.2483 5
-6 2 -1 407.908 82.5517 9
-6 2 -2 16029.9 513.508 3
6 -2 2 15488.6 496.228 5
-6 2 -2 14864.4 493.028 2
6 -2 2 15245.2 504.896 8
6 -2 3 12701.1 504.302 17
6 -2 4 16705.8 609.667 29
6 -2 5 4008.04 308.392 29
6 -2 6 1004.88 157.888 29
6 -2 7 547.338 110.786 29
6 -2 8 3197.41 202.026 29
6 -2 8 2943.23 205.813 32
-6 1 9 164.379 74.2686 28
-6 1 9 261.392 78.1915 27
-6 1 8 15208.3 611.241 19
-6 1 8 15421.7 596.891 28
-6 1 8 15234.2 581.999 27
-6 1 7 945.775 169.438 19
-6 1 7 837.38 144.648 18
-6 1 7 699.968 146.022 28
-6 1 6 15821.5 638.155 19
-6 1 6 16340.4 608.705 18
-6 1 6 16138.2 620.779 28
-6 1 5 10542.5 468.538 20
-6 1 5 10164.3 495.389 19
-6 1 4 713.654 123.812 6
-6 1 4 795.307 128.933 13
-6 1 3 46443.4 815.751 2
-6 1 3 45309.8 902.229 6
-6 1 2 9416.54 376.209 2
-6 1 2 9566.09 406.277 6
-6 1 1 6636.16 316.953 2
6 -1 -1 6805.17 302.661 8
-6 1 0 7260.31 317.166 3
-6 1 0 7024.6 333.851 2
6 -1 0 6663.19 315.575 8
-6 1 -1 312.834 84.3835 2
-6 1 -1 148.878 60.0384 3
6 -1 1 288.525 73.3273 5
6 -1 1 201.761 66.5743 8
6 -1 2 12965.1 484.193 5
6 -1 3 22732.2 704.202 29
6 -1 4 -105.714 76.2175 29
6 -1 4 -144.656 71.1053 16
6 -1 5 3525.93 285.103 29
6 -1 5 3576.11 262.848 16
6 -1 6 201.811 79.8432 29
6 -1 7 2701.91 214.128 32
6 -1 7 2707.6 201.736 29
-6 0 10 24.4969 33.4681 27
-6 0 9 57.0107 55.0111 27
-6 0 8 45.6086 58.3772 19
-6 0 8 53.3675 55.7401 18
-6 0 8 40.0722 50.2788 28
-6 0 7 1785.64 210.75 28
-6 0 7 1775.19 220.35 19
-6 0 7 1396.26 186.748 18
-6 0 6 5495.89 369.06 19
-6 0 5 11888.8 512.764 25
-6 0 5 12752.7 527.419 20
-6 0 5 12522.5 537.562 19
-6 0 4 407.566 99.0773 6
-6 0 3 1982.53 179.516 2
-6 0 3 1664.56 181.008 6
-6 0 2 35726.2 749.101 2
-6 0 2 35837 822.418 6
-6 0 1 9841.54 403.828 2
6 0 -1 10254.7 396 8
6 0 0 44769.4 878.465 8
6 0 1 6198.04 355.188 16
6 0 2 134.704 65.5811 29
6 0 2 179.549 76.5589 16
6 0 3 13962.1 567.588 29
6 0 3 14649.4 559.676 16
6 0 4 1488.9 192.909 29
6 0 4 1299.08 165.574 16
6 0 5 167.697 79.7539 29
6 0 6 4858.98 283.962 32
-6 -1 10 492.409 93.2104 27
-6 -1 9 2505.7 235.145 27
-6 -1 8 8785.28 445.287 19
-6 -1 8 7580.2 414.615 18
-6 -1 7 287.309 85.7941 18
-6 -1 6 392.528 106.766 25
-6 -1 6 414.956 107.994 18
-6 -1 5 10897.2 504.646 25
-6 -1 5 10198.7 483.713 20
-6 -1 4 342.279 102.814 25
-6 -1 4 299.859 89.0408 20
-6 -1 3 26566.9 751.037 20
-6 -1 2 973.229 136.412 2
6 1 -2 967.425 147.67 16
6 1 -1 -86.5326 55.9303 16
6 1 0 7777.98 409.202 16
6 1 1 18128.8 630.359 16
6 1 2 5329.51 342.127 16
6 1 3 3858.91 279.56 16
-6 -1 -4 840.434 128.887 24
6 1 4 848.086 131.825 32
6 1 5 -82.9415 49.8677 32
-6 -2 10 224.071 74.8921 27
-6 -2 9 1400.89 153.095 30
-6 -2 8 7858.81 422.723 18
-6 -2 7 3052.35 272.915 18
-6 -2 6 4399.24 332.313 25
-6 -2 6 4184.63 320.856 18
-6 -2 5 2171.24 234.943 25
-6 -2 5 2033.5 218.497 20
-6 -2 4 44.854 49.1021 20
-6 -2 3 188.851 79.9089 20
-6 -2 2 9387.17 439.805 24
-6 -2 1 62.4439 49.6083 24
-6 -2 0 4227.57 305.671 24
-6 -2 -1 724.58 131.993 24
-6 -2 -2 4924.52 318.59 24
-6 -2 -3 17.9716 42.6149 24
-6 -2 -4 84.1278 40.5169 24
-6 -3 10 573.047 78.5067 30
-6 -3 10 504.045 87.1571 27
-6 -3 9 1374.99 153.277 30
-6 -3 8 118.483 76.9446 18
-6 -3 8 68.6853 51.9379 30
-6 -3 7 34.2402 76.6554 25
-6 -3 7 85.2099 63.1088 18
-6 -3 6 452.398 118.599 25
-6 -3 6 484.522 115.085 18
-6 -3 5 136.461 84.6481 25
-6 -3 5 90.0003 55.4507 18
-6 -3 4 8773.44 433.815 20
-6 -3 3 7203.14 387.431 24
-6 -3 2 15429.5 574.32 24
-6 -3 1 5896.03 359.001 24
-6 -3 0 410.22 105.582 24
-6 -3 -1 13859.1 517.116 24
-6 -3 -2 40.341 48.2797 24
-6 -3 -3 169.77 52.0709 24
6 3 3 126.807 50.076 23
-6 -4 9 3808.73 236.504 30
-6 -4 8 4893.4 303.808 30
-6 -4 7 1003.55 151.768 25
-6 -4 7 1046.56 144.712 18
-6 -4 6 3890.68 298.366 25
-6 -4 6 3791.59 272.331 18
-6 -4 5 6698.52 398.669 25
-6 -4 4 2225.43 207.128 24
-6 -4 3 3794.59 279.168 24
-6 -4 2 350.485 90.8595 24
-6 -4 1 5652.62 329.731 24
-6 -4 0 127.643 65.2583 24
6 4 0 47.3177 48.0454 23
-6 -4 -1 2013.74 167.384 24
6 4 1 1973.41 168.21 23
-6 -5 9 21.9835 31.1317 30
-6 -5 8 15.1338 39.6744 30
-6 -5 7 2000.25 189.163 25
-6 -5 7 1973.83 178.773 30
-6 -5 6 924.38 143.745 25
-6 -5 6 742.469 114.472 30
-6 -5 5 895.469 144.417 25
-6 -5 5 848.813 115.708 24
-6 -5 5 900.969 122.385 30
-6 -5 4 3455.37 259.867 25
-6 -5 4 3262.84 229.481 24
-6 -5 3 1891.3 179.311 24
-6 -5 2 264.89 73.9327 24
-6 -5 1 4430.36 241.607 24
-6 -5 0 99.1785 39.2098 24
-6 -6 6 2303.73 163.772 25
-6 -6 5 2514.76 177.308 25
-6 -6 4 67.5136 46.1489 25
-6 -6 4 140.709 43.2898 24
-6 -6 3 2123.21 144.016 24
-7 11 -1 740.408 93.7859 22
-7 11 -2 656.868 96.3779 22
-7 11 -2 827.333 107.371 26
-7 11 -3 906.178 112.454 22
-7 11 -3 1035 126.515 26
-7 11 -4 334.224 69.814 22
-7 11 -4 305.43 73.2129 26
-7 11 -5 371.14 73.4473 26
-7 10 1 1391.22 130.519 22
-7 10 0 74.4193 51.9867 22
-7 10 0 69.5171 38.4831 26
-7 10 -1 5458.66 312.619 22
-7 10 -1 5124.61 295.341 26
-7 10 -2 4.88554 44.2173 22
-7 10 -2 35.4179 52.0723 26
-7 10 -3 -95.9833 62.1167 22
-7 10 -3 -4.06618 59.704 26
-7 10 -4 27.1407 42.1154 22
-7 10 -4 95.9471 59.7876 26
7 -10 5 188.924 60.8578 17
-7 10 -5 101.704 50.1047 26
7 -10 6 110.417 57.555 17
7 -10 7 243.457 70.0158 17
7 -10 8 69.5401 41.5062 17
-7 9 3 41.7161 38.7645 28
-7 9 2 2315.46 184.672 22
-7 9 1 133.348 65.205 22
-7 9 1 137.358 57.7558 26
-7 9 0 300.869 93.3431 22
-7 9 0 353.107 90.1382 26
-7 9 -1 9649.66 464.56 22
-7 9 -1 9589.24 452.421 26
-7 9 -2 347.878 99.772 26
-7 9 -2 294.248 96.9723 22
-7 9 -3 1038.16 160.402 22
-7 9 -3 1119.01 167.213 26
-7 9 -4 3880.27 291.041 26
7 -9 5 16.5366 45.2152 17
-7 9 -5 22.9814 51.1382 26
7 -9 6 21.0332 42.3857 17
7 -9 7 1112.74 145.227 17
7 -9 8 876.826 115.062 17
7 -9 9 551.961 77.6806 17
-7 8 4 489.032 94.2004 28
-7 8 3 152.079 57.2549 22
-7 8 2 2004.52 202.674 22
-7 8 1 3391.96 278.158 22
-7 8 1 3336.53 260.057 26
-7 8 0 584.581 128.882 22
-7 8 0 570.526 121.101 26
-7 8 -1 4248.82 319.146 22
-7 8 -1 4704.54 330.475 26
-7 8 -2 -53.2174 62.577 26
-7 8 -2 -73.0835 56.9443 22
-7 8 -3 271.337 83.9348 22
-7 8 -3 278.565 92.7695 26
7 -8 4 1379.78 171.839 17
-7 8 -4 1181.21 166.175 26
7 -8 5 193.888 79.6266 17
-7 8 -5 192.567 76.8385 26
7 -8 6 2185.92 219.453 17
7 -8 7 1674.23 186.682 17
7 -8 8 1287.51 145.144 17
7 -8 8 1312.47 142.607 29
7 -8 9 961.245 103.138 17
7 -8 9 860.552 97.4917 29
-7 7 5 1949.72 182.679 28
-7 7 4 3817.19 287.277 28
-7 7 3 3625.92 268.78 22
-7 7 2 4128.28 310.379 22
-7 7 1 22877.9 733.299 22
-7 7 1 23180 708.214 26
-7 7 0 4091.38 314.727 22
-7 7 0 4017.4 300.999 26
-7 7 -1 15623 605.161 22
-7 7 -1 16178 607.841 26
-7 7 -2 6304.89 380.523 22
-7 7 -2 6521.5 388.844 26
-7 7 -3 10652.2 482.62 22
7 -7 3 10334.4 463.04 17
-7 7 -3 10559.6 488.868 26
7 -7 4 993.597 152.729 17
-7 7 -4 1018.22 151.552 26
7 -7 5 -52.6401 58.9045 17
7 -7 6 1097.22 162.92 17
7 -7 7 446.123 106.33 17
7 -7 7 384.735 96.3971 29
7 -7 8 2953.43 219.489 17
7 -7 8 2667.6 208.922 29
7 -7 9 613.036 87.6843 29
-7 6 6 4467.57 273.241 28
-7 6 5 4131.69 302.464 28
-7 6 4 3194.99 265.539 19
-7 6 4 2717.54 261.92 28
-7 6 3 5834.19 360.821 22
-7 6 3 6153.59 380.901 19
-7 6 2 1648.13 198.535 22
-7 6 2 1459.99 192.781 19
-7 6 2 1441.28 174.369 26
-7 6 1 491.584 112.149 22
-7 6 1 374.75 95.724 26
-7 6 0 5898.22 366.73 22
-7 6 0 5529.13 347.23 26
-7 6 -1 718.181 132.955 22
-7 6 -1 925.122 143.472 26
-7 6 -2 74.597 65.7775 22
-7 6 -2 1.48285 43.1361 26
7 -6 3 576.804 116.928 17
-7 6 -3 442.906 103.796 26
7 -6 4 452.807 108.946 17
-7 6 -4 531.034 111.688 26
7 -6 5 555.793 124.659 17
7 -6 6 8720.49 438.704 17
7 -6 6 9212.04 442.532 29
7 -6 7 2009.48 204.242 17
7 -6 7 2016.29 204.242 29
7 -6 8 102.514 50.0568 17
7 -6 8 154.205 60.9254 29
7 -6 9 965.782 107.621 29
-7 5 7 3721.59 241.698 28
-7 5 6 200.672 72.4771 19
-7 5 6 228.814 86.9079 28
-7 5 5 7138.57 411.25 19
-7 5 5 6673.89 403.625 28
-7 5 4 1264.42 185.293 19
-7 5 4 1619.55 207.153 28
-7 5 3 2668.16 246.618 22
-7 5 3 2898.32 273.692 19
-7 5 2 22187.5 702.364 22
-7 5 2 22078.5 669.212 26
-7 5 1 86.6747 52.0288 22
-7 5 1 36.8958 36.5021 26
-7 5 0 130.762 66.9572 22
-7 5 0 19.5751 31.0284 26
-7 5 -1 3752.09 282.26 22
-7 5 -1 3799.52 261.925 1
-7 5 -1 3978.5 288.846 26
-7 5 -2 12583.1 507.973 22
7 -5 2 12758.1 499.244 17
-7 5 -2 13331.1 527.437 26
7 -5 3 81.6472 52.744 17
-7 5 -3 92.1871 64.3784 26
7 -5 4 12027.3 516.092 17
7 -5 5 131.739 75.3013 17
7 -5 5 279.847 91.5423 29
7 -5 6 2497.12 236.422 17
7 -5 6 2757.49 247.877 29
7 -5 7 5288.02 314.933 17
7 -5 7 5360.38 326.309 29
7 -5 8 -10.7999 37.1435 29
-7 4 8 5519.87 270.645 28
-7 4 7 58.2718 52.7823 19
-7 4 7 69.0684 50.1248 28
-7 4 6 3183.94 279.275 19
-7 4 6 3145.19 274.662 28
-7 4 5 -27.2325 71.7976 19
-7 4 5 -138.479 72.0399 28
-7 4 4 18232.3 689.02 19
-7 4 4 18341.8 667.803 28
-7 4 3 109.191 50.5915 22
-7 4 3 -9.81191 51.5187 19
-7 4 2 4842.07 321.496 22
-7 4 2 5087.64 317.126 26
-7 4 1 16881.5 583.318 12
-7 4 1 16618.9 552.898 9
-7 4 0 5861.51 337.801 12
-7 4 0 5769.26 324.884 9
-7 4 0 5639.65 318.512 2
-7 4 -1 24120.8 677.647 12
-7 4 -1 24123.7 662.468 9
-7 4 -2 1241.38 159.56 1
7 -4 2 1615.5 180.812 17
-7 4 -2 1579.87 183.925 26
7 -4 3 218.657 80.0155 17
-7 4 -3 261.103 79.9329 26
7 -4 4 6825.16 390.633 17
7 -4 5 15158.9 581.241 17
7 -4 5 15004.7 576.68 29
7 -4 6 715.432 133.978 29
7 -4 7 -64.7966 54.5957 29
7 -4 8 -11.5827 33.6777 29
-7 3 8 981.808 134.396 28
-7 3 7 914.024 150.885 19
-7 3 7 795.744 136.749 28
-7 3 6 1137.6 178.347 19
-7 3 6 1303.39 188.024 28
-7 3 5 4904.64 363.054 19
-7 3 5 4718.7 338.389 28
-7 3 4 23796.2 784.3 19
-7 3 3 3156.57 258.09 22
-7 3 3 3112.15 253.932 20
-7 3 2 3501.05 269.091 22
-7 3 2 3102.69 243.481 9
-7 3 2 3184.14 240.77 2
-7 3 1 10028 433.064 12
-7 3 1 10170 433.602 9
-7 3 1 9817.08 417.516 2
-7 3 0 5761.31 322.648 12
-7 3 0 5365.33 315.703 9
-7 3 0 5499.53 312.608 2
-7 3 0 5950.94 322.707 6
-7 3 -1 1209.16 151.782 9
-7 3 -2 32583.2 850.601 20
7 -3 2 33977.9 838.325 17
-7 3 -2 34162.5 830.01 26
7 -3 3 192.06 73.7265 17
7 -3 4 4323.39 309.022 29
7 -3 5 16626 608.503 29
-7 3 -6 2159.78 206.734 20
7 -3 6 2316.01 220.158 29
7 -3 7 559.576 101.591 29
7 -3 8 2331.4 166.201 32
7 -3 8 2493.75 160.171 29
-7 2 9 1668.08 147.938 28
-7 2 8 1053.79 154.868 19
-7 2 8 1034.43 142.007 28
-7 2 7 7190.85 422.382 19
-7 2 7 7765.95 417.258 28
-7 2 7 8294.28 412.109 27
-7 2 6 9139.78 490.991 19
-7 2 6 9423.09 458.363 18
-7 2 6 10448.5 496.806 28
-7 2 5 12216.7 514.386 20
-7 2 5 12356.2 569.613 19
-7 2 4 482.607 105.22 20
-7 2 4 362.141 103.636 19
-7 2 3 1212.68 160.303 22
-7 2 3 1289.47 167.183 20
-7 2 2 4924.4 318.521 22
-7 2 2 4707.8 316.911 20
-7 2 2 3903.37 263.295 2
-7 2 2 4458.98 293.203 6
-7 2 1 31332.2 748.06 2
-7 2 1 31312.2 773.582 6
-7 2 0 12689 520.131 20
7 -2 0 12203.5 455.487 8
-7 2 -1 3541.78 280.156 20
-7 2 -2 8824.53 444.952 20
-7 2 -3 11812.4 520.448 20
7 -2 3 11730.7 501.561 29
-7 2 -4 6779.7 385.094 20
7 -2 4 6698.69 389.991 29
7 -2 5 733.872 131.663 29
7 -2 5 829.695 131.001 16
7 -2 6 37.2797 51.1041 29
7 -2 7 357.455 78.9571 32
7 -2 7 342.351 76.2206 29
-7 1 9 1753.98 156.418 27
-7 1 8 3.50414 41.3851 19
-7 1 8 74.2305 43.7927 18
-7 1 8 34.787 43.0837 28
-7 1 8 44.2324 51.5879 27
-7 1 7 3114.22 278.503 19
-7 1 7 3006.3 255.318 18
-7 1 7 2812.16 248.253 28
-7 1 6 18163 685.684 19
-7 1 5 3701.22 292.88 20
-7 1 5 3608.44 304.318 19
-7 1 4 18938.4 636.188 25
-7 1 4 19131.1 658.278 20
-7 1 4 19463 688.135 19
-7 1 3 20172.1 669.347 20
-7 1 2 26185.5 752.954 20
-7 1 1 4421.47 312.854 20
7 -1 -1 4318.6 295.491 16
-7 1 0 14029.8 554.327 20
7 -1 0 13373.7 528.514 16
-7 1 -1 12624 526.973 20
7 -1 1 12640.8 524.796 16
-7 1 -2 15232.2 579.739 20
7 -1 2 15470 574.28 29
7 -1 2 16250.8 603.346 16
7 -1 3 -21.5541 52.8211 29
7 -1 3 16.5882 44.1958 16
7 -1 4 2268.53 224.099 29
7 -1 4 2334.83 219.849 16
7 -1 5 -9.09647 54.4065 29
7 -1 5 -127.483 47.8411 16
-7 1 -6 214.262 56.5291 24
7 -1 6 150.347 63.2331 32
-7 0 9 2004.13 183.901 27
-7 0 8 221.181 76.7171 19
-7 0 8 289.177 79.051 18
-7 0 7 2159.08 227.709 19
-7 0 7 1773.94 210.726 18
-7 0 6 74.1336 61.5733 19
-7 0 5 23.6513 51.8584 25
-7 0 5 -4.32931 46.3652 20
-7 0 4 5920.06 369.06 25
-7 0 4 5670.99 365.611 20
-7 0 3 178.449 82.4216 20
-7 0 2 1503.3 187.748 20
7 0 -2 1338.06 173.561 16
-7 0 1 5866.02 363.225 20
7 0 -1 5731.93 355.696 16
-7 0 0 8544.73 432.348 20
7 0 0 8009.45 423.744 16
7 0 1 2993.16 263.913 16
7 0 2 674.922 132.047 16
7 0 3 6078.59 350.711 16
7 0 4 154.252 53.6532 16
-7 0 -5 78.141 36.8012 24
7 0 5 162.376 56.5137 32
-7 -1 9 -44.5151 50.7191 27
-7 -1 8 5794.92 339.894 18
-7 -1 8 5544.35 309.234 30
-7 -1 7 8468.95 441.728 18
-7 -1 6 10377.7 497.28 25
-7 -1 6 10107.5 492.037 18
-7 -1 5 8862.94 463.972 25
-7 -1 5 8616.6 455.103 20
-7 -1 4 11454.6 524.293 25
-7 -1 4 11336.1 516.272 20
-7 -1 3 12904.1 547.099 20
-7 -1 2 15867.8 562.596 24
-7 -1 2 15055.4 580.857 20
-7 -1 1 20444.2 657.146 24
-7 -1 1 20697.3 665.681 20
7 1 -1 19516.6 669.728 16
7 1 0 7984.8 425.009 16
7 1 1 4972.66 332.157 16
-7 -1 -2 408.788 101.506 24
-7 -1 -3 486.758 99.2298 24
-7 -1 -4 1991.72 156.617 24
-7 -2 9 31.1598 30.8708 30
-7 -2 8 515.843 106.563 18
-7 -2 8 815.382 122.875 30
-7 -2 7 -8.86761 52.7698 18
-7 -2 6 32.4845 66.6052 25
-7 -2 6 18.9765 57.4938 18
-7 -2 5 7985.37 439.693 25
-7 -2 5 8003.09 425.35 20
-7 -2 5 7607.71 414.948 18
-7 -2 4 24360.2 767.464 25
-7 -2 4 24520.9 737.536 20
-7 -2 3 74.6843 59.2979 20
-7 -2 2 576.807 112.918 24
-7 -2 1 5939.04 352.667 24
-7 -2 0 303.081 91.7633 24
-7 -2 -1 -7.198 49.6953 24
-7 -2 -2 298.48 75.6403 24
-7 -2 -3 373.92 70.5742 24
-7 -3 9 395.511 71.3082 30
-7 -3 8 3440.52 234.676 30
-7 -3 7 52.2083 46.346 18
-7 -3 6 794.288 139.436 25
-7 -3 6 691.457 120.401 18
-7 -3 5 2116.45 225.523 25
-7 -3 5 1878.46 188.889 18
-7 -3 4 1517.11 193.363 25
-7 -3 3 6211.98 337.341 24
-7 -3 2 454.442 99.5028 24
-7 -3 1 634.487 113.926 24
-7 -3 0 2777.69 215.46 24
-7 -3 -1 25.6589 38.2481 24
7 3 1 -38.9519 33.4406 23
-7 -4 8 69.8379 40.0544 30
-7 -4 7 2021.32 176.59 30
-7 -4 6 9281.89 403.234 25
-7 -4 5 1947.84 195.535 25
-7 -4 4 393.28 97.6871 25
-7 -4 4 409.068 78.2778 24
-7 -4 3 2522.07 195.515 24
-7 -4 2 816.8 113.423 24
-7 -4 1 947.422 113.611 24
-7 -4 0 22.2493 30.2103 24
-7 -5 6 1488.8 134.373 25
-7 -5 5 374.129 77.9927 25
-7 -5 4 519.174 88.4998 25
-7 -5 3 181.874 61 25
-8 11 -2 1387.64 122.632 22
-8 11 -2 1445.69 127.808 26
-8 11 -3 826.045 96.5994 22
-8 11 -3 903.916 107.888 26
-8 11 -4 79.367 46.8514 26
-8 11 -5 -14.4594 31.7983 26
-8 10 1 2986.66 175.214 22
-8 10 1 3037.83 186.588 28
-8 10 0 604.783 98.5286 22
-8 10 0 677.465 92.2764 26
-8 10 -1 1254.42 147.938 22
-8 10 -1 1147.65 136.419 26
-8 10 -2 1070.69 141.37 22
-8 10 -2 1053.79 139.454 26
-8 10 -3 295.614 74.561 22
-8 10 -3 399.059 91.5083 26
-8 10 -4 181.581 71.373 26
-8 10 -5 2776.01 201.724 26
8 -10 6 15.3664 18.5224 17
8 -10 7 99.8111 41.0023 17
-8 9 2 740.235 99.8409 22
-8 9 2 658.563 104.248 28
-8 9 1 2524.04 207.678 22
-8 9 1 2461.57 185.455 26
-8 9 0 5294.48 323.801 22
-8 9 0 4920.61 297.145 26
-8 9 -1 293.547 93.2844 22
-8 9 -1 204.236 84.4383 26
-8 9 -2 6470.46 366.647 22
-8 9 -2 6675.75 375.718 26
-8 9 -3 -31.094 54.4864 22
-8 9 -3 -7.5196 45.6926 26
-8 9 -4 2094.62 205.415 26
8 -9 5 338.788 84.8507 17
-8 9 -5 309.552 77.7457 26
8 -9 6 264.49 76.3256 17
-8 9 -7 55.5553 38.6851 20
8 -9 7 18.544 40.3343 17
8 -9 8 3919.79 201.29 17
-8 8 4 91.4514 48.0633 28
-8 8 3 3913.77 231.032 22
-8 8 3 3792.96 257.003 28
-8 8 2 656.977 118.446 22
-8 8 1 476.49 115.485 22
-8 8 1 593.221 110.112 26
-8 8 0 10715.4 490.346 22
-8 8 0 10503.4 474.268 26
-8 8 -1 741.352 135.542 22
-8 8 -1 735.951 138.184 26
-8 8 -2 2252.27 230.41 22
-8 8 -2 2453.36 239.66 26
-8 8 -3 530.006 120.886 22
-8 8 -3 469.862 114.12 26
8 -8 4 2689.5 231.489 17
-8 8 -4 2588.67 235.855 26
8 -8 5 429.854 99.1251 17
-8 8 -5 306.397 86.5716 26
8 -8 6 2707.54 225.161 17
8 -8 7 133.873 65.3773 17
-8 8 -8 790.885 104.305 20
8 -8 8 783.915 98.0132 17
-8 7 5 1755.55 155.295 28
-8 7 4 -134.106 63.0345 28
-8 7 3 332.44 86.257 22
-8 7 3 338.546 93.4897 28
-8 7 2 15531.7 576.822 22
-8 7 1 2310.18 238.263 22
-8 7 1 2856.67 258.847 19
-8 7 1 2590.41 240.191 26
-8 7 0 6488.7 393.165 22
-8 7 0 7430.99 410.215 26
-8 7 -1 81.3219 53.9972 22
-8 7 -1 85.1594 53.0111 26
-8 7 -2 4507.85 322.848 22
-8 7 -2 4202.96 315.566 26
-8 7 -3 10763.7 480.361 22
-8 7 -3 10828.9 485.163 20
8 -7 3 9824.26 449.901 17
-8 7 -3 10172.1 481.772 26
8 -7 4 1726.1 196.005 17
-8 7 -4 1507.77 182.863 26
8 -7 5 3172.55 259.85 17
8 -7 6 8136.52 397.922 17
8 -7 7 4073.27 258.027 17
-8 7 -8 790.974 105.421 20
-8 6 6 557.833 89.3551 28
-8 6 5 2360.84 199.26 19
-8 6 5 1783.35 183.819 28
-8 6 4 -30.9288 43.1701 19
-8 6 4 -81.2145 60.1999 28
-8 6 3 4153.86 299.479 22
-8 6 3 4073.56 314.391 19
-8 6 3 4033.89 306.939 28
-8 6 2 16632.6 618.691 22
-8 6 2 16765.2 648.044 19
-8 6 2 16518.5 585.352 26
-8 6 1 2608.63 252.029 22
-8 6 1 2834.23 253.528 26
-8 6 0 -67.0594 57.3757 22
-8 6 0 -24.9179 44.3153 26
-8 6 -1 10092.4 485.21 22
-8 6 -1 10604 475.001 20
-8 6 -1 9599.68 473.095 26
-8 6 -2 7696.19 415.872 22
-8 6 -2 7915.59 423.398 20
8 -6 2 8743.29 424.367 17
-8 6 -2 7487.09 416.839 26
-8 6 -3 3054.98 267.517 20
8 -6 3 2717.42 245.336 17
-8 6 -3 2786.35 252.342 26
8 -6 4 4521.79 316.47 17
-8 6 -4 4606.11 312.217 26
8 -6 5 1071.78 160.253 17
8 -6 6 2149 210.234 17
8 -6 7 601.993 95.7205 29
-8 6 -8 769.346 98.7568 20
-8 5 7 613.805 89.8184 28
-8 5 6 882.505 130.694 19
-8 5 6 577.367 108.132 28
-8 5 5 2288.7 229.82 19
-8 5 5 2494.42 231.199 28
-8 5 4 4955.51 313.914 22
-8 5 4 5046.15 355.921 19
-8 5 4 4996.5 338.815 28
-8 5 3 5353.89 344.805 22
-8 5 3 5661.95 386.207 19
-8 5 2 1534.47 192.013 22
-8 5 2 1625.39 192.654 26
-8 5 1 -52.1487 51.5651 22
-8 5 1 131.835 67.3754 26
-8 5 0 3128.21 270.676 22
-8 5 0 2882.34 252.846 20
-8 5 0 2983.39 262.352 26
-8 5 -1 5190.64 344.422 22
-8 5 -1 5099.35 341.531 20
-8 5 -1 4762.23 329.095 26
-8 5 -2 10008.2 467.153 22
-8 5 -2 9168.42 465.139 20
8 -5 2 8888.01 436.952 17
-8 5 -2 9527.62 464.969 26
-8 5 -3 4842.72 345.204 20
8 -5 3 4833.25 329.269 17
-8 5 -3 5058.06 333.866 26
8 -5 4 8344.33 436.283 17
8 -5 5 953.548 150.272 17
-8 5 -6 4477.89 301.392 20
8 -5 6 4840.53 291.065 29
-8 5 -7 409.801 84.9549 20
8 -5 7 250.325 62.26 29
-8 4 7 7395.69 353.18 19
-8 4 7 7185.07 330.832 28
-8 4 6 582.174 121.344 19
-8 4 6 518.058 107.317 28
-8 4 5 46.0713 67.165 19
-8 4 5 -10.5264 45.6642 28
-8 4 4 23760.1 698.26 22
-8 4 4 22416.2 769.316 19
-8 4 3 12016.4 517.378 22
-8 4 3 11656.7 557.999 19
-8 4 2 1851.53 207.781 22
-8 4 2 1925.52 205.979 20
-8 4 2 1707.31 193.468 26
-8 4 1 20169.3 678.316 22
-8 4 1 19346.4 655.666 20
-8 4 1 19535.2 655.284 26
-8 4 0 46440.4 1020.4 22
-8 4 0 44694.9 1004.21 20
-8 4 0 46876.5 1016.87 26
-8 4 -1 18046.4 633.718 22
-8 4 -1 18604.9 656.822 20
-8 4 -1 17674.7 629.617 26
-8 4 -2 8102.13 438.481 20
-8 4 -2 7985.48 422.587 26
-8 4 -3 15150.3 604.469 20
-8 4 -4 11938.3 527.521 20
-8 4 -5 4648.87 315.549 20
8 -4 5 4817.25 302.406 29
-8 4 -6 836.687 122.585 20
8 -4 6 1141.86 140.677 29
8 -4 7 433.304 77.1458 29
8 -4 7 454.677 69.9393 16
-8 3 8 -13.775 27.0382 28
-8 3 7 64.9366 63.111 19
-8 3 7 131.336 62.3227 28
-8 3 6 337.294 100.679 19
-8 3 6 467.458 102.209 28
-8 3 5 91.9889 74.4704 19
-8 3 4 1752.01 195.771 20
-8 3 4 1868.93 227.017 19
-8 3 3 21.0022 39.231 22
-8 3 3 59.3716 49.4873 20
-8 3 2 943.048 151.21 22
-8 3 2 1006.22 151.157 20
-8 3 2 969.797 148.662 26
-8 3 1 16370.1 612.33 20
-8 3 1 15599.8 589.531 26
-8 3 0 5410.25 356.798 20
-8 3 -1 4127.77 314.895 20
-8 3 -2 2625.94 254.913 20
-8 3 -3 198.36 81.1563 20
-8 3 -4 1126.33 163.008 20
-8 3 -5 1.57281 35.5231 20
8 -3 5 -26.1503 44.4572 29
8 -3 5 2.28383 34.3206 16
8 -3 6 79.6504 52.4105 29
8 -3 6 -12.0737 30.884 16
-8 2 8 727.812 112.433 19
-8 2 7 395.628 101.471 19
-8 2 7 467.538 90.5584 18
-8 2 6 3287.4 284.649 19
-8 2 6 3325.66 263.076 18
-8 2 5 7048.66 392.912 20
-8 2 5 7152.15 430.536 19
-8 2 4 2643.49 247.69 20
-8 2 4 2866.15 275.337 19
-8 2 3 1438.27 189.201 20
-8 2 2 15718.8 610.505 20
-8 2 1 13036 551.652 20
8 -2 -1 12615.2 513.086 16
-8 2 0 6009.16 375.676 20
8 -2 0 5708.44 355.513 16
-8 2 -1 17335.1 635.044 20
8 -2 1 16761.7 613.259 16
-8 2 -2 5561.9 358.607 20
8 -2 2 5555.11 355.37 16
-8 2 -3 6942.95 385.503 20
8 -2 3 7391.48 401.703 16
8 -2 4 -16.0822 45.3032 29
8 -2 4 90.2348 57.3486 16
8 -2 5 433.806 84.2395 16
8 -2 6 798.494 98.875 32
-8 1 8 84.8276 41.8949 18
-8 1 8 183.515 64.5396 27
-8 1 7 -43.9377 46.6773 19
-8 1 7 -43.4014 43.3751 18
-8 1 6 741.707 139.445 19
-8 1 6 670.869 128.982 18
-8 1 5 62.5568 53.6739 20
-8 1 5 62.2805 56.1664 19
-8 1 4 -41.0875 47.0591 25
-8 1 4 35.0709 48.318 20
-8 1 4 71.8011 55.2743 19
-8 1 3 17534.1 645.29 20
-8 1 3 18403.6 664.635 19
-8 1 2 29326.8 836.098 20
8 -1 -2 30135.6 793.927 16
-8 1 1 966.564 158.885 20
8 -1 -1 810.887 142.567 16
-8 1 0 125.642 73.8917 20
8 -1 0 5.43562 67.225 16
-8 1 -1 1115.05 163.685 20
8 -1 1 999.543 156.556 16
-8 1 -2 136.668 66.3403 20
8 -1 2 8.68531 54.7035 16
8 -1 3 2513.99 221.946 16
8 -1 4 -92.5378 47.3877 16
-8 1 -5 111.598 44.545 24
-8 0 9 242.538 60.6972 27
-8 0 8 412.351 84.5987 18
-8 0 7 105.914 61.6888 18
-8 0 6 3467.31 281.67 18
-8 0 5 833.784 144.721 25
-8 0 5 958.596 152.301 20
-8 0 4 8516.56 437.895 25
-8 0 4 8144.48 440.035 20
-8 0 3 724.69 146.773 25
-8 0 3 586.654 123.562 20
-8 0 2 3794.69 299.042 20
-8 0 1 10680.3 487.755 20
8 0 -1 10503.6 482.206 16
-8 0 0 33.6045 53.1852 20
8 0 0 88.8794 62.4397 16
8 0 1 4116.72 301.812 16
8 0 2 39.6355 52.6853 16
-8 0 -3 126.38 61.2264 24
-8 0 -4 77.4263 38.0465 24
-8 -1 9 696.015 92.837 27
-8 -1 8 337.796 78.5533 18
-8 -1 8 316.276 69.0882 30
-8 -1 7 32.6466 41.4203 18
-8 -1 6 7.43286 55.999 18
-8 -1 5 457.308 113.171 25
-8 -1 5 554.132 122.304 20
-8 -1 5 570.98 117.856 18
-8 -1 4 3873.08 295.513 25
-8 -1 4 3921.54 295.132 20
-8 -1 3 6826.04 393.032 25
-8 -1 3 6754.27 383.262 20
-8 -1 2 119.971 59.9512 24
-8 -1 2 112.904 59.7855 20
-8 -1 1 259.456 82.8331 24
-8 -1 0 350.394 89.8345 24
-8 -1 -1 412.948 93.4426 24
-8 -1 -2 167.645 60.7617 24
-8 -1 -3 -11.451 27.5818 24
-8 -2 8 68.0958 47.9049 30
-8 -2 7 1766.6 170.845 18
-8 -2 6 2460.46 217.73 25
-8 -2 6 1582.83 170.93 18
-8 -2 5 440.289 102.682 25
-8 -2 5 454.653 99.1272 18
-8 -2 4 5613.42 341.849 25
-8 -2 3 918.648 150.942 25
-8 -2 2 1051.3 133.987 24
-8 -2 1 1346.68 149.964 24
-8 -2 0 18.6842 39.9333 24
-8 -2 -1 214.871 59.9093 24
-8 -3 7 -5.32535 37.7644 30
-8 -3 6 246.189 74.0275 25
-8 -3 5 93.0371 68.0875 25
-8 -3 4 1051.52 138.502 25
-8 -3 3 -10.3827 52.5967 25
-8 -3 3 20.9024 31.2378 24
-8 -3 2 1076.36 132.604 25
-8 -3 2 879.049 105.505 24
-8 -3 1 58.8105 38.7167 24
-8 -4 5 250.056 65.9332 25
-8 -4 4 389.907 72.1993 25
-9 10 0 5184.34 239.044 22
-9 10 -1 1816.77 156.891 22
-9 10 -1 1920.98 156.799 26
-9 10 -2 625.471 96.9327 22
-9 10 -2 665.539 103.506 26
-9 10 -3 68.4079 41.2012 22
-9 10 -3 121.703 56.8746 26
-9 10 -4 1396.85 137.45 26
-9 10 -5 2359.18 154.893 26
-9 9 2 645.474 82.6537 22
-9 9 1 870.971 116.284 22
-9 9 1 854.323 109.158 28
-9 9 1 1000.94 108.618 26
-9 9 0 5474.9 300 22
-9 9 0 5332.54 283.251 26
-9 9 -1 3909.68 263.443 22
-9 9 -1 4406.16 277.993 26
-9 9 -2 251.648 76.0229 22
-9 9 -2 362.661 93.0257 26
-9 9 -3 11294.8 422.542 22
-9 9 -3 10878.8 439.127 26
-9 9 -4 6984.79 334.541 26
9 -9 5 2924.9 197.073 17
-9 9 -5 4400.75 236.078 26
-9 9 -6 1317.87 120.6 20
9 -9 6 1183.28 120.977 17
-9 8 3 232.399 58.3095 22
-9 8 3 144.597 50.0367 28
-9 8 2 230.278 72.2436 22
-9 8 2 166.623 58.9744 28
-9 8 1 -11.1267 54.3137 22
-9 8 1 54.4904 56.9092 26
-9 8 0 719.835 130.031 22
-9 8 0 852.578 134.678 26
-9 8 -1 1569.83 184.663 22
-9 8 -1 1863.69 201.373 26
-9 8 -2 20.8718 50.5069 22
-9 8 -2 -1.37789 58.5892 26
-9 8 -3 781.184 123.152 22
-9 8 -3 885.766 140.53 26
-9 8 -4 10.9415 44.6719 20
-9 8 -4 2.05872 39.4742 26
-9 8 -5 2438.33 201.585 20
9 -8 5 1721.65 168.09 17
-9 8 -6 995.081 125.301 20
9 -8 6 927.819 119.83 17
-9 8 -7 591.46 84.7351 20
-9 7 4 530.135 88.2373 28
-9 7 3 1142.11 136.971 22
-9 7 3 1140.4 138.828 19
-9 7 2 7928.41 391.063 22
-9 7 2 7504.86 387.965 19
-9 7 2 7493.12 352.093 26
-9 7 1 9008.39 437.325 22
-9 7 1 9785.98 464.801 19
-9 7 1 9221.27 429.673 26
-9 7 0 242.651 91.9787 22
-9 7 0 238.66 86.6442 26
-9 7 -1 5684.25 354.098 22
-9 7 -1 5825.7 359.971 26
-9 7 -2 11719.6 494.372 22
-9 7 -2 12133 487.178 20
-9 7 -2 10630.4 481.362 26
-9 7 -3 16072.1 551.175 22
-9 7 -3 15568.4 564.313 20
9 -7 3 15610.4 540.451 17
-9 7 -3 15544.6 565.871 26
-9 7 -4 3469.3 267.254 20
9 -7 4 3523.42 259.739 17
-9 7 -4 3740.84 262.48 26
-9 7 -5 1684.75 182.72 20
9 -7 5 1476.73 166.787 17
-9 7 -6 2985.62 220.45 20
-9 7 -7 2581.82 174.631 20
-9 6 5 29.6956 33.0189 19
-9 6 5 -36.6456 39.789 28
-9 6 4 92.387 51.2626 19
-9 6 3 1101.97 149.66 22
-9 6 3 1006.59 154.014 19
-9 6 2 2.44953 52.7506 22
-9 6 2 33.7815 55.1634 19
-9 6 2 65.9022 54.0715 26
-9 6 1 1577.6 193.461 22
-9 6 1 1488.04 184.368 26
-9 6 0 536.957 118.702 22
-9 6 0 525.66 119.337 26
-9 6 -1 25166.2 749.912 22
-9 6 -1 25080.4 730.375 20
-9 6 -1 24619.8 744.219 26
-9 6 -2 13560.3 537.33 22
-9 6 -2 14387.7 563.705 20
-9 6 -2 14522.5 566.018 26
-9 6 -3 944.849 152.39 20
-9 6 -3 1015.81 152.724 26
-9 6 -4 25.5626 51.9121 20
-9 6 -5 665.595 126.777 20
-9 6 -6 80.6254 54.8348 20
-9 6 -7 68.9444 35.5644 20
9 -6 7 101.226 36.5132 16
-9 5 6 1514.48 148.144 19
-9 5 5 1117.78 153.478 19
-9 5 4 896.788 148.006 19
-9 5 3 3173.63 257.523 22
-9 5 3 3105.3 279.639 19
-9 5 2 904.545 148.798 22
-9 5 2 910.22 163.59 19
-9 5 2 753.716 131.138 26
-9 5 1 40.9294 53.4001 22
-9 5 1 13.0782 32.2283 20
-9 5 1 129.778 69.0671 26
-9 5 0 3291.16 277.254 22
-9 5 0 3183.95 269.201 20
-9 5 0 3401.03 278.711 26
-9 5 -1 1501.03 189.559 20
-9 5 -1 1451 189.328 26
-9 5 -2 22.3662 49.8653 20
-9 5 -2 7.60986 67.7492 26
-9 5 -3 4166.98 310.153 20
-9 5 -4 143.712 71.2279 20
-9 5 -5 3418.43 251.373 20
-9 5 -6 32.8454 30.3483 20
9 -5 6 32.4339 37.1557 16
-9 4 7 -8.34953 28.0453 19
-9 4 6 853.935 129.57 19
-9 4 5 67.9628 60.291 19
-9 4 4 3112.84 281.628 19
-9 4 3 2536.42 226.964 20
-9 4 3 2411.52 253.508 19
-9 4 2 767.373 132.892 20
-9 4 1 4735.45 330.656 20
-9 4 0 11745.9 527.863 20
-9 4 -1 3296.29 278.508 20
9 -4 1 2826.73 248.021 16
-9 4 -2 603.293 123.63 20
-9 4 -3 -2.92551 52.2479 20
-9 4 -4 3.89899 44.786 20
9 -4 4 21.7485 52.3859 16
-9 4 -5 27.8477 39.2878 20
9 -4 5 24.8174 44.5233 16
9 -4 6 280.193 58.8287 16
-9 3 7 20.1653 39.3572 19
-9 3 6 1770.43 189.583 19
-9 3 6 1829.12 166.878 18
-9 3 5 237.307 93.934 19
-9 3 4 380.087 96.9959 20
-9 3 4 213.774 87.2376 19
-9 3 3 1233.89 167.6 20
-9 3 3 1473.14 198.186 19
-9 3 2 4789.94 334.998 20
-9 3 1 3728.27 300.021 20
-9 3 0 10617.1 499.639 20
9 -3 0 11493.1 490.793 16
-9 3 -1 4534.92 324.305 20
9 -3 1 5189.65 337.665 16
-9 3 -2 1103.98 162.323 20
9 -3 2 951.849 150.597 16
-9 3 -3 6124.07 347.321 20
9 -3 3 5842.85 340.059 16
-9 3 -4 351.806 80.2039 20
9 -3 4 430.439 89.0942 16
9 -3 5 -4.6107 24.6853 16
-9 2 7 504.76 94.8384 19
-9 2 7 442.627 75.9222 18
-9 2 6 40.4347 45.6464 19
-9 2 6 61.7084 40.591 18
-9 2 5 1345.25 165.943 20
-9 2 5 1154.33 164.04 19
-9 2 4 496.991 112.776 20
-9 2 4 379.634 100.799 19
-9 2 3 124.031 67.9148 20
-9 2 3 59.9817 67.3979 19
-9 2 2 -0.22226 48.3803 20
-9 2 1 1506.92 190.906 20
9 -2 -1 1569.65 181.237 16
-9 2 0 1660.6 200.261 20
9 -2 0 1535.58 185.466 16
-9 2 -1 262.916 85.2128 20
9 -2 1 252.619 88.3988 16
-9 2 -2 1081.36 148.264 20
9 -2 2 897.152 141.335 16
-9 2 -3 1696.61 163.344 20
9 -2 3 1808.76 177.284 16
9 -2 4 569.229 88.2355 16
-9 1 7 66.1349 38.9882 19
-9 1 7 65.1976 44.6747 18
-9 1 6 2590.66 211.928 19
-9 1 6 2407.36 214.264 18
-9 1 5 8425.03 410.595 20
-9 1 4 1119.69 163.502 20
-9 1 3 2079.63 219.312 20
-9 1 2 6563.03 383.251 20
-9 1 1 116.832 69.7385 20
9 -1 -1 22.0927 52.6966 16
-9 1 0 5962.67 343.676 20
9 -1 0 6106.9 351.631 16
-9 1 -1 2010.18 190.188 20
9 -1 1 2146.43 205.483 16
9 -1 2 66.5717 51.3201 16
-9 1 -3 577.074 91.1885 24
-9 0 7 239.406 67.3801 18
-9 0 6 5.52303 46.9369 18
-9 0 5 658.565 119.98 18
-9 0 4 360.72 91.7583 25
-9 0 4 338.202 94.8956 20
-9 0 3 547.511 110.601 25
-9 0 3 500.875 105.909 20
-9 0 2 379.821 101.28 25
-9 0 2 244.312 72.9685 20
-9 0 1 221.234 67.6237 24
-9 0 1 194.154 71.8364 20
-9 0 0 257.148 69.2316 24
-9 0 -1 2140.75 177.361 24
-9 0 -2 234.363 62.4319 24
-9 -1 7 3454.5 205.741 18
-9 -1 6 -12.4219 34.3622 18
-9 -1 5 3107.63 221.76 25
-9 -1 5 2867.69 211.915 18
-9 -1 4 5.93716 46.7251 25
-9 -1 4 4.55913 38.7189 18
-9 -1 3 428.592 92.4917 25
-9 -1 3 242.686 69.9113 20
-9 -1 2 3169.69 227.669 25
-9 -1 1 221.594 76.7654 25
-9 -1 1 331.965 72.6094 24
-9 -1 0 1371.43 129.64 25
-9 -1 0 1438.29 133.595 24
-9 -1 -1 2680.84 160.338 24
-9 -2 5 438.794 80.7823 25
-9 -2 4 70.1605 48.4276 25
-9 -2 3 98.8337 55.2387 25
-9 -2 2 944.871 106.161 25
-10 10 -2 -2.16401 31.6866 26
-10 9 1 142.548 46.5791 22
-10 9 0 1424.68 136.146 22
-10 9 0 1456.72 130.496 26
-10 9 -1 877.869 112.534 22
-10 9 -1 1099.41 123.756 26
-10 9 -2 -32.2548 35.4193 22
-10 9 -2 65.4899 51.8076 26
-10 9 -3 3711.72 221.002 26
-10 8 2 3064.29 189.443 22
-10 8 1 156.987 63.4171 22
-10 8 1 180.701 54.9711 19
-10 8 1 211.418 60.0323 26
-10 8 0 878.846 123.647 22
-10 8 0 1224.89 139.208 19
-10 8 0 1016.12 130.485 26
-10 8 -1 226.788 68.9728 22
-10 8 -1 199.01 64.4303 19
-10 8 -1 186.797 67.6291 26
-10 8 -2 -27.3039 55.6637 26
-10 8 -3 1038.33 130.55 26
-10 8 -4 186.164 56.0241 20
-10 8 -5 1170 116.265 20
-10 7 3 368.119 73.3667 19
-10 7 2 2221.76 186.986 22
-10 7 2 2281.4 197.393 19
-10 7 1 2925.83 231.726 22
-10 7 1 3099.32 243.327 19
-10 7 1 3512.14 241.561 26
-10 7 0 167.608 74.335 22
-10 7 0 556.174 111.771 26
-10 7 -1 446.926 102.665 26
-10 7 -2 2245.7 194.983 20
-10 7 -2 2054.05 196.515 26
-10 7 -3 1957.06 181.167 20
-10 7 -4 3371.8 228.813 20
-10 7 -5 317.393 72.6523 20
-10 6 4 365.696 79.0649 19
-10 6 3 431.186 98.7124 19
-10 6 2 67.2757 57.2395 19
-10 6 1 683.404 126.39 19
-10 6 0 952.862 133.282 20
-10 6 0 877.086 140.264 26
-10 6 -1 1043.44 145.279 20
-10 6 -2 2665.43 225.876 20
10 -6 2 2408.57 198.486 16
-10 6 -3 885.706 133.308 20
-10 6 -4 559.212 103.045 20
10 -6 4 570.071 94.6181 16
-10 6 -5 303.024 68.9194 20
10 -6 5 264.562 63.6849 16
-10 5 5 722.541 105.287 19
-10 5 4 32.9296 40.7106 19
-10 5 3 538.816 113.295 19
-10 5 2 78.1004 49.8051 20
-10 5 2 27.1679 55.4778 19
-10 5 1 114.507 57.0097 20
-10 5 0 463.516 104.799 20
-10 5 -1 25.2184 46.0761 20
-10 5 -2 1450.75 173.222 20
10 -5 2 852.149 124.343 16
-10 5 -3 772.62 124.207 20
10 -5 3 805.301 119.388 16
-10 5 -4 831.728 117.09 20
10 -5 4 743.483 108.023 16
-10 5 -5 2244.02 155.165 20
10 -5 5 2507.81 162.843 16
-10 4 6 106.16 43.4907 19
-10 4 5 21.8587 39.6615 19
-10 4 5 36.0896 25.6864 18
-10 4 4 380.299 91.6082 19
-10 4 3 6672.53 339.811 20
-10 4 3 6692.16 378.601 19
-10 4 2 170.712 65.8422 20
-10 4 2 126.369 64.6266 19
-10 4 1 5149.4 326.264 20
-10 4 0 843.265 140.015 20
-10 4 -1 245.225 79.0899 20
10 -4 1 267.952 77.2874 16
-10 4 -2 5300.96 314.166 20
10 -4 2 5509.3 306.586 16
-10 4 -3 480.48 93.7213 20
10 -4 3 451.6 90.2169 16
-10 4 -4 2302.51 167.462 20
10 -4 4 2433.38 173.519 16
-10 3 6 344.452 71.0399 19
-10 3 6 287.887 61.0792 18
-10 3 5 25.7286 40.2648 19
-10 3 5 79.5948 43.2672 18
-10 3 4 335.028 82.6522 20
-10 3 4 187.625 77.0928 19
-10 3 3 65.3073 57.7523 20
-10 3 3 -55.4715 50.8684 19
-10 3 2 -28.1566 51.3643 20
-10 3 2 82.2164 57.0652 19
-10 3 1 7.32712 46.4275 20
-10 3 0 -12.0406 49.9348 20
10 -3 0 27.5874 46.4009 16
-10 3 -1 2135.76 201.091 20
10 -3 1 1875.53 182.788 16
-10 3 -2 138.461 58.4181 20
10 -3 2 203.255 67.9359 16
-10 3 -3 3451.94 205.104 20
10 -3 3 3586.49 217.591 16
-10 2 6 131.406 46.1288 19
-10 2 6 150.166 49.4523 18
-10 2 5 1374.07 143.471 19
-10 2 5 1567.12 158.697 18
-10 2 4 3807.94 256.158 20
-10 2 4 3500.21 240.709 19
-10 2 3 1070.73 145.81 20
-10 2 3 1025.14 136.56 19
-10 2 2 1079.05 147.386 20
-10 2 1 526.816 108.588 20
-10 2 0 539.376 104.213 20
-10 2 -1 131.412 53.1904 24
-10 2 -1 169.814 57.2286 20
10 -2 1 113.61 57.5728 16
-10 2 -2 3466.81 200.3 24
-10 2 -2 3504.06 195.74 20
-10 1 6 44.0173 35.6359 18
-10 1 5 1368.03 145.773 18
-10 1 4 594.897 101.163 20
-10 1 3 1074.11 137.228 20
-10 1 2 24.1626 42.7985 20
-10 1 1 1701.31 162.669 20
-10 1 0 452.104 71.8568 24
-10 1 0 617.25 91.5519 20
-10 1 -1 292.631 57.571 24
-10 0 5 28.0984 32.3842 18
-10 0 4 113.523 45.0965 18
-10 0 3 295.883 68.6572 20
-10 0 3 282.984 62.0352 18
-10 0 2 557.285 81.759 20
-11 8 -1 71.2463 40.1709 19
-11 8 -2 75.4112 39.3426 19
-11 7 2 281.096 61.2945 19
-11 7 1 4139.32 236.023 19
-11 7 0 47.5032 40.3553 19
-11 7 -2 7.6093 27.8983 20
-11 7 -3 62.3913 36.2221 20
-11 6 3 392.609 76.1928 19
-11 6 2 1142.2 132.34 19
-11 6 1 726.851 112.91 19
-11 6 0 911.005 109.174 20
-11 6 0 767.596 113.518 19
-11 6 -1 1604.47 148.772 20
-11 6 -2 170.034 60.4719 20
-11 6 -3 1169.17 115.996 20
-11 5 4 -17.7618 26.2616 19
-11 5 3 1262.97 134.791 19
-11 5 2 4776.14 235.464 20
-11 5 2 4820.11 275.172 19
-11 5 1 246.379 66.3847 20
-11 5 1 197.785 71.3159 19
-11 5 0 1085.33 129.527 20
-11 5 -1 191.414 60.3203 20
-11 5 -2 435.061 79.5564 20
11 -5 2 363.775 65.7201 16
-11 5 -3 18.1642 28.6518 20
-11 4 4 91.1264 40.5868 19
-11 4 4 103.21 36.9091 18
-11 4 3 2680.99 176.629 20
-11 4 3 2668.72 194.979 19
-11 4 2 271.043 70.183 20
-11 4 2 198.714 64.6076 19
-11 4 1 1103.05 130.952 20
-11 4 1 888.944 119.395 19
-11 4 0 217.61 67.1917 20
-11 4 0 294.506 68.9919 19
-11 4 -1 809.194 108.374 20
-11 4 -2 338.074 64.8368 20
-11 3 4 1554.41 132.521 18
-11 3 3 562.465 88.7058 20
-11 3 3 425.678 71.4601 19
-11 3 2 18.2464 37.0717 20
-11 3 2 22.1578 30.1693 19
-11 3 1 226.092 62.9092 20
-11 3 0 252.25 63.3951 20
-11 3 -1 -4.47233 31.4691 20
-11 2 4 475.062 75.7516 18
-11 2 3 5.74191 30.8509 20
-11 2 2 224.073 58.9195 20
-11 2 1 -24.3355 28.5801 20
