#------------------------------------------------------------------------------
#$Date: 2019-11-23 21:04:13 +0200 (Sat, 23 Nov 2019) $
#$Revision: 234991 $
#$URL: file:///home/coder/svn-repositories/cod/cif/1/55/34/1553433.cif $
#------------------------------------------------------------------------------
#
# This file is available in the Crystallography Open Database (COD),
# http://www.crystallography.net/
#
# All data on this site have been placed in the public domain by the
# contributors.
#
data_1553433
loop_
_publ_author_name
'Zhang, Zeyuan'
'Dai, Zhen'
'Ma, Xinkun'
'Liu, Yihan'
'Ma, Xiaojun'
'Li, Wanli'
'Ma, Chen'
_publ_section_title
;
 Cu-catalyzed one-pot synthesis of fused oxazepinone derivatives via sp2
 C--H and O--H cross-dehydrogenative coupling
;
_journal_issue                   7
_journal_name_full               'Organic Chemistry Frontiers'
_journal_page_first              799
_journal_paper_doi               10.1039/C6QO00040A
_journal_volume                  3
_journal_year                    2016
_chemical_formula_moiety         'C21 H12 Cl N3 O2'
_chemical_formula_sum            'C21 H12 Cl N3 O2'
_chemical_formula_weight         373.79
_chemical_name_common            3k
_chemical_name_systematic        3k
_space_group_crystal_system      triclinic
_space_group_IT_number           2
_space_group_name_Hall           '-P 1'
_space_group_name_H-M_alt        'P -1'
_atom_sites_solution_hydrogens   geom
_atom_sites_solution_primary     iterative
_audit_creation_date             2015-09-20
_audit_creation_method
;
Olex2 1.2
(compiled 2015.01.26 svn.r3150 for OlexSys, GUI svn.r4998)
;
_audit_update_record
;
2016-01-22 deposited with the CCDC.
2016-04-19 downloaded from the CCDC.
;
_cell_angle_alpha                101.767(2)
_cell_angle_beta                 96.018(2)
_cell_angle_gamma                106.7307(18)
_cell_formula_units_Z            2
_cell_length_a                   7.1470(16)
_cell_length_b                   7.9449(18)
_cell_length_c                   16.405(4)
_cell_measurement_reflns_used    3273
_cell_measurement_temperature    298(2)
_cell_measurement_theta_max      26.550
_cell_measurement_theta_min      2.576
_cell_volume                     859.9(3)
_computing_molecular_graphics    'Olex2 (Dolomanov et al., 2009)'
_computing_publication_material  'Olex2 (Dolomanov et al., 2009)'
_computing_structure_refinement  'XL (Sheldrick, 2008)'
_computing_structure_solution
;
Superflip (Palatinus & Chapuis, 2007;Palatinus & van der Lee, 2008;
Palatinus et al., 2012)
;
_diffrn_ambient_temperature      298.15
_diffrn_measured_fraction_theta_full 0.972
_diffrn_measured_fraction_theta_max 0.996
_diffrn_measurement_device_type  'Xcalibur, Eos, Gemini'
_diffrn_radiation_type           MoK\a
_diffrn_radiation_wavelength     0.710
_diffrn_reflns_av_R_equivalents  0.0208
_diffrn_reflns_av_unetI/netI     0.0230
_diffrn_reflns_Laue_measured_fraction_full 0.972
_diffrn_reflns_Laue_measured_fraction_max 0.996
_diffrn_reflns_limit_h_max       8
_diffrn_reflns_limit_h_min       -8
_diffrn_reflns_limit_k_max       9
_diffrn_reflns_limit_k_min       -9
_diffrn_reflns_limit_l_max       19
_diffrn_reflns_limit_l_min       -19
_diffrn_reflns_number            8620
_diffrn_reflns_point_group_measured_fraction_full 0.972
_diffrn_reflns_point_group_measured_fraction_max 0.996
_diffrn_reflns_theta_full        25.214
_diffrn_reflns_theta_max         24.993
_diffrn_reflns_theta_min         2.573
_exptl_absorpt_coefficient_mu    0.244
_exptl_crystal_colour            colorless
_exptl_crystal_density_diffrn    1.444
_exptl_crystal_description       block
_exptl_crystal_F_000             384
_exptl_crystal_size_max          0.09
_exptl_crystal_size_mid          0.08
_exptl_crystal_size_min          0.08
_refine_diff_density_max         0.419
_refine_diff_density_min         -0.492
_refine_diff_density_rms         0.039
_refine_ls_extinction_method     none
_refine_ls_goodness_of_fit_ref   1.160
_refine_ls_hydrogen_treatment    constr
_refine_ls_matrix_type           full
_refine_ls_number_parameters     244
_refine_ls_number_reflns         3034
_refine_ls_number_restraints     0
_refine_ls_restrained_S_all      1.160
_refine_ls_R_factor_all          0.0561
_refine_ls_R_factor_gt           0.0422
_refine_ls_shift/su_max          0.000
_refine_ls_shift/su_mean         0.000
_refine_ls_structure_factor_coef Fsqd
_refine_ls_weighting_details
;
 w=1/[\s^2^(Fo^2^)+(0.1000P)^2^]
 where P=(Fo^2^+2Fc^2^)/3
;
_refine_ls_weighting_scheme      calc
_refine_ls_wR_factor_gt          0.1410
_refine_ls_wR_factor_ref         0.1550
_reflns_Friedel_coverage         0.000
_reflns_number_gt                2419
_reflns_number_total             3034
_reflns_threshold_expression     'I > 2\s(I)'
_cod_data_source_file            c6qo00040a2.cif
_cod_data_source_block           p
_cod_original_cell_volume        860.0(3)
_cod_database_code               1553433
_shelxl_version_number           2013-2
_shelx_space_group_comment
;
The symmetry employed for this shelxl refinement is uniquely defined
by the following loop, which should always be used as a source of
symmetry information in preference to the above space-group names.
They are only intended as comments.
;
_shelx_estimated_absorpt_t_max   0.981
_shelx_estimated_absorpt_t_min   0.978
_olex2_refinement_description
;
1. Fixed Uiso
 At 1.2 times of:
  All C(H) groups
2.a Aromatic/amide H refined with riding coordinates:
 C1(H1), C2(H2), C3(H3), C5(H5), C6(H6), C7(H7), C10(H10), C11(H11), C12(H12),
 C18(H18), C19(H19), C21(H21)
;
_shelx_res_file
;
TITL Integration of 150920a
CELL 0.71 7.147 7.9449 16.4055 101.7673 96.0177 106.7307
ZERR 2 0.0016 0.0018 0.0038 0.002 0.0021 0.0018
LATT 1
SFAC C H Cl N O
UNIT 42 24 2 6 4

L.S. 4 0 0
PLAN  20
SIZE 0.08 0.09 0.08
TEMP 25
fmap 2 53
acta
OMIT -3 50
OMIT 0 -2 5
OMIT 2 -1 8
OMIT 0 -4 3
OMIT -1 -3 4
REM <olex2.extras>
REM <HklSrc "%.\\p.hkl">
REM </olex2.extras>

WGHT    0.100000
FVAR       0.79135
C1    1    0.244586    0.203309    1.002339    11.00000    0.07948    0.04361 =
         0.05729    0.01782    0.00862    0.02417
AFIX  43
H1    2    0.244029    0.090181    1.009715    11.00000   -1.20000
AFIX   0
C2    1    0.289331    0.345449    1.075023    11.00000    0.07332    0.06200 =
         0.04608    0.01796    0.01075    0.02858
AFIX  43
H2    2    0.318992    0.326593    1.128326    11.00000   -1.20000
AFIX   0
C3    1    0.288471    0.510031    1.066047    11.00000    0.06267    0.05191 =
         0.04061    0.00054    0.01012    0.02345
AFIX  43
H3    2    0.316821    0.606199    1.113441    11.00000   -1.20000
AFIX   0
C4    1    0.244578    0.536162    0.984790    11.00000    0.04139    0.03561 =
         0.04239    0.00252    0.01046    0.01387
C5    1    0.241504    0.703492    0.970014    11.00000    0.06533    0.03317 =
         0.05218   -0.00231    0.00884    0.02134
AFIX  43
H5    2    0.268388    0.803344    1.015558    11.00000   -1.20000
AFIX   0
C6    1    0.199820    0.721494    0.890147    11.00000    0.06338    0.03267 =
         0.05694    0.00930    0.00901    0.02004
AFIX  43
H6    2    0.198972    0.833338    0.881423    11.00000   -1.20000
AFIX   0
C7    1    0.157906    0.571535    0.820544    11.00000    0.04593    0.03571 =
         0.04604    0.01002    0.00717    0.01225
AFIX  43
H7    2    0.127309    0.583939    0.766023    11.00000   -1.20000
AFIX   0
C8    1    0.162143    0.408354    0.833005    11.00000    0.03452    0.02830 =
         0.04144    0.00164    0.00583    0.00421
C9    1    0.203890    0.384532    0.915210    11.00000    0.03351    0.03057 =
         0.04182    0.00521    0.00809    0.00818
C10   1   -0.379509    0.019890    0.770817    11.00000    0.03823    0.06126 =
         0.06063    0.02044    0.01266    0.00800
AFIX  43
H10   2   -0.488191    0.050970    0.787322    11.00000   -1.20000
AFIX   0
C11   1   -0.400049   -0.158397    0.741905    11.00000    0.05007    0.05490 =
         0.05324    0.01715    0.00438   -0.00831
AFIX  43
H11   2   -0.520983   -0.246968    0.737773    11.00000   -1.20000
AFIX   0
C12   1   -0.238102   -0.206079    0.718702    11.00000    0.07618    0.02821 =
         0.03799    0.00783    0.00501    0.00040
AFIX  43
H12   2   -0.248346   -0.327158    0.698502    11.00000   -1.20000
AFIX   0
C13   1   -0.062632   -0.071794    0.726028    11.00000    0.04778    0.03397 =
         0.03040    0.00963    0.00566    0.01014
C14   1   -0.051483    0.108720    0.753735    11.00000    0.03709    0.03357 =
         0.03298    0.00642    0.00307    0.00461
C15   1    0.253477    0.265448    0.705090    11.00000    0.04298    0.03553 =
         0.04687    0.00610    0.00800    0.00730
C16   1    0.159285   -0.070530    0.633959    11.00000    0.04078    0.04136 =
         0.03417    0.00854    0.00466    0.01524
C17   1    0.221607    0.109642    0.630687    11.00000    0.03538    0.03866 =
         0.04147    0.00755    0.00548    0.01083
C18   1    0.276144    0.147322    0.555881    11.00000    0.04064    0.04365 =
         0.05217    0.01328    0.01270    0.00969
AFIX  43
H18   2    0.319130    0.267348    0.552325    11.00000   -1.20000
AFIX   0
C19   1    0.268442    0.013178    0.487424    11.00000    0.04243    0.05937 =
         0.04046    0.01297    0.01190    0.01352
AFIX  43
H19   2    0.302865    0.041018    0.437506    11.00000   -1.20000
AFIX   0
C20   1    0.208622   -0.164566    0.493645    11.00000    0.04044    0.05402 =
         0.04065   -0.00309    0.00495    0.01290
C21   1    0.154034   -0.209277    0.566267    11.00000    0.04896    0.03780 =
         0.04591    0.00568    0.00693    0.01356
AFIX  43
H21   2    0.114657   -0.329373    0.569861    11.00000   -1.20000
AFIX   0
CL1   3    0.198724   -0.335576    0.406930    11.00000    0.08303    0.07027 =
         0.05154   -0.01334    0.01874    0.01479
N1    4   -0.207993    0.154439    0.776702    11.00000    0.04291    0.04761 =
         0.05729    0.01401    0.01290    0.01139
N2    4    0.125586    0.254128    0.762032    11.00000    0.03924    0.02838 =
         0.04063    0.00182    0.00794    0.00441
N3    4    0.203353    0.217402    0.924571    11.00000    0.05895    0.03069 =
         0.05133    0.00874    0.00617    0.01404
O1    5    0.103539   -0.118343    0.707009    11.00000    0.06053    0.04171 =
         0.03940    0.01389    0.01141    0.02200
O2    5    0.393914    0.402702    0.713299    11.00000    0.05906    0.04305 =
         0.08218   -0.00540    0.03241   -0.00781
HKLF 4

REM  Integration of 150920a
REM R1 =  0.0422 for    2419 Fo > 4sig(Fo)  and  0.0561 for all    3034 data
REM    244 parameters refined using      0 restraints

END

WGHT      0.0453      0.4058

REM Highest difference peak  0.419,  deepest hole -0.492,  1-sigma level  0.039
Q1    1   0.2535 -0.3958  0.4428  11.00000  0.05    0.42
Q2    1  -0.0590  0.0178  0.7748  11.00000  0.05    0.16
Q3    1   0.1321  0.3389  0.8030  11.00000  0.05    0.15
Q4    1   0.0598 -0.3771  0.3995  11.00000  0.05    0.15
Q5    1   0.1954  0.4578  0.9565  11.00000  0.05    0.15
Q6    1  -0.1503 -0.1797  0.7444  11.00000  0.05    0.15
Q7    1   0.2560  0.2806  1.0382  11.00000  0.05    0.14
Q8    1  -0.2360 -0.2184  0.7408  11.00000  0.05    0.14
Q9    1   0.0607 -0.3407  0.4171  11.00000  0.05    0.14
Q10   1   0.1627  0.1264  0.6142  11.00000  0.05    0.14
Q11   1   0.1528  0.0285  0.6367  11.00000  0.05    0.13
Q12   1  -0.3931 -0.0627  0.7191  11.00000  0.05    0.13
Q13   1   0.4159  0.3158  0.7596  11.00000  0.05    0.13
Q14   1   0.3029  0.1973  0.9085  11.00000  0.05    0.12
Q15   1  -0.2109  0.2731  0.7809  11.00000  0.05    0.12
Q16   1  -0.1589 -0.2054  0.7065  11.00000  0.05    0.12
Q17   1   0.0610  0.4670  0.8247  11.00000  0.05    0.12
Q18   1   0.3606 -0.0493  0.4201  11.00000  0.05    0.11
Q19   1   0.3226  0.6173  0.9778  11.00000  0.05    0.11
Q20   1   0.2925 -0.0767  0.4991  11.00000  0.05    0.11
;
_shelx_res_checksum              77308
_shelx_hkl_file
;
  -1   0   0 1732.12 33.5037   4
   1   0   0 1738.36 33.1065   1
  -2   0   0 9864.45 187.681   4
  -2   0   0 9999.99 191.553   5
  -2   0   0 9917.78 182.647   2
   2   0   0 9998.87 181.311   3
   2   0   0 9838.21 187.579   1
  -3   0   0 1405.82 26.8004   4
  -3   0   0 1381.18 26.9860   5
  -3   0   0 1417.93 25.8914   2
  -3   0   0 1402.34 25.7662   3
   3   0   0 1332.04 26.7987   1
  -4   0   0 89.6427 2.38976   5
  -4   0   0 96.1217 3.12722   4
  -4   0   0 91.9834 2.57658   2
  -4   0   0 86.5641 2.66056   3
   4   0   0 98.0267 3.19166   1
  -5   0   0 249.239 6.46777   4
  -5   0   0 251.544 5.73158   2
  -5   0   0 245.243 5.80744   3
   5   0   0 237.390 6.49269   1
  -6   0   0 33.5273 2.48241   4
  -6   0   0 36.4235 2.06110   3
   6   0   0 36.1846 2.33687   1
  -7   0   0 10.6781 1.94427   4
   7   0   0 8.51101 1.72102   1
  -8   0   0 0.43359 1.60202   4
   8   0   0 -1.3532 1.13242   1
   9  -1   0 -2.1911 1.35822   1
  -9   1   0 -2.2186 1.56105   4
   8  -1   0 7.30883 2.23028   1
  -8   1   0 6.97636 2.02086   4
   7  -1   0 68.1435 3.60830   1
  -7   1   0 60.3611 3.42945   4
   6  -1   0 87.4096 3.73395   1
  -6   1   0 89.4954 3.21449   3
  -6   1   0 84.3957 3.46206   4
   5  -1   0 3.78483 1.15608   1
  -5   1   0 3.83550 1.07618   4
  -5   1   0 3.97489 0.90015   3
  -5   1   0 2.64700 0.65024   2
   4  -1   0 90.2874 3.00327   1
  -4   1   0 88.7142 2.33685   2
  -4   1   0 95.7324 3.07243   4
  -4   1   0 91.5913 2.74368   3
   3  -1   0 7.23891 0.88811   1
  -3   1   0 9.84127 0.58989   2
  -3   1   0 9.99480 0.97499   4
  -3   1   0 9.48431 0.81251   3
   2  -1   0 341.778 7.01083   1
  -2   1   0 339.415 6.75480   3
  -2   1   0 332.651 6.96875   4
   1  -1   0 326.180 6.53668   1
  -1   1   0 331.340 6.49916   4
  -1   1   0 334.975 6.38868   3
   0  -1   0 163.924 3.30867   2
  -1  -1   0 34.5860 1.09066   2
  -1  -1   0 33.9680 1.06801   5
   1   1   0 32.1120 1.12157   1
   1   1   0 32.3522 0.94088   3
  -2  -1   0 1657.30 31.8717   5
  -2  -1   0 1643.36 30.4692   2
   2   1   0 1591.35 31.1733   1
   2   1   0 1667.36 29.9704   3
  -3  -1   0 50.0369 1.61105   5
  -3  -1   0 51.3830 1.77762   2
  -3  -1   0 47.2427 1.86963   4
   3   1   0 45.8889 1.94450   1
   3   1   0 50.6087 1.58294   3
  -4  -1   0 68.1254 2.59332   4
  -4  -1   0 65.9913 2.09462   5
  -4  -1   0 69.2917 2.40334   2
   4   1   0 66.5836 2.13280   3
   4   1   0 70.6483 2.74578   1
  -5  -1   0 51.7172 2.11616   3
  -5  -1   0 47.5197 2.48182   4
  -5  -1   0 49.1537 2.17035   2
   5   1   0 42.3125 2.53423   1
  -6  -1   0 0.66397 0.83374   2
  -6  -1   0 0.31066 0.84705   4
   6   1   0 -1.3335 1.05767   1
  -7  -1   0 6.10116 1.71118   4
   7   1   0 11.9630 2.16556   1
  -8  -1   0 -1.3307 1.64333   4
   8   1   0 3.75981 1.66832   1
   9  -2   0 6.55664 2.34013   1
  -9   2   0 6.41436 1.77790   4
   8  -2   0 -0.7432 1.21704   1
  -8   2   0 0.32937 1.48925   4
   7  -2   0 0.79729 1.08277   1
  -7   2   0 -0.9434 0.97368   3
  -7   2   0 -0.6459 0.78914   4
   6  -2   0 2.44207 1.30707   1
  -6   2   0 3.59550 1.04194   3
  -6   2   0 1.53765 1.17058   4
   5  -2   0 0.78111 0.91222   1
  -5   2   0 1.39628 0.74519   4
  -5   2   0 0.44474 0.74512   3
   4  -2   0 129.002 3.85545   1
  -4   2   0 135.605 3.88955   4
  -4   2   0 132.771 2.86555   2
  -4   2   0 131.772 3.64651   3
  -3   2   0 0.36507 0.38617   4
  -3   2   0 -0.0973 0.48535   3
   2  -2   0 589.378 11.8731   1
  -2   2   0 601.944 11.8129   4
  -2   2   0 601.963 11.6157   3
   1  -2   0 28.4082 0.90204   2
   1  -2   0 28.1998 1.03412   1
  -1   2   0 29.2322 0.92617   4
  -1   2   0 28.5215 1.03569   3
   0  -2   0 835.059 15.9130   2
   0  -2   0 845.859 16.1672   1
   0   2   0 852.364 15.7188   3
  -1  -2   0 262.117 5.57665   2
   1   2   0 264.475 5.61096   1
   1   2   0 257.553 5.24596   3
  -2  -2   0 648.203 12.8030   2
  -2  -2   0 649.537 13.2431   5
   2   2   0 635.769 13.0414   1
   2   2   0 650.845 12.2926   3
  -3  -2   0 1004.53 20.3376   5
  -3  -2   0 998.344 19.6614   2
  -3  -2   0 1040.75 19.9722   4
   3   2   0 1013.86 19.0172   3
   3   2   0 996.661 20.1854   1
  -4  -2   0 21.7898 1.58457   4
  -4  -2   0 25.7704 1.62617   2
  -4  -2   0 21.3815 1.37419   5
   4   2   0 21.2007 1.29378   3
   4   2   0 26.0630 1.84520   1
  -5  -2   0 100.195 3.49678   2
  -5  -2   0 98.0755 3.63891   4
   5   2   0 103.818 3.94389   1
  -6  -2   0 -0.5396 1.10249   4
  -6  -2   0 -0.7951 0.92130   2
   6   2   0 1.21072 1.10385   1
  -7  -2   0 7.75059 1.86698   4
   7   2   0 6.01144 1.94783   1
   8   2   0 -1.1606 1.93328   1
   9  -3   0 16.3422 2.53038   1
  -9   3   0 14.5054 2.49848   4
   8  -3   0 -1.4330 1.48992   1
  -8   3   0 0.14357 1.09588   4
  -8   3   0 -0.3677 1.12879   3
   7  -3   0 3.21476 1.50888   1
  -7   3   0 3.95380 1.43130   4
  -7   3   0 2.47831 1.18178   3
   6  -3   0 64.6894 2.98699   1
  -6   3   0 64.0046 2.92551   4
  -6   3   0 66.9247 2.92111   3
   5  -3   0 12.5056 1.41130   1
  -5   3   0 11.8533 1.38508   3
  -5   3   0 10.0557 1.27699   4
   4  -3   0 67.1658 2.48588   1
  -4   3   0 63.0007 2.45213   4
  -4   3   0 64.4737 2.36811   3
   3  -3   0 0.18196 0.55117   1
   3  -3   0 1.02900 0.29438   2
  -3   3   0 0.55968 0.56673   3
  -3   3   0 1.35237 0.55435   4
   2  -3   0 177.444 3.88601   2
   2  -3   0 187.509 4.36555   1
  -2   3   0 190.561 4.38638   3
  -2   3   0 187.503 4.21048   4
   1  -3   0 222.058 4.95321   1
   1  -3   0 222.569 4.78521   2
  -1   3   0 223.691 4.63250   4
  -1   3   0 229.824 4.95436   3
   0  -3   0 54.4572 1.79017   2
   0   3   0 52.8571 1.35133   4
   0   3   0 52.8022 1.66184   3
  -1  -3   0 3.29549 0.71157   2
   1   3   0 6.10856 0.67272   3
   1   3   0 4.71729 0.70802   1
  -2  -3   0 185.057 4.71310   2
  -2  -3   0 187.906 4.76533   5
   2   3   0 184.333 4.72004   1
   2   3   0 189.708 4.24270   3
  -3  -3   0 -0.0063 0.54492   4
  -3  -3   0 -0.4032 0.49631   2
  -3  -3   0 -0.2256 0.66213   5
   3   3   0 -0.3224 0.51207   1
   3   3   0 0.71787 0.58544   3
  -4  -3   0 0.40105 0.66731   2
  -4  -3   0 0.84411 0.78032   4
  -4  -3   0 0.19164 0.78296   5
   4   3   0 0.59001 0.98886   1
  -5  -3   0 2.22463 1.08216   2
  -5  -3   0 1.12252 1.01659   4
   5   3   0 2.09589 1.28809   1
  -6  -3   0 -1.2488 1.08311   2
   6   3   0 -3.3288 1.21522   1
   7   3   0 0.61216 1.81119   1
   9  -4   0 -1.0026 1.32710   1
  -9   4   0 -0.2898 1.45935   3
  -9   4   0 1.10502 1.84095   4
   8  -4   0 14.6881 2.36781   1
  -8   4   0 16.8666 2.11341   3
  -8   4   0 18.7583 2.55210   4
   7  -4   0 11.5502 1.93891   1
  -7   4   0 12.0321 1.77866   4
  -7   4   0 10.6173 1.71214   3
   6  -4   0 38.1963 2.53412   1
  -6   4   0 33.6408 2.14271   4
  -6   4   0 32.9068 2.05545   3
   5  -4   0 22.2538 1.95399   1
  -5   4   0 18.5887 1.77305   4
  -5   4   0 21.1633 1.84367   3
   4  -4   0 254.572 6.32250   1
  -4   4   0 252.268 6.28564   3
  -4   4   0 258.248 6.23927   4
   3  -4   0 49.4408 1.51644   2
   3  -4   0 52.1964 2.08196   1
  -3   4   0 51.0679 1.96468   4
  -3   4   0 53.0091 2.17682   3
   2  -4   0 29.8772 1.25416   2
   2  -4   0 29.6923 1.43984   1
  -2   4   0 30.6942 1.27616   4
  -2   4   0 31.9313 1.49671   3
   1  -4   0 427.085 8.96912   1
   1  -4   0 418.647 8.74356   2
  -1   4   0 419.513 8.81431   3
  -1   4   0 434.404 8.44890   4
   0  -4   0 147.447 3.90024   2
   0   4   0 150.961 3.74275   3
   0   4   0 147.926 3.85462   1
   0   4   0 150.951 3.26801   4
  -1  -4   0 39.0852 1.85314   2
   1   4   0 37.3116 1.57208   3
   1   4   0 36.0435 1.70289   1
  -2  -4   0 15.8353 1.47538   5
  -2  -4   0 15.1754 1.42432   2
   2   4   0 16.3959 1.16661   3
   2   4   0 14.9034 1.41763   1
  -3  -4   0 6.49210 1.11496   2
  -3  -4   0 6.22243 1.11486   5
   3   4   0 6.79358 1.20041   1
  -4  -4   0 13.4641 1.61358   2
   4   4   0 11.7656 1.73501   1
  -5  -4   0 34.3407 2.60089   2
   5   4   0 29.0062 2.68940   1
  -6  -4   0 3.06781 1.55890   2
   6   4   0 0.72131 1.66123   1
   9  -5   0 9.48986 2.46202   1
  -9   5   0 3.41897 2.14968   4
  -9   5   0 6.08103 1.63018   3
   8  -5   0 10.0590 2.19031   1
  -8   5   0 8.25989 1.83245   3
  -8   5   0 13.1127 2.05997   4
   7  -5   0 5.19544 1.39220   1
  -7   5   0 3.68905 1.20420   3
  -7   5   0 4.01617 1.51920   4
  -6   5   0 69.7137 3.20406   4
  -6   5   0 62.4167 3.13989   3
   5  -5   0 76.1791 3.04435   1
  -5   5   0 70.4341 3.14651   3
   4  -5   0 53.5733 2.49194   1
  -4   5   0 54.9289 2.31318   4
  -4   5   0 56.9085 2.61595   3
   3  -5   0 5.56871 1.02989   1
   3  -5   0 5.02248 0.71165   2
  -3   5   0 5.78268 1.07809   3
  -3   5   0 6.12052 0.84240   4
   2  -5   0 111.361 3.33144   1
   2  -5   0 112.042 3.10032   2
  -2   5   0 107.136 3.39932   3
  -2   5   0 109.159 2.87103   4
   1  -5   0 7.39647 1.00827   1
   1  -5   0 9.64890 1.06729   2
  -1   5   0 7.78387 1.05120   3
   0  -5   0 4.03306 0.93772   2
   0   5   0 4.68416 0.88245   1
   0   5   0 3.60201 0.79393   3
  -1  -5   0 152.875 4.51279   2
   1   5   0 156.097 4.39166   1
   1   5   0 151.853 4.04600   3
  -2  -5   0 156.437 4.92239   5
  -2  -5   0 163.877 4.83066   2
   2   5   0 168.071 4.82643   1
  -3  -5   0 5.18794 1.31308   5
  -3  -5   0 4.92939 1.32013   2
   3   5   0 4.48956 1.22721   1
  -4  -5   0 6.77146 1.62036   2
   4   5   0 7.48988 1.63002   1
  -5  -5   0 7.10274 1.58090   2
   5   5   0 3.20065 1.64780   1
  -6  -5   0 -0.2834 1.54652   2
   6   5   0 0.56719 1.86440   1
   8  -6   0 4.76345 1.92156   1
  -8   6   0 8.09361 1.90374   3
  -8   6   0 9.11335 2.19303   4
   7  -6   0 5.28318 1.73502   1
  -7   6   0 1.84268 1.17993   4
  -7   6   0 1.78331 1.09211   3
   6  -6   0 1.11709 1.30507   1
  -6   6   0 3.98878 1.37082   3
  -6   6   0 1.60393 1.14783   4
   5  -6   0 78.7511 3.38050   1
  -5   6   0 68.8476 3.16138   3
  -5   6   0 74.1746 3.06504   4
   4  -6   0 62.3160 2.84682   1
  -4   6   0 63.7230 2.63895   4
  -4   6   0 59.7506 2.96165   3
   3  -6   0 -1.2455 0.88491   1
  -3   6   0 -0.5988 0.90919   3
   2  -6   0 3.03241 0.97898   1
   2  -6   0 3.90920 0.90919   2
  -2   6   0 7.65096 1.15836   3
   1  -6   0 38.0159 2.09749   2
   1  -6   0 36.0730 2.09694   1
  -1   6   0 40.1140 2.12784   3
   0  -6   0 3.30366 0.91662   2
   0   6   0 3.13461 0.94088   3
   0   6   0 2.87749 0.96158   1
  -1  -6   0 283.392 7.30819   2
   1   6   0 290.296 7.24896   1
   1   6   0 287.167 6.80091   3
  -2  -6   0 102.806 4.07668   5
  -2  -6   0 103.892 4.03776   2
   2   6   0 103.543 3.92895   1
  -3  -6   0 36.9027 2.78075   2
  -3  -6   0 38.0200 2.67944   5
   3   6   0 38.3032 2.61096   1
  -4  -6   0 23.2888 2.43698   2
  -5  -6   0 2.48663 1.81826   2
   8  -7   0 10.4936 2.35341   1
  -8   7   0 15.1334 2.46322   4
  -8   7   0 11.0305 2.29487   3
   7  -7   0 -1.2657 1.46188   1
  -7   7   0 2.20540 1.55687   3
  -7   7   0 0.83812 1.36606   4
   6  -7   0 38.9542 2.94373   1
  -6   7   0 39.1216 2.97803   3
   5  -7   0 4.27919 1.44641   1
  -5   7   0 2.89707 1.40757   3
   4  -7   0 65.9503 3.11838   1
  -4   7   0 67.7733 3.35858   3
   3  -7   0 52.5032 2.65432   1
  -3   7   0 49.0227 2.57935   3
   2  -7   0 8.98440 1.51653   1
   2  -7   0 7.97186 1.27064   2
  -2   7   0 9.19005 1.48663   3
   1  -7   0 171.572 5.04843   2
  -1   7   0 171.377 5.05058   1
  -1   7   0 164.863 4.96582   3
   0  -7   0 0.82588 1.05291   2
   0   7   0 0.44325 1.06895   1
   0   7   0 1.37332 0.93564   3
  -1  -7   0 45.3315 2.98505   5
  -1  -7   0 49.7706 2.92711   2
  -2  -7   0 10.4282 1.85956   5
  -2  -7   0 6.26772 1.69250   2
  -3  -7   0 12.7159 2.19663   2
  -3  -7   0 6.57534 1.89088   5
  -4  -7   0 39.1851 3.42143   2
   7  -8   0 0.34059 1.78658   1
  -7   8   0 2.71061 1.81076   3
   6  -8   0 39.2419 3.14939   1
  -6   8   0 35.6713 3.16346   3
   5  -8   0 22.9884 2.48232   1
  -5   8   0 24.5405 2.68024   3
   4  -8   0 -0.9013 1.03961   1
  -4   8   0 0.78789 1.02901   3
   3  -8   0 35.9887 2.47509   1
  -3   8   0 35.9586 2.65574   3
   2  -8   0 2.57695 1.12950   2
  -2   8   0 0.35610 1.17590   3
   1  -8   0 1.79331 1.22543   2
  -1   8   0 2.50713 1.26103   3
   0  -8   0 1.99938 1.33324   2
  -1  -8   0 3.18245 1.53351   5
  -1  -8   0 3.24659 1.54928   2
  -2  -8   0 -1.2802 1.36894   5
  -2  -8   0 -2.2489 1.44421   2
  -3  -8   0 3.55629 1.63808   2
  -3  -8   0 2.58852 1.96107   5
  -6   9   0 10.6061 2.34452   3
  -5   9   0 9.91798 2.19367   3
  -4   9   0 -0.3573 1.06368   3
  -3   9   0 1.10150 1.45434   3
  -2   9   0 1.35162 1.39924   3
   1  -9   0 0.78778 1.36696   2
   0  -9   0 0.41031 1.50515   2
   0  -9   0 -0.8446 1.22932   5
  -1  -9   0 5.85396 2.00235   5
  -1  -9   0 3.50339 1.88939   2
  -4  10   0 2.17321 1.84473   3
  -3  10   0 29.6329 3.12540   3
   2 -10   1 8.28006 2.03171   5
  -3  10  -1 8.26682 2.06623   3
  -4  10  -1 3.47407 1.93117   3
  -1  -9   1 0.35317 1.75948   2
  -1  -9   1 -0.1617 1.52638   5
   0  -9   1 39.5304 3.58734   5
   0  -9   1 33.7053 3.01974   2
   1  -9   1 62.5356 3.66265   5
   1  -9   1 55.4253 3.29208   2
  -2   9  -1 12.2083 1.96721   3
  -3   9  -1 63.0945 3.56605   3
  -4   9  -1 2.99664 1.70753   3
  -5   9  -1 4.71049 1.56015   3
   5  -9   1 3.71209 1.77546   1
  -6   9  -1 0.55129 1.36990   3
   6  -9   1 -0.6184 1.68028   1
  -3  -8   1 0.87689 1.64640   5
  -3  -8   1 -0.0142 1.90993   2
  -2  -8   1 0.90403 1.51359   5
  -2  -8   1 1.42745 1.68037   2
  -1  -8   1 7.94839 1.95398   5
  -1  -8   1 10.4699 1.77394   2
   0  -8   1 9.56537 1.95652   5
   0  -8   1 12.4548 1.85729   2
  -1   8  -1 3.54103 1.30392   1
  -1   8  -1 3.60058 1.23227   3
   1  -8   1 2.85563 1.20867   2
  -2   8  -1 7.71126 1.56462   3
   2  -8   1 6.16961 1.52733   1
  -3   8  -1 2.02776 1.28378   3
   3  -8   1 -0.4814 1.20750   1
  -4   8  -1 2.71463 1.21010   3
   4  -8   1 3.38183 1.38908   1
  -5   8  -1 21.7949 2.50901   3
   5  -8   1 21.3292 2.48636   1
  -6   8  -1 12.0592 1.92950   3
   6  -8   1 15.0951 2.32830   1
  -7   8  -1 13.3878 2.12948   3
   7  -8   1 16.7325 2.59858   1
  -4  -7   1 10.6494 2.30893   2
  -3  -7   1 9.89612 1.90776   5
  -3  -7   1 8.39448 1.92559   2
   2   7  -1 4.44918 1.42471   1
  -2  -7   1 5.04123 1.58818   5
  -2  -7   1 4.91782 1.60952   2
   1   7  -1 3.48243 1.24017   1
  -1  -7   1 0.91801 1.18481   2
  -1  -7   1 4.02201 1.42564   5
   0   7  -1 36.0329 2.20705   3
   0   7  -1 32.5340 2.25619   1
   0  -7   1 32.8367 2.08855   2
  -1   7  -1 84.7820 3.27190   3
  -1   7  -1 83.5594 3.37297   1
   1  -7   1 88.5683 3.30545   2
  -2   7  -1 24.4229 1.81314   3
   2  -7   1 23.0628 1.82801   2
   2  -7   1 24.7206 2.11822   1
  -3   7  -1 48.5089 2.71865   3
   3  -7   1 47.7017 2.62269   1
  -4   7  -1 11.7924 1.83810   3
   4  -7   1 11.5783 1.72081   1
  -5   7  -1 26.8559 2.54654   3
   5  -7   1 32.0426 2.58462   1
  -6   7  -1 6.40154 1.47549   3
   6  -7   1 7.68779 1.90538   1
  -7   7  -1 3.84926 1.60625   4
  -7   7  -1 1.69766 1.28762   3
   7  -7   1 -0.8994 1.44363   1
  -8   7  -1 -1.0112 1.55424   3
  -8   7  -1 0.22829 1.54923   4
   8  -7   1 0.92388 1.96033   1
   5   6  -1 55.7088 3.90348   1
  -5  -6   1 57.5190 3.52595   2
   4   6  -1 2.53336 1.52086   1
  -4  -6   1 0.37577 1.43481   2
   3   6  -1 120.424 4.50636   1
  -3  -6   1 120.836 4.60051   2
  -3  -6   1 115.660 4.51105   5
   2   6  -1 2.78086 1.17887   1
  -2  -6   1 1.26881 1.10693   5
  -2  -6   1 1.54279 1.16606   2
   1   6  -1 1.28738 0.95461   1
  -1  -6   1 1.66801 1.12988   2
  -1  -6   1 3.89812 1.20202   5
   0   6  -1 32.4778 2.00352   1
   0   6  -1 35.7823 1.88028   3
   0  -6   1 33.7509 2.09853   2
  -1   6  -1 11.4192 1.34462   3
   1  -6   1 13.4702 1.37760   2
   1  -6   1 11.1895 1.36084   1
  -2   6  -1 19.7570 1.73590   3
   2  -6   1 20.8126 1.65428   1
   2  -6   1 18.4827 1.36694   2
  -3   6  -1 0.63434 0.70265   3
   3  -6   1 -0.5417 0.81103   1
  -4   6  -1 76.2928 2.80586   4
  -4   6  -1 69.9657 3.02125   3
   4  -6   1 69.8863 2.96238   1
  -5   6  -1 5.06635 1.36790   3
  -5   6  -1 5.66900 1.22894   4
   5  -6   1 6.21223 1.44803   1
  -6   6  -1 2.25096 1.30799   3
  -6   6  -1 0.62558 1.16682   4
   6  -6   1 1.84424 1.33611   1
  -7   6  -1 5.80194 1.46118   3
  -7   6  -1 4.92805 1.42734   4
   7  -6   1 6.33896 1.83916   1
  -8   6  -1 -0.4049 1.02043   3
  -8   6  -1 0.40132 1.24204   4
   8  -6   1 -0.3728 1.67216   1
   6   5  -1 13.6642 2.51248   1
  -6  -5   1 9.28557 2.12749   2
   5   5  -1 44.0548 3.33054   1
  -5  -5   1 52.8765 3.36324   2
   4   5  -1 2.56172 1.29416   1
  -4  -5   1 1.00507 1.09011   5
  -4  -5   1 1.89788 1.05264   2
   3   5  -1 261.641 7.12833   1
  -3  -5   1 269.280 7.14708   2
  -3  -5   1 271.993 7.21669   5
   2   5  -1 13.8804 1.56787   1
  -2  -5   1 15.0089 1.63053   5
  -2  -5   1 15.8742 1.73983   2
   1   5  -1 296.909 6.49058   3
   1   5  -1 275.418 7.01208   1
  -1  -5   1 301.664 7.10427   2
  -1  -5   1 294.712 7.44244   5
   0   5  -1 28.4767 1.47401   3
   0   5  -1 23.1631 1.53250   1
   0  -5   1 26.7993 1.62488   2
  -1   5  -1 0.14660 0.59268   3
   1  -5   1 0.56152 0.64961   1
   1  -5   1 0.99681 0.62198   2
  -2   5  -1 47.9018 1.60791   4
  -2   5  -1 47.0087 2.08020   3
   2  -5   1 46.1883 1.73762   2
   2  -5   1 47.0702 2.05260   1
  -3   5  -1 8.28229 1.18195   3
  -3   5  -1 5.40310 0.79435   4
   3  -5   1 5.58910 0.69537   2
   3  -5   1 6.21152 1.06107   1
  -4   5  -1 27.4626 1.63550   4
  -4   5  -1 25.7487 1.72190   3
   4  -5   1 28.2660 1.93776   1
  -5   5  -1 39.7555 2.23792   4
  -5   5  -1 41.6654 2.27708   3
   5  -5   1 39.2457 2.40478   1
  -6   5  -1 17.8229 1.94001   4
  -6   5  -1 15.2217 1.88778   3
   6  -5   1 16.0776 1.84392   1
  -7   5  -1 -0.4911 0.84003   3
  -7   5  -1 -0.8331 1.23408   4
   7  -5   1 0.20136 1.39438   1
  -8   5  -1 0.07388 1.51235   4
  -8   5  -1 2.47830 1.50943   3
   8  -5   1 1.08741 1.62910   1
  -9   5  -1 -1.4699 1.26148   4
  -9   5  -1 1.84799 1.63137   3
   9  -5   1 2.85981 2.10269   1
   6   4  -1 -1.7197 1.43042   1
  -6  -4   1 -0.6938 1.31682   2
   5   4  -1 -0.2194 0.96056   1
  -5  -4   1 -1.6088 1.09758   2
   4   4  -1 -1.1577 1.03195   1
  -4  -4   1 -1.0569 0.78308   5
  -4  -4   1 -0.8934 0.63309   2
   3   4  -1 0.18390 0.86893   1
  -3  -4   1 -0.0063 0.75037   5
  -3  -4   1 0.83169 0.89836   2
   2   4  -1 88.0212 3.06789   1
   2   4  -1 85.9111 2.47645   3
  -2  -4   1 89.2754 2.99981   2
  -2  -4   1 88.4800 3.08155   5
   1   4  -1 6.71021 0.77144   3
   1   4  -1 7.31138 0.98156   1
  -1  -4   1 5.84004 0.91906   2
  -1  -4   1 5.91748 0.88816   5
   0   4  -1 241.418 5.29916   3
   0   4  -1 237.381 5.63126   1
   0  -4   1 240.098 5.53115   2
  -1   4  -1 31.0388 0.99693   4
  -1   4  -1 29.0612 1.32794   3
   1  -4   1 28.4963 1.30462   2
   1  -4   1 30.4651 1.45123   1
  -2   4  -1 33.2876 1.29043   4
  -2   4  -1 38.6922 1.71225   3
   2  -4   1 37.5465 1.65275   1
   2  -4   1 37.9393 1.34373   2
  -3   4  -1 30.4172 1.46114   4
  -3   4  -1 33.2886 1.63197   3
   3  -4   1 32.5958 1.60482   1
   3  -4   1 31.8627 1.07134   2
  -4   4  -1 40.4049 1.95815   4
  -4   4  -1 40.5212 2.09456   3
   4  -4   1 42.4958 2.11434   1
  -5   4  -1 14.1873 1.50438   3
  -5   4  -1 16.4470 1.67957   4
   5  -4   1 14.7382 1.66511   1
  -6   4  -1 12.1731 1.65706   3
  -6   4  -1 15.5923 1.88034   4
   6  -4   1 15.1334 1.92924   1
  -7   4  -1 -0.1210 0.82861   3
  -7   4  -1 0.62541 0.95185   4
   7  -4   1 1.52601 1.38152   1
  -8   4  -1 -0.3339 1.19203   3
  -8   4  -1 1.90654 1.25975   4
   8  -4   1 -1.8852 1.47662   1
  -9   4  -1 -0.1701 1.41212   3
  -9   4  -1 1.89607 1.92035   4
   9  -4   1 1.96152 2.01117   1
   7   3  -1 3.75478 1.92772   1
   6   3  -1 -0.7985 1.26884   1
  -6  -3   1 -0.6320 1.05392   2
   5   3  -1 69.1240 3.37912   1
  -5  -3   1 67.0251 3.08687   2
  -5  -3   1 70.1006 3.09475   4
   4   3  -1 13.0326 1.62562   1
  -4  -3   1 13.9548 1.40386   5
  -4  -3   1 11.7308 1.35054   4
  -4  -3   1 10.6539 1.41958   2
   3   3  -1 7.60074 0.77750   3
   3   3  -1 6.17638 1.10227   1
  -3  -3   1 7.87722 1.12997   2
  -3  -3   1 7.78835 1.03711   5
  -3  -3   1 8.98098 1.01170   4
   2   3  -1 91.6915 2.35674   3
   2   3  -1 92.4716 2.94345   1
  -2  -3   1 91.8256 2.87912   5
  -2  -3   1 91.1257 2.47598   4
  -2  -3   1 97.4233 2.89035   2
   1   3  -1 322.663 6.64253   3
   1   3  -1 342.068 7.29254   1
  -1  -3   1 329.952 7.47309   5
  -1  -3   1 336.799 7.15727   2
   0   3  -1 90.4359 2.31273   3
   0  -3   1 91.4445 2.53250   1
   0  -3   1 89.8116 2.44638   2
  -1   3  -1 85.6890 2.34820   3
  -1   3  -1 86.7082 1.99961   4
   1  -3   1 87.2776 2.42365   1
   1  -3   1 85.7706 2.18622   2
  -2   3  -1 115.234 2.82458   4
  -2   3  -1 115.110 3.03327   3
   2  -3   1 110.400 3.03593   1
   2  -3   1 112.770 2.48417   2
  -3   3  -1 8.20992 0.90126   4
  -3   3  -1 7.38322 0.93035   3
   3  -3   1 9.28746 1.01917   1
  -4   3  -1 241.613 5.93262   3
  -4   3  -1 246.707 6.04295   4
   4  -3   1 248.698 6.15481   1
  -5   3  -1 126.166 4.04459   4
  -5   3  -1 129.917 3.94507   3
   5  -3   1 128.844 4.11259   1
  -6   3  -1 2.36706 1.08677   3
  -6   3  -1 1.25655 1.08179   4
   6  -3   1 2.53726 1.04692   1
  -7   3  -1 28.0536 2.64997   4
  -7   3  -1 27.6222 2.05991   3
   7  -3   1 23.6916 2.52668   1
  -8   3  -1 1.76031 1.36703   3
  -8   3  -1 2.18652 1.27497   4
   8  -3   1 2.56780 1.49021   1
  -9   3  -1 2.98196 1.84466   4
   9  -3   1 -0.5316 1.89259   1
   8   2  -1 1.15436 1.98302   1
   7   2  -1 -1.6630 1.48534   1
  -7  -2   1 1.75762 1.48457   4
   6   2  -1 -2.1844 1.12435   1
  -6  -2   1 -0.3702 0.96522   2
  -6  -2   1 0.23095 0.82285   4
   5   2  -1 40.2432 2.54493   1
  -5  -2   1 36.3318 2.21305   4
  -5  -2   1 41.1790 2.22110   2
   4   2  -1 41.7013 2.30513   1
   4   2  -1 44.9505 1.68689   3
  -4  -2   1 43.0515 2.03867   4
  -4  -2   1 45.6945 1.94014   5
  -4  -2   1 44.8334 2.09701   2
   3   2  -1 76.1091 2.71046   1
   3   2  -1 77.6195 2.06223   3
  -3  -2   1 78.8117 2.45547   5
  -3  -2   1 73.9627 2.45792   2
  -3  -2   1 77.1028 2.46620   4
   2   2  -1 31.3116 1.46816   1
   2   2  -1 30.1861 1.01443   3
  -2  -2   1 30.9118 1.38289   2
  -2  -2   1 30.2242 1.22663   4
  -2  -2   1 29.3067 1.31344   5
   1   2  -1 163.525 3.32671   3
   1   2  -1 161.476 3.78440   1
  -1  -2   1 158.348 3.84631   5
  -1  -2   1 163.312 3.72006   2
   0   2  -1 536.135 10.1308   3
   0  -2   1 541.523 10.3294   2
   0  -2   1 533.776 10.5884   1
  -1   2  -1 157.756 3.48909   3
  -1   2  -1 163.338 3.34934   4
   1  -2   1 153.788 3.57184   1
   1  -2   1 161.002 3.25168   2
  -2   2  -1 73.9480 2.12725   3
  -2   2  -1 72.9878 2.04570   4
   2  -2   1 74.5712 2.17710   1
  -3   2  -1 18.7223 1.14495   4
  -3   2  -1 17.0236 1.02987   3
   3  -2   1 14.9931 1.10822   1
  -4   2  -1 609.377 12.3855   3
  -4   2  -1 606.890 11.3801   2
  -4   2  -1 604.639 12.7730   4
   4  -2   1 614.360 12.8611   1
  -5   2  -1 9.48947 1.22549   4
  -5   2  -1 9.79216 1.28310   3
   5  -2   1 9.05613 1.38473   1
  -6   2  -1 -0.9492 0.92942   3
  -6   2  -1 0.12827 0.98327   4
   6  -2   1 -0.4289 1.14074   1
  -7   2  -1 8.61632 1.53010   3
  -7   2  -1 7.72713 1.53842   4
   7  -2   1 8.44746 1.81966   1
  -8   2  -1 2.09721 1.63706   4
   8  -2   1 1.21114 1.33976   1
  -9   2  -1 3.22764 2.08059   4
   9  -2   1 -1.7519 1.83704   1
   8   1  -1 5.11697 2.11331   1
  -8  -1   1 2.70582 1.74704   4
   7   1  -1 13.8886 2.29323   1
  -7  -1   1 8.36933 1.82510   4
   6   1  -1 15.2675 2.00670   1
  -6  -1   1 19.2669 1.71460   2
  -6  -1   1 20.5374 2.16949   4
   5   1  -1 4.70773 1.11758   1
  -5  -1   1 7.24747 1.31530   4
  -5  -1   1 7.06572 1.07102   2
   4   1  -1 6.46213 1.02924   1
  -4  -1   1 4.77506 0.74555   5
  -4  -1   1 5.63513 0.75215   3
  -4  -1   1 6.47958 1.04604   4
  -4  -1   1 7.47131 0.96600   2
   3   1  -1 547.521 10.6500   3
   3   1  -1 558.767 11.6239   1
  -3  -1   1 558.003 11.1399   2
  -3  -1   1 552.338 11.4111   4
  -3  -1   1 567.416 11.4709   5
   2   1  -1 93.7132 2.11176   3
   2   1  -1 95.4116 2.62977   1
  -2  -1   1 97.1058 2.44754   2
  -2  -1   1 96.9468 2.48436   4
  -2  -1   1 94.7932 2.44155   5
   1   1  -1 409.151 8.12331   1
  -1  -1   1 407.654 8.26637   5
  -1  -1   1 400.864 7.90051   2
  -1  -1   1 412.253 7.89344   4
   0  -1   1 4441.73 82.9902   1
   0  -1   1 4333.95 85.6610   5
  -1   1  -1 4.77823 0.40725   3
   1  -1   1 3.39585 0.37583   1
  -2   1  -1 5264.38 99.3537   3
  -2   1  -1 5304.22 102.529   4
   2  -1   1 5516.47 102.184   1
  -3   1  -1 90.3737 2.49336   3
  -3   1  -1 86.5466 2.01381   2
  -3   1  -1 88.7940 2.62892   4
   3  -1   1 84.9242 2.65009   1
  -4   1  -1 447.895 8.89708   2
  -4   1  -1 453.510 9.44589   3
  -4   1  -1 451.960 9.95450   4
   4  -1   1 460.488 9.99611   1
  -5   1  -1 54.9470 2.58915   4
  -5   1  -1 54.0254 2.18759   3
   5  -1   1 56.4596 2.54083   1
  -6   1  -1 2.75071 1.00517   3
  -6   1  -1 0.47362 1.08545   4
   6  -1   1 2.48202 1.30873   1
  -7   1  -1 5.57365 1.36732   3
  -7   1  -1 7.23297 1.73158   4
   7  -1   1 10.9261 1.80175   1
  -8   1  -1 8.93130 2.15800   4
   8  -1   1 10.5270 2.35594   1
   8   0  -1 1.08614 1.41242   1
  -8   0   1 -0.7795 1.57534   4
   7   0  -1 -0.3734 1.38293   1
  -7   0   1 2.31375 1.43105   4
   6   0  -1 68.8195 3.32517   1
  -6   0   1 58.6337 2.92727   4
   5   0  -1 81.9973 3.26773   1
  -5   0   1 75.5711 3.06646   4
  -5   0   1 84.1379 2.62473   2
  -5   0   1 77.3688 2.64528   3
   4   0  -1 247.600 6.16979   1
  -4   0   1 255.957 5.58903   5
  -4   0   1 247.713 5.55425   2
  -4   0   1 254.818 6.11217   4
  -4   0   1 239.389 5.47227   3
   3   0  -1 1.01571 0.57723   1
  -3   0   1 0.58321 0.34995   5
  -3   0   1 2.09254 0.46209   3
  -3   0   1 0.34519 0.51072   4
  -3   0   1 1.07886 0.41629   2
   2   0  -1 1532.23 28.8776   1
  -2   0   1 1527.57 28.8023   4
  -2   0   1 1511.48 29.4858   5
  -2   0   1 1482.90 28.0534   2
  -2   0   1 1535.84 27.7732   3
   1   0  -1 697.247 13.6267   1
  -1   0   1 721.582 13.3856   2
  -1   0   1 704.462 13.6021   4
   1   0   1 110.659 2.35621   3
   1   0   1 110.037 2.45535   1
  -2   0  -1 408.767 8.06473   2
   2   0   1 424.019 8.53657   1
   2   0   1 421.205 8.14216   3
  -3   0  -1 92.5421 2.36541   2
  -3   0  -1 89.4404 2.77043   4
  -3   0  -1 92.4297 2.15212   5
   3   0   1 91.3707 2.74192   1
   3   0   1 97.5291 2.51420   3
  -4   0  -1 19.9038 0.87426   5
  -4   0  -1 21.1668 1.18126   2
  -4   0  -1 18.4424 1.20769   3
  -4   0  -1 16.0765 1.50877   4
   4   0   1 19.3910 1.62998   1
  -5   0  -1 100.646 3.64648   4
  -5   0  -1 114.183 3.41097   3
  -5   0  -1 113.570 3.17977   2
   5   0   1 115.372 3.93209   1
  -6   0  -1 73.1484 2.89644   3
  -6   0  -1 69.6627 3.34317   4
   6   0   1 74.2566 3.51914   1
  -7   0  -1 4.22922 1.57190   4
   7   0   1 5.44888 1.73230   1
  -8   0  -1 1.42592 1.35415   4
   8   0   1 0.72812 1.36424   1
   9  -1  -1 0.34674 1.56655   1
  -9   1   1 -0.1299 1.72763   4
   8  -1  -1 2.22315 1.88257   1
  -8   1   1 0.47048 1.17132   4
   7  -1  -1 5.23497 1.64275   1
  -7   1   1 3.52952 1.44580   4
   6  -1  -1 127.271 4.59597   1
  -6   1   1 132.428 3.97999   3
  -6   1   1 133.351 4.55657   4
   5  -1  -1 32.2839 1.91275   1
  -5   1   1 29.6890 1.66188   3
  -5   1   1 31.7794 2.01785   4
   4  -1  -1 330.539 7.54154   1
  -4   1   1 322.882 6.66263   2
  -4   1   1 321.780 7.47784   4
  -4   1   1 323.821 6.99279   3
   3  -1  -1 62.8945 2.14354   1
  -3   1   1 65.6644 1.96529   3
  -3   1   1 64.8901 2.18056   4
  -3   1   1 67.0174 1.71603   2
   2  -1  -1 927.608 18.0250   1
  -2   1   1 932.853 17.3191   2
  -2   1   1 933.610 18.0505   4
  -2   1   1 952.978 17.4749   3
   1  -1  -1 1309.72 24.2382   1
  -1   1   1 1280.96 24.2781   4
  -1   1   1 1290.68 23.6645   3
   0  -1  -1 792.090 14.9277   2
   0   1   1 810.589 14.7847   3
  -1  -1  -1 1268.12 23.1991   2
   1   1   1 1254.34 23.5493   1
   1   1   1 1220.67 22.8762   3
  -2  -1  -1 2.28166 0.39952   5
  -2  -1  -1 2.01397 0.43319   2
   2   1   1 2.75405 0.49794   3
   2   1   1 2.68115 0.55138   1
  -3  -1  -1 248.925 5.52985   2
  -3  -1  -1 254.038 5.43293   5
   3   1   1 247.810 5.88188   1
   3   1   1 244.505 5.35699   3
  -4  -1  -1 87.5867 2.99599   4
  -4  -1  -1 84.6383 2.71643   2
   4   1   1 88.4408 2.63628   3
   4   1   1 93.0091 3.17514   1
  -5  -1  -1 126.090 3.77423   2
  -5  -1  -1 131.120 4.21445   4
   5   1   1 132.557 4.38942   1
  -6  -1  -1 54.1021 2.99383   4
   6   1   1 52.6758 3.09878   1
  -7  -1  -1 44.9258 3.13348   4
   7   1   1 41.6125 3.22146   1
  -8  -1  -1 1.59148 1.83046   4
   8   1   1 -0.4699 1.81298   1
   9  -2  -1 10.8201 2.64041   1
  -9   2   1 12.0767 2.42320   4
   8  -2  -1 -1.2469 1.60528   1
  -8   2   1 -1.0098 1.20167   4
   7  -2  -1 24.0501 2.40462   1
  -7   2   1 22.0930 2.01455   3
  -7   2   1 19.2451 2.14039   4
   6  -2  -1 -1.7296 1.02010   1
  -6   2   1 0.54618 0.75413   4
  -6   2   1 0.02661 0.78499   3
   5  -2  -1 4.12131 1.13155   1
  -5   2   1 4.34616 0.94810   4
  -5   2   1 2.03523 0.80775   3
   4  -2  -1 374.470 8.38197   1
  -4   2   1 368.317 7.32760   2
  -4   2   1 376.093 8.41596   4
  -4   2   1 370.216 8.00569   3
   3  -2  -1 336.035 7.37537   1
  -3   2   1 343.428 7.17274   3
  -3   2   1 339.277 7.37906   4
  -3   2   1 335.956 6.59146   2
   2  -2  -1 0.18049 0.26502   2
   2  -2  -1 0.76882 0.40621   1
  -2   2   1 0.43877 0.41580   3
  -2   2   1 0.69001 0.39527   4
   1  -2  -1 30.3127 1.03648   2
   1  -2  -1 30.3851 1.01978   1
  -1   2   1 30.3100 1.01813   4
  -1   2   1 31.5677 1.12979   3
   0  -2  -1 493.041 9.63720   2
   0   2   1 495.521 9.50066   3
   0   2   1 496.760 9.60195   1
   0   2   1 483.614 9.50576   4
  -1  -2  -1 59.8807 1.86399   2
   1   2   1 60.1875 1.79045   1
   1   2   1 62.6223 1.74717   3
  -2  -2  -1 10.8088 0.85111   2
  -2  -2  -1 9.86003 0.79725   5
   2   2   1 10.1676 0.91627   1
   2   2   1 9.38858 0.81489   3
  -3  -2  -1 64.9440 2.18075   5
  -3  -2  -1 67.4313 2.38441   2
   3   2   1 68.5442 2.11741   3
   3   2   1 69.8396 2.51516   1
  -4  -2  -1 -0.8942 0.67283   4
  -4  -2  -1 0.20872 0.68897   2
   4   2   1 0.42367 0.82966   1
   4   2   1 0.51010 0.59540   3
  -5  -2  -1 3.46472 1.18534   4
  -5  -2  -1 4.49811 1.08894   2
   5   2   1 1.69347 1.14860   1
  -6  -2  -1 18.3123 1.91445   2
  -6  -2  -1 18.8084 2.12451   4
   6   2   1 17.4592 2.21207   1
  -7  -2  -1 0.64978 1.48278   4
   7   2   1 2.90856 1.70137   1
   9  -3  -1 -2.3909 1.70113   1
  -9   3   1 -1.2789 1.49959   4
   8  -3  -1 2.77830 1.77119   1
  -8   3   1 5.82229 1.49799   3
  -8   3   1 5.87596 1.75191   4
   7  -3  -1 4.03919 1.28560   1
  -7   3   1 3.85894 1.21262   3
  -7   3   1 3.53871 1.12856   4
   6  -3  -1 -1.3305 0.63759   1
  -6   3   1 1.24608 0.97826   4
  -6   3   1 1.06156 0.93292   3
   5  -3  -1 7.41872 1.12659   1
  -5   3   1 11.7895 1.25376   3
  -5   3   1 11.3717 1.42905   4
   4  -3  -1 13.2220 1.24149   1
   4  -3  -1 12.2084 0.73172   2
  -4   3   1 14.4744 1.32357   3
  -4   3   1 14.4719 1.32067   4
   3  -3  -1 116.398 3.34212   1
   3  -3  -1 128.257 2.83633   2
  -3   3   1 122.258 3.41671   3
  -3   3   1 128.510 3.42131   4
   2  -3  -1 186.418 4.08046   2
   2  -3  -1 187.258 4.33834   1
  -2   3   1 189.114 4.46043   3
  -2   3   1 189.647 4.30955   4
   1  -3  -1 333.619 6.97816   1
   1  -3  -1 336.431 6.95155   2
  -1   3   1 335.959 7.05167   3
  -1   3   1 341.079 6.86149   4
   0  -3  -1 46.0066 1.69286   2
   0   3   1 43.2887 1.50751   1
   0   3   1 43.7553 1.34517   4
   0   3   1 46.4482 1.61478   3
  -1  -3  -1 164.840 4.21995   2
   1   3   1 169.150 4.06441   1
   1   3   1 170.752 3.96271   3
  -2  -3  -1 12.9363 1.25123   2
   2   3   1 14.1198 1.12134   1
   2   3   1 13.1443 0.94683   3
  -3  -3  -1 16.9051 1.53118   2
  -3  -3  -1 17.4059 1.36756   5
   3   3   1 15.4971 1.11961   3
   3   3   1 15.6070 1.48809   1
  -4  -3  -1 -0.4154 0.78692   2
  -4  -3  -1 -0.0091 0.76155   4
   4   3   1 -0.9111 0.86424   1
  -5  -3  -1 72.7208 3.20651   4
  -5  -3  -1 73.2836 3.20168   2
   5   3   1 68.8233 3.38248   1
  -6  -3  -1 -0.4665 1.18187   2
   6   3   1 1.08507 1.51313   1
   7   3   1 13.0358 2.52949   1
   9  -4  -1 1.13100 1.97623   1
  -9   4   1 1.33313 1.87302   4
   8  -4  -1 11.5709 1.97341   1
  -8   4   1 11.1129 1.85361   3
  -8   4   1 8.70234 2.01679   4
   7  -4  -1 12.0554 1.83375   1
  -7   4   1 12.7031 1.77681   3
  -7   4   1 16.2715 2.07633   4
   6  -4  -1 52.7066 2.86350   1
  -6   4   1 55.6835 2.84987   4
  -6   4   1 49.2758 2.67233   3
   5  -4  -1 1.35196 0.95932   1
  -5   4   1 -1.6152 0.80383   3
  -5   4   1 -0.4745 0.78012   4
   4  -4  -1 87.3487 3.00770   1
  -4   4   1 87.7178 3.01250   4
  -4   4   1 88.0980 3.11386   3
   3  -4  -1 1.30740 0.62125   1
   3  -4  -1 0.84599 0.45043   2
  -3   4   1 2.31909 0.66394   3
  -3   4   1 1.07562 0.58716   4
   2  -4  -1 446.965 9.29373   1
   2  -4  -1 429.419 8.95920   2
  -2   4   1 447.638 9.37024   3
  -2   4   1 443.574 9.10552   4
   1  -4  -1 3.81997 0.70291   2
   1  -4  -1 4.41841 0.69073   1
  -1   4   1 5.32687 0.59879   4
  -1   4   1 5.87185 0.85119   3
   0  -4  -1 179.983 4.52401   2
   0   4   1 179.479 4.39224   1
   0   4   1 183.967 4.43047   3
   0   4   1 181.180 4.01021   4
  -1  -4  -1 2.47987 0.78505   2
   1   4   1 2.09603 0.67232   3
   1   4   1 3.51286 0.71927   1
  -2  -4  -1 2.52407 0.90126   2
   2   4   1 3.40966 0.75399   3
   2   4   1 1.84421 0.78012   1
  -3  -4  -1 34.0612 1.94678   5
  -3  -4  -1 30.6380 2.06886   2
   3   4   1 34.4379 2.07912   1
  -4  -4  -1 9.16675 1.39585   2
   4   4   1 7.60123 1.48879   1
  -5  -4  -1 33.3871 2.69985   2
   5   4   1 32.8611 2.82519   1
  -6  -4  -1 -1.0304 1.37931   2
   6   4   1 2.81297 1.78515   1
   9  -5  -1 11.3618 2.56741   1
  -9   5   1 7.00780 2.41420   4
  -9   5   1 5.93675 1.90283   3
   8  -5  -1 0.80382 1.64397   1
  -8   5   1 1.25838 1.29761   4
  -8   5   1 -0.1818 1.29287   3
   7  -5  -1 18.4975 2.32074   1
  -7   5   1 18.9700 2.19290   3
  -7   5   1 20.4179 2.23034   4
   6  -5  -1 28.5771 2.09916   1
  -6   5   1 30.7156 2.33923   4
  -6   5   1 28.9021 2.27247   3
   5  -5  -1 12.8322 1.59840   1
  -5   5   1 11.4294 1.53805   4
  -5   5   1 10.1571 1.38481   3
   4  -5  -1 17.0735 1.60233   1
  -4   5   1 14.1548 1.53646   3
  -4   5   1 13.6803 1.39746   4
   3  -5  -1 4.08075 0.90169   1
   3  -5  -1 3.55070 0.72084   2
  -3   5   1 4.33987 1.03360   3
  -3   5   1 3.38374 0.75566   4
   2  -5  -1 0.16253 0.55462   2
   2  -5  -1 -0.6051 0.62747   1
  -2   5   1 0.55135 0.45466   4
  -2   5   1 0.98002 0.74931   3
   1  -5  -1 161.992 4.29612   2
   1  -5  -1 161.396 4.21192   1
  -1   5   1 163.880 4.36638   3
  -1   5   1 155.373 3.74473   4
   0  -5  -1 1.47015 0.83677   2
   0   5   1 -0.0821 0.67311   1
   0   5   1 0.42689 0.63866   3
  -1  -5  -1 65.2348 2.81340   2
   1   5   1 63.5232 2.41496   3
   1   5   1 65.6581 2.52614   1
  -2  -5  -1 47.2169 2.49031   5
  -2  -5  -1 46.3214 2.38342   2
   2   5   1 47.0052 2.11134   3
   2   5   1 42.6221 2.27183   1
  -3  -5  -1 0.56874 0.96658   5
  -3  -5  -1 -1.6356 0.97360   2
   3   5   1 0.69496 1.00640   1
  -4  -5  -1 40.4152 2.81098   2
   4   5   1 39.6914 2.73195   1
  -5  -5  -1 -2.3547 1.31292   2
  -6  -5  -1 1.91372 1.82028   2
   8  -6  -1 3.51973 1.88148   1
  -8   6   1 4.20195 1.84815   4
  -8   6   1 5.13662 1.78582   3
   7  -6  -1 -1.6047 1.24303   1
  -7   6   1 0.60109 1.05229   3
  -7   6   1 1.10071 1.34148   4
   6  -6  -1 4.49058 1.39878   1
  -6   6   1 5.90439 1.55529   3
  -6   6   1 4.90523 1.43657   4
   5  -6  -1 31.2602 2.28929   1
  -5   6   1 27.8670 2.43998   3
  -5   6   1 34.6213 2.18559   4
   4  -6  -1 578.757 12.7430   1
  -4   6   1 589.718 12.4942   4
  -4   6   1 564.620 12.7508   3
   3  -6  -1 84.7015 2.79330   2
   3  -6  -1 84.8682 3.14186   1
  -3   6   1 88.8517 3.29608   3
   2  -6  -1 280.720 6.90492   1
   2  -6  -1 282.175 6.76961   2
  -2   6   1 301.105 7.22224   3
   1  -6  -1 780.532 15.9365   2
  -1   6   1 763.653 15.7892   3
   0  -6  -1 27.8380 2.07723   2
   0   6   1 29.6621 1.87302   1
   0   6   1 27.3577 1.88903   3
  -1  -6  -1 960.809 20.1760   2
   1   6   1 997.439 20.1440   1
   1   6   1 988.937 19.5611   3
  -2  -6  -1 5.64565 1.39328   5
  -2  -6  -1 4.20342 1.37961   2
  -3  -6  -1 94.7457 3.96761   2
  -3  -6  -1 95.3206 3.98681   5
  -4  -6  -1 28.8488 2.84781   2
  -5  -6  -1 3.67959 1.93944   2
   8  -7  -1 1.62653 1.88728   1
  -8   7   1 4.75721 1.55600   3
  -8   7   1 2.34415 1.83917   4
   7  -7  -1 1.41654 1.64664   1
  -7   7   1 2.22317 1.77086   4
  -7   7   1 3.57476 1.69219   3
   6  -7  -1 60.1966 3.37988   1
  -6   7   1 56.3512 3.45572   3
   5  -7  -1 -0.7925 1.09034   1
  -5   7   1 1.13513 1.35048   3
   4  -7  -1 101.752 3.82260   1
  -4   7   1 100.314 4.08556   3
   3  -7  -1 24.1660 1.92391   1
  -3   7   1 21.4729 2.06214   3
   2  -7  -1 0.77191 0.90407   2
   2  -7  -1 -0.6806 0.96681   1
  -2   7   1 -0.3407 0.98832   3
   1  -7  -1 3.93913 1.20005   2
  -1   7   1 7.01398 1.32481   3
   0  -7  -1 27.7908 2.03596   2
   0   7   1 26.3297 1.98944   3
  -1  -7  -1 40.8857 2.78208   2
  -2  -7  -1 18.6668 2.15212   2
  -2  -7  -1 14.2654 2.09455   5
  -3  -7  -1 15.5154 2.18871   5
  -3  -7  -1 20.3936 2.59901   2
  -4  -7  -1 1.07306 1.83936   2
   7  -8  -1 8.73417 2.38721   1
  -7   8   1 8.05965 2.18408   3
   6  -8  -1 6.96155 1.92078   1
  -6   8   1 8.55235 2.12439   3
  -5   8   1 2.35014 1.61155   3
  -4   8   1 4.87354 1.64685   3
  -3   8   1 2.25176 1.12044   3
   2  -8  -1 18.7406 1.94497   2
  -2   8   1 18.7948 2.15669   3
   1  -8  -1 69.0682 3.37278   2
  -1   8   1 68.7156 3.28457   3
   0  -8  -1 12.6597 1.81856   2
  -1  -8  -1 52.5063 3.42514   2
  -1  -8  -1 51.0704 3.48194   5
  -2  -8  -1 2.02610 1.62377   5
  -2  -8  -1 -0.3043 1.53067   2
  -6   9   1 -1.4928 1.65627   3
  -5   9   1 2.15661 1.77745   3
  -4   9   1 1.17361 1.59941   3
  -3   9   1 0.63490 1.07740   3
  -2   9   1 -0.4523 1.31628   3
   1  -9  -1 0.52636 1.43045   2
   0  -9  -1 1.88507 1.65350   2
  -1  -9  -1 -0.9983 1.71861   5
  -1  -9  -1 0.55397 1.75851   2
   1 -10   2 20.9211 2.81167   5
   2 -10   2 2.45663 1.99309   5
  -3  10  -2 9.83756 2.13824   3
  -4  10  -2 2.08026 1.69836   3
  -1  -9   2 -1.2143 1.57716   2
  -1  -9   2 4.76813 2.00782   5
   0  -9   2 9.02714 2.21472   5
   0  -9   2 5.85580 1.76130   2
   1  -9   2 -0.3296 1.25887   2
   1  -9   2 -1.8196 1.44004   5
  -2   9  -2 17.7157 2.12141   3
  -3   9  -2 4.73361 1.63961   3
   3  -9   2 2.93765 1.57580   1
  -4   9  -2 2.73563 1.61352   3
   4  -9   2 0.63927 1.49914   1
  -5   9  -2 -0.0227 1.60864   3
   5  -9   2 3.17173 1.79425   1
  -6   9  -2 1.03205 1.81386   3
   6  -9   2 2.39907 1.86965   1
  -3  -8   2 13.5018 2.50258   2
  -3  -8   2 11.9097 2.31194   5
  -2  -8   2 0.43216 1.46286   5
  -2  -8   2 -0.5843 1.52704   2
   1   8  -2 -0.6258 1.22642   1
  -1  -8   2 -1.8490 1.25987   2
  -1  -8   2 -0.6377 1.26040   5
   0   8  -2 1.03269 1.23963   1
   0  -8   2 1.03149 1.28218   2
   0  -8   2 3.82514 1.62810   5
  -1   8  -2 12.2611 1.81022   1
  -1   8  -2 13.9420 1.76288   3
   1  -8   2 13.5841 1.71820   2
  -2   8  -2 -0.9832 1.03414   3
   2  -8   2 0.54603 1.11548   1
  -3   8  -2 0.20042 1.18412   3
   3  -8   2 0.63278 1.18262   1
  -4   8  -2 0.77103 1.26170   3
   4  -8   2 0.26213 1.29163   1
  -5   8  -2 5.54656 1.44561   3
   5  -8   2 6.43216 1.80047   1
  -6   8  -2 4.61921 1.76625   3
   6  -8   2 1.83410 1.58016   1
  -7   8  -2 7.40012 2.01708   3
   7  -8   2 5.10511 2.16319   1
   4   7  -2 8.03502 2.17265   1
  -4  -7   2 11.5671 2.34753   2
   3   7  -2 7.97314 1.96518   1
  -3  -7   2 2.94981 1.63916   2
  -3  -7   2 3.97092 1.63963   5
   2   7  -2 -0.4135 1.23356   1
  -2  -7   2 0.45408 1.20341   5
  -2  -7   2 0.84359 1.05330   2
   1   7  -2 14.5161 1.85145   1
  -1  -7   2 14.8206 1.91160   2
  -1  -7   2 10.8407 1.82473   5
   0   7  -2 6.49610 1.39669   1
   0  -7   2 9.00577 1.50763   5
   0  -7   2 7.62445 1.42433   2
  -1   7  -2 5.43600 1.21107   3
   1  -7   2 4.03627 1.09975   2
  -2   7  -2 -0.6276 0.86880   3
   2  -7   2 -0.3820 0.91037   1
   2  -7   2 -0.3633 0.72444   2
  -3   7  -2 5.21335 1.31104   3
   3  -7   2 4.42755 1.27715   1
  -4   7  -2 0.08193 1.14442   3
   4  -7   2 1.83573 1.00266   1
  -5   7  -2 82.0884 3.80931   3
   5  -7   2 82.0136 3.82731   1
  -6   7  -2 27.8279 2.60828   3
   6  -7   2 37.1623 3.10448   1
  -7   7  -2 1.60221 1.59179   3
   7  -7   2 1.59394 1.69208   1
  -8   7  -2 10.3726 2.19700   3
  -8   7  -2 10.8272 2.31530   4
   8  -7   2 13.5189 2.61575   1
   5   6  -2 31.5842 3.23335   1
  -5  -6   2 38.8706 3.40451   2
   4   6  -2 4.19266 1.63593   1
  -4  -6   2 4.81624 1.64161   2
  -4  -6   2 4.81091 1.56825   5
   3   6  -2 86.4925 3.77616   1
  -3  -6   2 72.9103 3.41739   2
  -3  -6   2 79.0551 3.71423   5
   2   6  -2 54.7453 2.88737   1
  -2  -6   2 49.8153 2.83251   2
  -2  -6   2 49.0118 2.85959   5
   1   6  -2 0.36670 0.96459   1
  -1  -6   2 -0.4165 0.96534   2
  -1  -6   2 0.66947 0.78427   5
   0   6  -2 21.3315 1.84493   1
   0   6  -2 21.0376 1.47910   3
   0  -6   2 17.3523 1.74699   5
   0  -6   2 20.4110 1.77613   2
  -1   6  -2 53.9977 2.33269   3
   1  -6   2 55.2316 2.50715   1
   1  -6   2 52.9534 2.27984   2
  -2   6  -2 0.42353 0.80767   3
   2  -6   2 -0.0013 0.80915   1
   2  -6   2 0.59309 0.65370   2
  -3   6  -2 27.8031 1.97601   3
   3  -6   2 26.3927 1.95878   1
  -4   6  -2 74.5007 3.21123   3
   4  -6   2 75.2054 3.23851   1
  -5   6  -2 41.1941 2.61879   3
   5  -6   2 41.6120 2.67080   1
  -6   6  -2 0.36994 1.15350   3
  -6   6  -2 -0.9177 1.00209   4
   6  -6   2 -0.3222 1.25447   1
  -7   6  -2 0.39434 1.02234   4
  -7   6  -2 -2.2382 1.11117   3
   7  -6   2 -1.3857 1.34921   1
  -8   6  -2 0.29785 1.60624   4
  -8   6  -2 2.00385 1.57824   3
   8  -6   2 3.86968 1.91176   1
   6   5  -2 5.64501 2.17877   1
  -6  -5   2 5.52373 1.87839   2
   5   5  -2 0.98693 1.19888   1
  -5  -5   2 3.63371 1.57683   2
   4   5  -2 51.2428 3.05225   1
  -4  -5   2 45.2306 2.66528   2
  -4  -5   2 42.3578 2.64774   5
   3   5  -2 6.13063 1.39345   1
  -3  -5   2 3.99296 1.21325   5
  -3  -5   2 5.49080 1.32715   2
   2   5  -2 61.1139 2.76499   1
  -2  -5   2 57.3730 2.74053   5
  -2  -5   2 60.6081 2.75563   2
   1   5  -2 55.9111 2.46747   1
   1   5  -2 55.2768 1.99921   3
  -1  -5   2 59.4535 2.40436   2
  -1  -5   2 59.7503 2.67438   5
   0   5  -2 54.1522 2.33674   1
   0   5  -2 58.8623 2.05745   3
   0  -5   2 57.6561 2.26412   2
  -1   5  -2 129.800 3.60641   3
   1  -5   2 131.160 3.52353   2
   1  -5   2 133.397 3.86642   1
  -2   5  -2 79.9538 2.70780   3
  -2   5  -2 81.5254 2.20015   4
   2  -5   2 78.9179 2.35589   2
   2  -5   2 81.4396 2.85278   1
  -3   5  -2 5.94048 0.97914   3
  -3   5  -2 5.31883 0.81179   4
   3  -5   2 4.80422 1.03791   1
  -4   5  -2 52.7377 2.22184   4
  -4   5  -2 53.7461 2.41029   3
   4  -5   2 51.7978 2.42990   1
  -5   5  -2 69.8142 2.95499   4
  -5   5  -2 81.1301 3.27951   3
   5  -5   2 72.9918 3.20260   1
  -6   5  -2 0.33206 0.81284   3
  -6   5  -2 2.07456 1.17570   4
   6  -5   2 0.45195 1.10931   1
  -7   5  -2 -1.7102 1.00373   3
  -7   5  -2 -0.5771 1.22429   4
   7  -5   2 0.22686 1.37457   1
  -8   5  -2 -0.0925 1.63509   4
  -8   5  -2 -0.3517 1.34883   3
   8  -5   2 0.51510 1.69018   1
   7   4  -2 2.11653 2.01095   1
  -7  -4   2 1.33950 1.70074   2
   6   4  -2 -0.6418 1.53184   1
  -6  -4   2 -0.4149 0.95890   2
   5   4  -2 24.4405 2.52464   1
  -5  -4   2 18.1440 2.15840   2
   4   4  -2 3.02658 1.24766   1
  -4  -4   2 3.12045 1.08696   5
  -4  -4   2 3.13768 0.97568   2
   3   4  -2 83.0807 3.16634   1
  -3  -4   2 86.0279 3.17498   5
  -3  -4   2 83.1758 3.17379   2
   2   4  -2 0.32868 0.48055   3
   2   4  -2 0.96711 0.80731   1
  -2  -4   2 1.11570 0.75567   2
  -2  -4   2 0.35750 0.68213   5
   1   4  -2 9.46961 1.10280   1
   1   4  -2 8.89093 0.78393   3
  -1  -4   2 10.6639 1.13298   5
  -1  -4   2 9.64981 1.03277   2
  -1  -4   2 9.19483 0.51353   4
   0   4  -2 728.947 13.9612   3
   0  -4   2 718.829 14.2905   2
  -1   4  -2 110.216 2.40184   4
  -1   4  -2 109.881 2.98972   3
   1  -4   2 112.157 3.20660   1
   1  -4   2 111.961 2.87065   2
  -2   4  -2 753.373 14.7700   3
  -2   4  -2 740.617 14.5508   4
   2  -4   2 759.316 15.1937   1
   2  -4   2 738.495 14.2087   2
  -3   4  -2 1.03327 0.55582   4
  -3   4  -2 1.18263 0.70735   3
   3  -4   2 0.72806 0.69824   1
   3  -4   2 1.31416 0.31232   2
  -4   4  -2 128.004 3.90255   3
  -4   4  -2 126.249 3.69769   4
   4  -4   2 124.497 3.93189   1
  -5   4  -2 40.4760 2.27962   4
  -5   4  -2 40.2521 2.32084   3
   5  -4   2 43.7057 2.44645   1
  -6   4  -2 15.5150 1.88753   4
  -6   4  -2 13.6313 1.74731   3
   6  -4   2 12.5785 1.82126   1
  -7   4  -2 40.2418 2.50338   3
  -7   4  -2 35.8109 2.54741   4
   7  -4   2 38.5470 2.96806   1
  -8   4  -2 4.27931 1.34355   3
  -8   4  -2 4.72538 1.90472   4
   8  -4   2 7.23702 2.09535   1
  -9   4  -2 -0.6696 1.76674   4
  -9   4  -2 1.96292 1.63396   3
   9  -4   2 0.92263 2.10147   1
   7   3  -2 -0.9068 1.19276   1
  -7  -3   2 0.64982 1.45724   2
   6   3  -2 -0.3798 1.36793   1
  -6  -3   2 1.34583 1.23922   2
   5   3  -2 2.20464 1.05982   1
  -5  -3   2 2.61904 1.05975   4
  -5  -3   2 1.75652 1.10010   2
   4   3  -2 21.6733 1.99782   1
  -4  -3   2 26.4727 1.73407   5
  -4  -3   2 26.9169 1.74232   4
  -4  -3   2 27.8128 1.75888   2
   3   3  -2 63.7614 2.60743   1
  -3  -3   2 56.1277 2.38075   2
  -3  -3   2 58.9572 2.34659   5
  -3  -3   2 58.9104 2.06437   4
   2   3  -2 628.723 12.2913   3
   2   3  -2 638.779 13.5298   1
  -2  -3   2 675.198 13.8490   5
  -2  -3   2 658.688 12.8222   4
  -2  -3   2 669.481 13.2673   2
   1   3  -2 932.159 17.3020   3
   1   3  -2 959.714 18.4402   1
  -1  -3   2 913.980 18.9493   5
  -1  -3   2 935.995 18.0121   2
  -1  -3   2 919.463 17.5300   4
   0   3  -2 2.83880 0.44351   3
   0  -3   2 2.16262 0.51263   1
   0  -3   2 1.08258 0.45007   2
  -1   3  -2 1335.97 24.7877   3
  -1   3  -2 1319.33 24.9368   4
   1  -3   2 1326.60 24.7355   2
   1  -3   2 1349.78 25.6145   1
  -2   3  -2 1097.32 21.0749   4
  -2   3  -2 1098.98 20.8719   3
   2  -3   2 1115.41 20.2834   2
   2  -3   2 1092.17 21.4510   1
  -3   3  -2 124.872 3.31254   4
  -3   3  -2 116.530 3.35896   3
   3  -3   2 119.582 3.40286   1
  -4   3  -2 12.4686 1.30722   4
  -4   3  -2 13.2966 1.37253   3
   4  -3   2 15.5149 1.51543   1
  -5   3  -2 3.72626 1.09336   3
  -5   3  -2 4.54248 0.99258   4
   5  -3   2 3.90411 0.97867   1
  -6   3  -2 7.91516 1.28652   3
  -6   3  -2 7.30498 1.49761   4
   6  -3   2 5.16405 1.22756   1
  -7   3  -2 -0.9966 0.80861   3
  -7   3  -2 1.66929 1.07492   4
   7  -3   2 1.85724 1.42303   1
  -8   3  -2 -1.4673 1.46114   4
  -8   3  -2 -1.7106 1.31271   3
   8  -3   2 2.53850 1.48988   1
  -9   3  -2 -0.0304 1.87750   4
   9  -3   2 3.25583 2.19952   1
   8   2  -2 2.49527 2.04820   1
   7   2  -2 20.3561 2.64083   1
  -7  -2   2 15.8391 2.13252   4
   6   2  -2 3.61835 1.51747   1
  -6  -2   2 1.30866 1.07590   2
  -6  -2   2 1.61958 1.19089   4
   5   2  -2 114.268 4.05016   1
  -5  -2   2 109.219 3.65580   2
  -5  -2   2 105.524 3.73802   4
   4   2  -2 8.30102 1.20776   1
  -4  -2   2 10.5137 1.17111   5
  -4  -2   2 9.33862 1.16879   4
  -4  -2   2 10.3955 1.26846   2
   3   2  -2 29.6335 1.58609   1
   3   2  -2 31.4081 1.07632   3
  -3  -2   2 30.9456 1.58781   2
  -3  -2   2 28.8225 1.45818   5
  -3  -2   2 30.0725 1.43717   4
   2   2  -2 2.01510 0.54535   1
   2   2  -2 1.90032 0.30363   3
  -2  -2   2 1.63109 0.52483   5
  -2  -2   2 2.32549 0.43742   4
  -2  -2   2 1.56888 0.47617   2
   1   2  -2 303.135 6.76046   1
  -1  -2   2 326.533 6.62331   2
  -1  -2   2 326.308 6.25586   4
  -1  -2   2 318.843 6.92912   5
   0   2  -2 1629.82 29.1420   3
   0  -2   2 1592.30 31.2368   5
   0  -2   2 1589.93 29.5374   2
   0  -2   2 1585.14 30.2607   1
  -1   2  -2 27.3288 1.06971   3
  -1   2  -2 28.6021 0.89936   4
   1  -2   2 27.0842 1.07535   1
   1  -2   2 26.2504 0.80846   2
  -2   2  -2 8.11566 0.75096   3
  -2   2  -2 9.02510 0.70927   4
   2  -2   2 7.64365 0.80750   1
  -3   2  -2 247.201 5.58557   3
  -3   2  -2 245.291 5.69640   4
   3  -2   2 246.423 5.78120   1
  -4   2  -2 385.789 8.32089   3
  -4   2  -2 381.442 8.62510   4
   4  -2   2 375.694 8.65071   1
  -5   2  -2 30.5309 1.89118   3
  -5   2  -2 27.6791 1.95876   4
   5  -2   2 33.5135 2.13919   1
  -6   2  -2 71.8580 3.12157   4
  -6   2  -2 68.4763 3.02571   3
   6  -2   2 68.7014 3.13946   1
  -7   2  -2 -1.3420 0.99682   3
  -7   2  -2 -0.1392 0.90533   4
   7  -2   2 0.95909 1.37170   1
  -8   2  -2 20.3054 2.45587   4
  -8   2  -2 19.0013 2.25782   3
   8  -2   2 21.4654 2.60585   1
  -9   2  -2 7.24615 1.99502   4
   9  -2   2 11.9691 2.74286   1
   8   1  -2 4.18076 1.97140   1
  -8  -1   2 0.49582 1.51091   4
   7   1  -2 3.55156 1.68121   1
  -7  -1   2 4.43029 1.52578   4
   6   1  -2 17.4177 2.11345   1
  -6  -1   2 19.1541 2.07764   4
  -6  -1   2 17.5969 1.69787   2
   5   1  -2 11.3039 1.61113   1
  -5  -1   2 10.9812 1.49112   4
  -5  -1   2 10.6247 1.33158   2
   4   1  -2 204.652 5.49580   1
  -4  -1   2 208.820 5.30586   4
  -4  -1   2 208.887 5.04747   2
  -4  -1   2 204.721 4.56377   3
  -4  -1   2 209.507 5.04282   5
   3   1  -2 5.24971 0.81283   1
  -3  -1   2 5.70579 0.73908   5
  -3  -1   2 5.48164 0.77777   4
  -3  -1   2 5.08048 0.73793   2
  -3  -1   2 4.94884 0.50928   3
   2   1  -2 72.3769 2.19075   1
  -2  -1   2 77.0372 2.12669   5
  -2  -1   2 72.6115 2.05124   4
  -2  -1   2 75.3096 2.07152   2
   1   1  -2 779.226 14.8926   1
  -1  -1   2 774.989 15.3094   5
  -1  -1   2 768.237 14.6146   4
  -1  -1   2 762.028 14.5439   2
   0  -1   2 147.175 2.98969   2
   0  -1   2 146.850 3.18130   5
   0  -1   2 143.031 3.12175   1
   1  -1   2 4532.99 84.7910   3
   1  -1   2 4670.09 87.3953   1
   2  -1   2 3077.96 57.6346   1
  -3   1  -2 13.9320 0.90705   3
  -3   1  -2 12.7126 0.62634   2
   3  -1   2 11.7045 0.94772   1
  -4   1  -2 1026.48 19.0046   2
  -4   1  -2 1019.39 20.3609   4
  -4   1  -2 993.497 19.5349   3
   4  -1   2 1003.38 20.3318   1
  -5   1  -2 57.0145 2.56772   4
  -5   1  -2 59.4452 2.45407   3
   5  -1   2 59.2116 2.79080   1
  -6   1  -2 8.21909 1.33690   3
  -6   1  -2 10.0182 1.64116   4
   6  -1   2 10.9447 1.79547   1
  -7   1  -2 18.9044 2.30587   4
  -7   1  -2 16.9567 1.93711   3
   7  -1   2 17.6744 2.33007   1
  -8   1  -2 -0.1645 1.17566   4
   8  -1   2 -0.0195 1.76681   1
   8   0  -2 -0.0804 1.38054   1
  -8   0   2 2.02220 1.60807   4
   7   0  -2 9.21148 1.93859   1
  -7   0   2 8.27909 1.72094   4
   6   0  -2 41.8168 2.78115   1
  -6   0   2 43.6732 2.66956   4
   5   0  -2 0.73351 0.94417   1
  -5   0   2 1.41497 0.95707   4
  -5   0   2 0.86648 0.72672   2
  -5   0   2 1.16694 0.65628   3
   4   0  -2 2146.02 41.5204   1
  -4   0   2 2175.29 42.1816   5
  -4   0   2 2143.96 39.7207   3
  -4   0   2 2202.62 41.4287   4
  -4   0   2 2127.62 40.1693   2
   3   0  -2 75.6418 2.42199   1
  -3   0   2 76.7444 2.38079   4
  -3   0   2 74.3984 2.00653   3
  -3   0   2 75.0148 2.16780   5
  -3   0   2 78.4097 2.16297   2
   2   0  -2 6338.10 119.921   1
  -2   0   2 6066.74 115.792   3
  -2   0   2 6131.64 117.840   2
  -2   0   2 5913.69 120.093   4
  -2   0   2 7156.47 123.467   5
   1   0  -2 426.102 8.13595   1
  -1   0   2 413.479 8.41769   5
  -1   0   2 422.931 8.15927   4
  -1   0   2 410.423 7.96949   2
   0   0   2 170.845 3.54529   4
  -1   0  -2 7.67591 0.46226   2
   1   0   2 7.75152 0.50126   1
   1   0   2 7.19841 0.47226   3
  -2   0  -2 604.083 11.2243   2
   2   0   2 587.088 11.2957   3
   2   0   2 570.571 11.6427   1
  -3   0  -2 101.799 2.58756   2
   3   0   2 105.806 2.79646   3
   3   0   2 102.795 3.00202   1
  -4   0  -2 76.4721 2.81985   4
  -4   0  -2 74.9083 2.25975   2
   4   0   2 73.5843 2.45189   3
   4   0   2 78.6465 2.83487   1
  -5   0  -2 1.33330 1.02413   4
  -5   0  -2 3.05569 0.89271   3
  -5   0  -2 2.37128 0.77557   2
   5   0   2 1.75853 1.08029   1
  -6   0  -2 65.1510 3.25864   4
  -6   0  -2 70.6086 2.88191   3
   6   0   2 60.0688 3.04926   1
  -7   0  -2 14.5650 1.99234   4
   7   0   2 15.9789 2.31200   1
  -8   0  -2 3.51744 1.93620   4
   8   0   2 6.64794 2.17143   1
   9  -1  -2 3.76723 2.34025   1
  -9   1   2 3.39870 1.95480   4
   8  -1  -2 -0.1421 1.69503   1
  -8   1   2 -0.7943 0.97699   4
   7  -1  -2 131.916 5.05542   1
  -7   1   2 130.816 4.86905   4
   6  -1  -2 83.1480 3.59385   1
  -6   1   2 79.8486 3.29869   4
  -6   1   2 79.3165 2.96960   3
   5  -1  -2 46.4022 2.38669   1
  -5   1   2 46.6106 1.95688   3
  -5   1   2 47.0677 2.34364   4
  -5   1   2 42.8239 1.75497   2
   4  -1  -2 399.420 8.80538   1
  -4   1   2 388.526 8.77125   4
  -4   1   2 398.001 8.19211   3
  -4   1   2 387.416 7.98160   2
   3  -1  -2 197.216 4.75528   1
  -3   1   2 204.083 4.29182   2
  -3   1   2 202.044 4.80954   4
  -3   1   2 197.858 4.43375   3
   2  -1  -2 2070.48 39.1786   1
  -2   1   2 2090.46 39.2687   4
  -2   1   2 2079.88 38.2367   2
  -2   1   2 2099.72 38.0777   3
   1  -1  -2 51.1994 1.30053   1
   1  -1  -2 54.3099 1.39967   2
  -1   1   2 54.0990 1.45193   3
  -1   1   2 54.9138 1.49639   4
   0  -1  -2 1659.20 30.0474   2
   0   1   2 1646.77 29.7627   3
   0   1   2 1583.49 30.4926   4
  -1  -1  -2 112.538 2.67655   2
   1   1   2 108.277 2.59798   3
   1   1   2 111.696 2.54546   1
  -2  -1  -2 165.529 3.78482   2
   2   1   2 162.469 3.86620   1
   2   1   2 159.566 3.69024   3
  -3  -1  -2 0.09861 0.46666   2
  -3  -1  -2 0.53990 0.37764   5
   3   1   2 0.84204 0.51204   3
   3   1   2 0.67276 0.58154   1
  -4  -1  -2 14.1779 1.22460   2
   4   1   2 14.3294 1.45012   1
   4   1   2 12.6984 1.21741   3
  -5  -1  -2 0.50420 1.01906   4
  -5  -1  -2 0.66668 0.75216   2
   5   1   2 0.92005 0.81046   1
   5   1   2 1.24916 0.80391   3
  -6  -1  -2 7.19534 1.61002   4
   6   1   2 10.4418 1.78784   1
  -7  -1  -2 0.52477 1.46867   4
   7   1   2 -0.2116 1.50281   1
  -8  -1  -2 -0.3202 1.73272   4
   8   1   2 0.49662 1.87320   1
   9  -2  -2 1.18761 2.02597   1
  -9   2   2 -1.4667 1.51562   4
   8  -2  -2 0.48665 1.72799   1
  -8   2   2 0.46580 1.05265   4
   7  -2  -2 2.79088 1.49653   1
  -7   2   2 2.92703 1.10328   4
  -7   2   2 4.23984 1.11447   3
   6  -2  -2 6.83541 1.54316   1
  -6   2   2 10.6938 1.33295   3
  -6   2   2 5.86301 1.30757   4
   5  -2  -2 0.33939 0.65861   1
  -5   2   2 0.21512 0.60100   4
  -5   2   2 0.90991 0.67536   3
   4  -2  -2 44.5478 2.00746   1
  -4   2   2 44.8021 1.46369   2
  -4   2   2 43.8075 1.76587   3
  -4   2   2 41.2713 1.89677   4
   3  -2  -2 200.529 4.73539   1
  -3   2   2 196.484 4.78335   4
  -3   2   2 198.647 4.62725   3
  -3   2   2 198.936 4.20718   2
   2  -2  -2 11.2405 0.65177   2
   2  -2  -2 11.0031 0.77106   1
  -2   2   2 10.7965 0.78646   4
  -2   2   2 10.9623 0.81356   3
   1  -2  -2 1926.06 35.1507   2
   1  -2  -2 1936.07 35.5650   1
  -1   2   2 1908.63 34.9706   3
  -1   2   2 1842.34 35.7159   4
   0  -2  -2 505.721 10.0456   2
   0   2   2 504.321 9.81404   1
   0   2   2 512.174 9.93255   3
   0   2   2 513.527 9.99846   4
  -1  -2  -2 863.702 16.8807   2
   1   2   2 888.415 16.6212   3
   1   2   2 875.713 16.8825   1
  -2  -2  -2 257.535 5.81308   2
   2   2   2 252.609 5.54980   3
   2   2   2 254.351 5.75402   1
  -3  -2  -2 3.80684 0.68563   5
  -3  -2  -2 3.55060 0.80805   2
   3   2   2 3.23285 0.82436   1
   3   2   2 5.20962 0.79178   3
  -4  -2  -2 29.4784 1.80421   2
   4   2   2 34.9996 1.72663   3
   4   2   2 35.3470 2.24294   1
  -5  -2  -2 30.3660 2.23426   4
  -5  -2  -2 27.2868 1.91694   2
   5   2   2 28.3073 2.23537   1
  -6  -2  -2 30.1283 2.26417   2
  -6  -2  -2 35.7196 2.68407   4
   6   2   2 29.4126 2.35457   1
  -7  -2  -2 4.15731 1.77991   4
   7   2   2 8.48294 2.25521   1
   9  -3  -2 6.88231 2.35912   1
  -9   3   2 5.87800 2.09055   4
   8  -3  -2 1.90168 1.67902   1
  -8   3   2 1.04943 1.49751   4
   7  -3  -2 16.2210 2.16146   1
  -7   3   2 11.5721 1.70201   4
  -7   3   2 11.8043 1.63036   3
   6  -3  -2 43.8024 2.59547   1
  -6   3   2 39.5609 2.25269   3
  -6   3   2 41.8347 2.34211   4
   5  -3  -2 13.0810 1.42569   1
  -5   3   2 14.3150 1.40085   3
  -5   3   2 10.1548 1.38227   4
   4  -3  -2 84.6691 2.19080   2
   4  -3  -2 84.8436 2.84013   1
  -4   3   2 81.1100 2.87981   4
  -4   3   2 78.6757 2.70694   3
   3  -3  -2 3.70228 0.53613   2
   3  -3  -2 2.64624 0.65378   1
  -3   3   2 3.51290 0.65123   4
  -3   3   2 3.80315 0.75087   3
   2  -3  -2 11.4414 0.78089   2
   2  -3  -2 12.2441 0.85002   1
  -2   3   2 11.5078 0.87762   3
  -2   3   2 12.2322 0.86951   4
   1  -3  -2 41.6184 1.52998   2
   1  -3  -2 39.3430 1.33747   1
  -1   3   2 40.0621 1.54005   3
  -1   3   2 39.8614 1.38909   4
   0  -3  -2 96.4738 2.76599   2
   0   3   2 92.2895 2.41969   1
   0   3   2 98.7478 2.48142   4
   0   3   2 96.3261 2.67383   3
  -1  -3  -2 226.458 5.38479   2
   1   3   2 231.496 5.16301   3
   1   3   2 222.847 5.09583   1
  -2  -3  -2 11.3404 1.20835   2
   2   3   2 10.4929 1.00143   3
   2   3   2 11.0757 1.10720   1
  -3  -3  -2 97.2033 3.28749   2
  -3  -3  -2 92.1635 2.98649   5
   3   3   2 95.3523 2.96817   3
   3   3   2 92.1865 3.16770   1
  -4  -3  -2 29.4813 2.00484   2
   4   3   2 30.2656 2.06544   1
   4   3   2 28.0984 1.68877   3
  -5  -3  -2 3.01621 1.22755   2
  -5  -3  -2 5.08797 1.39571   4
   5   3   2 3.16282 1.35078   1
  -6  -3  -2 16.5691 2.05434   2
  -6  -3  -2 14.8756 2.09649   4
   6   3   2 12.4258 2.10056   1
   7   3   2 1.52927 1.81615   1
   9  -4  -2 1.20931 1.99239   1
  -9   4   2 2.29850 1.56467   4
   8  -4  -2 13.2082 2.27582   1
  -8   4   2 12.0696 2.23790   4
  -8   4   2 10.3949 1.78669   3
   7  -4  -2 18.3090 2.24142   1
  -7   4   2 16.6935 1.97289   3
  -7   4   2 17.1746 2.18385   4
   6  -4  -2 21.0489 2.05243   1
  -6   4   2 21.1673 2.04817   4
  -6   4   2 21.3281 2.01756   3
   5  -4  -2 149.977 4.56564   1
  -5   4   2 146.379 4.51815   3
  -5   4   2 153.787 4.64798   4
   4  -4  -2 72.9798 2.32150   2
   4  -4  -2 88.7528 2.92130   1
  -4   4   2 81.3658 2.99702   3
  -4   4   2 78.3739 2.79238   4
   3  -4  -2 245.959 5.33519   2
   3  -4  -2 239.279 5.64992   1
  -3   4   2 235.332 5.82404   3
  -3   4   2 240.517 5.72955   4
   2  -4  -2 87.4581 2.55691   1
   2  -4  -2 89.4369 2.62474   2
  -2   4   2 87.2241 2.56600   4
  -2   4   2 87.1217 2.83616   3
   1  -4  -2 8.57827 0.81740   1
   1  -4  -2 9.23332 0.97846   2
  -1   4   2 8.70035 0.94774   3
  -1   4   2 7.79687 0.77062   4
   0  -4  -2 9.82748 1.01675   2
   0   4   2 8.22911 0.85697   1
   0   4   2 9.46150 0.95090   3
   0   4   2 6.80166 0.72714   4
  -1  -4  -2 0.80282 0.56501   2
   1   4   2 1.15803 0.65578   1
   1   4   2 0.09324 0.58879   3
  -2  -4  -2 307.757 7.43565   2
   2   4   2 305.651 6.93454   3
   2   4   2 304.566 7.15546   1
  -3  -4  -2 12.0606 1.59236   2
  -3  -4  -2 10.8311 1.31129   5
   3   4   2 11.9494 1.48558   1
   3   4   2 11.4584 1.27546   3
  -4  -4  -2 1.51585 1.11640   2
   4   4   2 3.45172 1.23902   1
  -5  -4  -2 -2.1213 1.09756   2
   5   4   2 0.59628 1.52405   1
  -6  -4  -2 1.01465 1.45757   2
   9  -5  -2 2.31064 2.03898   1
  -9   5   2 1.13765 1.54615   4
  -9   5   2 4.98456 1.85142   3
   8  -5  -2 3.47280 1.79888   1
  -8   5   2 5.11382 1.85541   4
  -8   5   2 4.38663 1.61184   3
   7  -5  -2 4.60555 1.33600   1
  -7   5   2 4.26804 1.36369   4
  -7   5   2 1.08380 1.29221   3
   6  -5  -2 28.6094 2.28967   1
  -6   5   2 28.0752 2.06217   3
  -6   5   2 27.6446 2.04650   4
   5  -5  -2 52.9487 2.61102   1
  -5   5   2 56.3588 2.67756   4
  -5   5   2 53.2404 2.74696   3
   4  -5  -2 10.6526 1.31795   1
  -4   5   2 9.71163 1.31087   3
  -4   5   2 11.5890 1.36583   4
   3  -5  -2 0.02242 0.56343   2
   3  -5  -2 -0.2998 0.59988   1
  -3   5   2 -0.1561 0.65783   4
  -3   5   2 0.54507 0.80764   3
   2  -5  -2 213.119 5.26348   2
   2  -5  -2 222.276 5.29492   1
  -2   5   2 211.711 5.09677   4
  -2   5   2 221.854 5.58198   3
   1  -5  -2 1.72492 0.69980   1
   1  -5  -2 1.92540 0.77584   2
  -1   5   2 1.22337 0.63085   3
  -1   5   2 1.73851 0.56335   4
   0  -5  -2 87.0433 2.98415   2
   0   5   2 78.2433 2.61428   1
   0   5   2 80.3083 2.78130   3
  -1  -5  -2 390.353 9.25184   2
   1   5   2 404.584 8.95488   1
   1   5   2 407.630 8.89600   3
  -2  -5  -2 46.3818 2.42514   2
   2   5   2 45.1366 2.21719   3
   2   5   2 40.1634 2.35854   1
  -3  -5  -2 49.1236 2.64734   2
  -3  -5  -2 43.2761 2.50392   5
  -4  -5  -2 19.5914 2.09770   2
  -5  -5  -2 -2.2009 1.26202   2
   8  -6  -2 -0.0115 1.63419   1
  -8   6   2 1.49414 1.66296   4
  -8   6   2 -1.9895 1.35780   3
   7  -6  -2 2.19017 1.51050   1
  -7   6   2 0.69011 1.01038   3
  -7   6   2 1.90818 1.49533   4
   6  -6  -2 3.04239 1.29782   1
  -6   6   2 2.41621 1.08737   3
  -6   6   2 2.99497 1.30002   4
   5  -6  -2 27.5744 2.15087   1
  -5   6   2 30.1061 2.52459   3
  -5   6   2 33.1959 2.24321   4
   4  -6  -2 38.1287 2.19111   1
  -4   6   2 36.4084 2.24605   3
  -4   6   2 35.1024 2.19517   4
   3  -6  -2 351.152 7.86658   2
   3  -6  -2 351.157 8.17260   1
  -3   6   2 344.756 8.48049   3
   2  -6  -2 408.965 8.94508   2
   2  -6  -2 389.535 8.84763   1
  -2   6   2 386.184 9.14625   3
   1  -6  -2 115.413 3.79030   2
  -1   6   2 104.878 3.70586   3
  -1   6   2 112.615 3.58601   1
   0  -6  -2 579.087 12.7643   2
   0   6   2 580.818 12.4247   3
  -1  -6  -2 54.0477 2.88596   2
   1   6   2 45.6066 2.43497   3
  -2  -6  -2 46.2709 2.86530   2
  -3  -6  -2 3.09476 1.33502   5
  -3  -6  -2 1.51209 1.34568   2
  -4  -6  -2 6.90601 1.91951   2
   8  -7  -2 -0.6231 1.67632   1
  -8   7   2 -0.5796 1.70275   4
  -8   7   2 2.53345 1.73452   3
   7  -7  -2 8.54348 1.99425   1
  -7   7   2 7.57907 1.94413   3
   6  -7  -2 6.35323 1.81161   1
  -6   7   2 7.61633 1.88555   3
   5  -7  -2 2.90482 1.30550   1
  -5   7   2 4.65601 1.58297   3
   4  -7  -2 27.5363 2.55256   1
  -4   7   2 22.9563 2.22823   3
  -3   7   2 61.4143 3.15949   3
   2  -7  -2 0.23234 0.92003   2
  -2   7   2 0.57275 1.07301   3
   1  -7  -2 23.5540 2.16975   2
  -1   7   2 22.0240 2.07175   3
   0  -7  -2 61.5895 3.17811   2
   0   7   2 62.4467 2.91485   3
  -1  -7  -2 3.08451 1.42474   2
  -2  -7  -2 26.9249 2.67812   5
  -2  -7  -2 35.0457 3.03627   2
  -3  -7  -2 28.1007 2.81402   2
  -7   8   2 1.89565 1.42158   3
  -6   8   2 1.74405 1.63000   3
  -5   8   2 9.50037 1.82953   3
  -4   8   2 3.24317 1.54047   3
  -3   8   2 2.98335 1.17931   3
   2  -8  -2 2.01719 1.23497   2
  -2   8   2 1.80187 1.01243   3
   1  -8  -2 -1.0142 1.13411   2
  -1   8   2 1.76859 1.26923   3
   0  -8  -2 13.1514 2.08007   2
  -1  -8  -2 9.94657 2.10636   2
  -2  -8  -2 1.40209 1.80810   2
  -2  -8  -2 2.05225 1.59946   5
  -6   9   2 0.59089 1.37735   3
  -5   9   2 4.43785 1.58154   3
  -4   9   2 -0.2615 1.51354   3
  -3   9   2 3.39404 1.62101   3
  -2   9   2 -0.3077 1.36746   3
   1  -9  -2 0.72841 1.53351   2
   0  -9  -2 0.26585 1.60849   2
   1 -10   3 9.80148 2.50102   5
   2 -10   3 21.6485 2.97253   5
   3 -10   3 6.06125 2.18559   5
  -4  10  -3 3.05071 1.91413   3
   4 -10   3 -0.5657 1.78535   1
   4 -10   3 2.64377 1.87539   5
  -1  -9   3 20.4796 2.72044   2
  -1  -9   3 23.1106 2.90637   5
   0  -9   3 9.54382 1.99083   2
   0  -9   3 6.98398 1.76345   5
  -1   9  -3 -0.5777 1.36102   1
   1  -9   3 1.48910 1.39564   2
   1  -9   3 0.10648 1.19866   5
   2  -9   3 10.9647 2.15830   5
  -3   9  -3 1.38264 1.44153   3
   3  -9   3 -0.5332 1.62445   1
  -4   9  -3 2.96664 1.33796   3
   4  -9   3 1.64701 1.62095   1
  -5   9  -3 -0.0425 1.58370   3
   5  -9   3 -0.9431 1.55584   1
  -6   9  -3 0.26274 1.31940   3
   6  -9   3 -1.3375 1.72236   1
  -3  -8   3 1.29177 1.90156   2
  -3  -8   3 9.22228 2.17859   5
   2   8  -3 2.00301 1.63761   1
  -2  -8   3 0.08764 1.53517   2
  -2  -8   3 0.07693 1.52713   5
   1   8  -3 3.96034 1.60288   1
  -1  -8   3 2.86934 1.57535   2
  -1  -8   3 2.30749 1.55722   5
   0   8  -3 18.0455 2.23305   1
   0  -8   3 22.5303 2.53482   5
   0  -8   3 22.9542 2.31035   2
  -1   8  -3 -0.1789 1.18494   1
   1  -8   3 0.21668 1.31219   5
   1  -8   3 -0.7106 0.96636   2
  -2   8  -3 32.8835 2.38333   3
   2  -8   3 33.8518 2.57606   1
  -3   8  -3 30.5516 2.58811   3
   3  -8   3 32.8518 2.62626   1
  -4   8  -3 14.5022 2.03211   3
   4  -8   3 17.7235 2.23760   1
  -5   8  -3 10.3608 1.74694   3
   5  -8   3 11.0685 2.09308   1
  -6   8  -3 28.1337 2.92141   3
   6  -8   3 26.1763 2.88839   1
  -7   8  -3 2.04726 1.64765   3
   7  -8   3 2.15720 1.91199   1
   4   7  -3 3.85842 1.83000   1
  -4  -7   3 2.49561 1.79738   2
  -4  -7   3 1.82687 1.58009   5
   3   7  -3 1.11782 1.48044   1
  -3  -7   3 1.68837 1.38056   5
  -3  -7   3 0.02025 1.47138   2
   2   7  -3 15.2280 2.11714   1
  -2  -7   3 12.5752 1.79985   2
  -2  -7   3 14.2564 2.01544   5
   1   7  -3 4.96205 1.43330   1
  -1  -7   3 4.19025 1.36795   2
  -1  -7   3 5.61082 1.54297   5
   0   7  -3 117.688 4.24604   1
   0  -7   3 115.254 4.46607   5
   0  -7   3 116.896 4.05499   2
  -1   7  -3 15.7379 1.57081   3
   1  -7   3 12.5710 1.80098   5
   1  -7   3 11.9396 1.64042   1
   1  -7   3 17.6595 1.69034   2
  -2   7  -3 3.99916 1.19249   3
   2  -7   3 4.59154 1.01892   2
   2  -7   3 5.11328 1.30079   1
  -3   7  -3 13.7265 1.72709   3
   3  -7   3 11.7319 1.70282   1
  -4   7  -3 0.81691 1.21304   3
   4  -7   3 -0.3252 1.09880   1
  -5   7  -3 14.0015 1.99436   3
   5  -7   3 13.0883 1.85116   1
  -6   7  -3 8.39962 1.82952   3
   6  -7   3 9.56916 1.79340   1
  -7   7  -3 1.70499 1.60750   3
   7  -7   3 0.69608 1.72480   1
  -8   7  -3 2.59726 1.82884   3
  -8   7  -3 3.88076 1.87206   4
   8  -7   3 3.57543 2.13020   1
   5   6  -3 5.87436 2.09002   1
  -5  -6   3 8.68264 2.04498   2
   4   6  -3 59.5175 3.56287   1
  -4  -6   3 56.7525 3.34079   5
  -4  -6   3 62.8319 3.60523   2
   3   6  -3 15.0203 2.01577   1
  -3  -6   3 10.8832 1.72126   5
  -3  -6   3 11.3446 1.68127   2
   2   6  -3 119.474 4.36572   1
  -2  -6   3 112.499 4.23049   2
  -2  -6   3 126.572 4.52913   5
   1   6  -3 18.9247 1.88682   1
  -1  -6   3 18.2346 1.72806   2
  -1  -6   3 17.0904 1.85821   5
   0   6  -3 57.0226 2.66950   1
   0   6  -3 59.7388 2.23892   3
   0  -6   3 55.7966 2.80728   5
   0  -6   3 53.9877 2.50478   2
  -1   6  -3 4.26252 0.94110   3
   1  -6   3 2.49244 1.02692   1
   1  -6   3 1.60336 0.80050   2
  -2   6  -3 0.96314 0.63593   3
   2  -6   3 0.06658 0.85203   1
   2  -6   3 -0.2464 0.57763   2
  -3   6  -3 43.7144 2.18952   3
   3  -6   3 41.8050 2.39657   1
  -4   6  -3 55.1135 2.75299   3
   4  -6   3 48.0531 2.71292   1
  -5   6  -3 23.3006 2.22813   3
  -5   6  -3 22.2850 1.89930   4
   5  -6   3 25.5258 2.34893   1
  -6   6  -3 0.24053 1.20525   3
  -6   6  -3 -1.4439 0.92546   4
   6  -6   3 -0.1012 1.28508   1
  -7   6  -3 -0.3562 1.37639   3
  -7   6  -3 1.59442 1.14870   4
   7  -6   3 2.16581 1.59888   1
  -8   6  -3 0.98053 1.18601   3
  -8   6  -3 0.88809 1.70470   4
   8  -6   3 0.53167 1.72822   1
   6   5  -3 1.15734 1.88559   1
  -6  -5   3 -1.2688 1.47110   2
   5   5  -3 15.9537 2.38091   1
  -5  -5   3 19.1937 2.32925   2
   4   5  -3 1.54520 1.34197   1
  -4  -5   3 1.47462 1.19845   5
  -4  -5   3 0.87995 1.23260   2
   3   5  -3 3.42996 1.23545   1
  -3  -5   3 4.51443 1.25341   5
  -3  -5   3 3.39504 1.08780   2
   2   5  -3 10.1163 1.34647   1
  -2  -5   3 8.64881 1.36383   2
  -2  -5   3 11.4179 1.50303   5
   1   5  -3 133.641 3.39471   3
   1   5  -3 132.633 4.07843   1
  -1  -5   3 135.085 3.98171   2
  -1  -5   3 140.195 4.33932   5
   0   5  -3 1.20658 0.79744   1
   0   5  -3 0.34094 0.52485   3
   0  -5   3 0.60203 0.58474   5
   0  -5   3 1.92244 0.71932   2
  -1   5  -3 -0.4975 0.52552   3
   1  -5   3 0.24161 0.57327   2
   1  -5   3 -0.8260 0.41165   1
  -2   5  -3 16.5514 0.90529   4
  -2   5  -3 17.2181 1.44988   3
   2  -5   3 17.7870 1.07782   2
   2  -5   3 18.7841 1.57984   1
  -3   5  -3 1.65457 0.67494   3
  -3   5  -3 0.72633 0.52923   4
   3  -5   3 2.15842 0.79116   1
  -4   5  -3 22.9892 1.80413   3
  -4   5  -3 19.6312 1.47492   4
   4  -5   3 20.8647 1.87741   1
  -5   5  -3 2.45105 1.14598   3
  -5   5  -3 0.50785 0.87809   4
   5  -5   3 1.01551 0.87218   1
  -6   5  -3 9.32576 1.64868   4
  -6   5  -3 9.02135 1.47689   3
   6  -5   3 12.0376 1.84732   1
  -7   5  -3 0.57180 1.28819   3
  -7   5  -3 2.52306 1.48485   4
   7  -5   3 0.07182 1.09747   1
  -8   5  -3 2.16055 1.23333   3
  -8   5  -3 -1.4540 1.55734   4
   8  -5   3 4.58120 1.99903   1
   7   4  -3 3.98569 1.77526   1
  -7  -4   3 3.67169 1.81543   2
   6   4  -3 0.63389 1.66780   1
  -6  -4   3 0.94061 1.43760   2
   5   4  -3 -1.6708 1.20937   1
  -5  -4   3 0.86481 1.23671   2
   4   4  -3 36.2438 2.27077   1
  -4  -4   3 34.0970 2.21038   5
  -4  -4   3 34.5401 2.35518   2
   3   4  -3 1.10612 1.00257   1
  -3  -4   3 0.79616 0.83173   5
  -3  -4   3 0.31085 0.88507   2
   2   4  -3 25.2852 1.59553   1
  -2  -4   3 25.2789 1.58604   5
  -2  -4   3 23.9123 1.64877   2
   1   4  -3 36.5043 1.75050   1
   1   4  -3 34.9453 1.28095   3
  -1  -4   3 38.6222 1.80490   5
  -1  -4   3 37.8466 1.76012   2
   0   4  -3 31.0132 1.27331   3
   0  -4   3 30.5116 1.38595   2
   0  -4   3 32.5924 1.69424   5
   0  -4   3 32.5682 1.65152   1
  -1   4  -3 283.317 5.71179   4
  -1   4  -3 290.571 6.24819   3
   1  -4   3 291.367 6.66129   1
   1  -4   3 288.530 6.11568   2
  -2   4  -3 492.763 10.0544   3
  -2   4  -3 489.299 9.73656   4
   2  -4   3 476.735 9.43816   2
   2  -4   3 483.495 10.3882   1
  -3   4  -3 76.2117 2.71004   3
  -3   4  -3 76.9410 2.46629   4
   3  -4   3 73.8995 2.74651   1
  -4   4  -3 155.819 4.23996   4
  -4   4  -3 137.574 4.19502   3
   4  -4   3 149.710 4.43716   1
  -5   4  -3 11.3621 1.54715   3
  -5   4  -3 10.3552 1.32114   4
   5  -4   3 12.1137 1.58199   1
  -6   4  -3 -0.2553 0.76139   4
  -6   4  -3 -1.5732 0.97778   3
   6  -4   3 0.13584 1.15538   1
  -7   4  -3 3.78260 1.55060   4
  -7   4  -3 2.29947 1.36157   3
   7  -4   3 4.31050 1.65800   1
  -8   4  -3 -0.3096 1.67608   4
  -8   4  -3 -1.3731 1.30056   3
   8  -4   3 0.02343 1.27069   1
   9  -4   3 -0.0712 2.03820   1
   7   3  -3 -0.4405 1.29431   1
  -7  -3   3 0.88618 1.45530   2
   6   3  -3 8.06296 1.87872   1
  -6  -3   3 5.93277 1.51487   2
   5   3  -3 74.1658 3.53717   1
  -5  -3   3 72.8772 3.05541   4
  -5  -3   3 67.5283 3.11220   2
   4   3  -3 63.5957 2.95684   1
  -4  -3   3 61.9850 2.62655   5
  -4  -3   3 64.1183 2.52020   4
  -4  -3   3 64.4348 2.76994   2
   3   3  -3 130.544 4.04032   1
  -3  -3   3 132.535 3.52762   4
  -3  -3   3 138.478 3.99131   2
  -3  -3   3 136.134 3.98424   5
   2   3  -3 373.244 7.04787   3
   2   3  -3 374.081 8.32518   1
  -2  -3   3 371.503 8.09896   2
  -2  -3   3 365.685 8.39868   5
  -2  -3   3 365.862 7.53627   4
   1   3  -3 434.199 8.19830   3
   1   3  -3 421.388 9.15088   1
  -1  -3   3 429.062 8.92231   2
  -1  -3   3 434.702 9.42063   5
   0   3  -3 295.454 5.92522   3
   0  -3   3 297.909 6.21912   2
   0  -3   3 295.197 6.67482   5
   0  -3   3 291.559 6.52170   1
  -1   3  -3 2592.10 46.6384   3
  -1   3  -3 2595.97 48.1382   4
   1  -3   3 2461.51 46.7561   2
   1  -3   3 2524.44 48.1257   1
   1  -3   3 2578.59 49.6104   5
  -2   3  -3 46.8810 1.74477   3
  -2   3  -3 43.7857 1.51283   4
   2  -3   3 40.7367 1.11503   2
   2  -3   3 41.2871 1.72087   1
  -3   3  -3 565.508 11.6113   3
  -3   3  -3 575.910 11.7110   4
   3  -3   3 561.848 11.9023   1
  -4   3  -3 126.214 3.82046   3
  -4   3  -3 130.572 3.77875   4
   4  -3   3 123.548 3.84577   1
  -5   3  -3 16.8225 1.74378   4
  -5   3  -3 18.5531 1.67440   3
   5  -3   3 20.2054 1.93072   1
  -6   3  -3 18.2540 1.99647   4
  -6   3  -3 18.5399 1.93933   3
   6  -3   3 18.7055 2.12328   1
  -7   3  -3 3.99418 1.28763   4
  -7   3  -3 2.67141 1.15029   3
   7  -3   3 3.58202 1.60058   1
  -8   3  -3 16.0252 2.31188   4
  -8   3  -3 18.8511 2.36380   3
   8  -3   3 19.6690 2.47635   1
   9  -3   3 5.28702 2.33003   1
   8   2  -3 0.33806 1.93008   1
   7   2  -3 12.9331 2.32255   1
  -7  -2   3 17.8174 2.22520   4
   6   2  -3 5.20582 1.66957   1
  -6  -2   3 5.17434 1.37771   4
  -6  -2   3 5.30310 1.29321   2
   5   2  -3 9.42397 1.60015   1
  -5  -2   3 7.82824 1.33307   4
  -5  -2   3 12.5577 1.46234   2
  -5  -2   3 11.0666 1.28825   5
   4   2  -3 3.19426 1.10495   1
  -4  -2   3 2.48441 0.80380   4
  -4  -2   3 2.81261 0.83843   5
  -4  -2   3 2.10626 0.81328   2
   3   2  -3 130.285 3.83805   1
  -3  -2   3 128.861 3.62430   5
  -3  -2   3 131.197 3.62645   2
  -3  -2   3 132.513 2.75197   3
  -3  -2   3 126.888 3.41813   4
   2   2  -3 52.2294 1.97447   1
  -2  -2   3 48.8231 1.82868   2
  -2  -2   3 51.8627 1.58668   4
  -2  -2   3 50.7981 1.87704   5
   1   2  -3 244.973 5.45665   1
  -1  -2   3 244.025 5.29905   2
  -1  -2   3 249.506 4.91843   4
  -1  -2   3 245.297 5.57978   5
   0   2  -3 176.109 3.53955   3
   0  -2   3 169.895 4.01279   5
   0  -2   3 172.845 3.73826   2
   0  -2   3 171.725 3.97064   1
  -1   2  -3 520.794 10.1286   3
   1  -2   3 512.735 10.4828   1
   1  -2   3 533.088 9.90924   2
   1  -2   3 534.449 10.6360   5
  -2   2  -3 168.222 3.92920   3
   2  -2   3 160.454 3.97150   1
   2  -2   3 170.589 3.66838   5
  -3   2  -3 468.794 9.62300   3
   3  -2   3 462.853 9.92664   1
  -4   2  -3 46.5843 2.17400   4
  -4   2  -3 49.4885 2.03763   3
   4  -2   3 48.5807 2.25546   1
  -5   2  -3 160.803 4.58142   3
  -5   2  -3 157.614 4.73272   4
   5  -2   3 153.017 4.78426   1
  -6   2  -3 233.951 6.57017   4
  -6   2  -3 225.297 6.15614   3
   6  -2   3 232.650 6.65161   1
  -7   2  -3 21.2587 2.06910   3
  -7   2  -3 17.4636 2.27153   4
   7  -2   3 17.3202 2.27152   1
  -8   2  -3 39.2147 3.48675   4
  -8   2  -3 41.6093 3.06189   3
   8  -2   3 45.7516 3.57869   1
   8   1  -3 2.10273 1.52078   1
  -8  -1   3 1.81014 1.57801   4
   7   1  -3 22.3903 2.62369   1
  -7  -1   3 24.8960 2.49734   4
   6   1  -3 11.6580 1.82891   1
  -6  -1   3 13.7435 1.53993   2
  -6  -1   3 14.3502 1.86846   4
   5   1  -3 140.427 4.65594   1
  -5  -1   3 143.798 4.13420   2
  -5  -1   3 142.540 4.08192   5
  -5  -1   3 147.003 4.44788   4
   4   1  -3 56.6926 2.41685   1
  -4  -1   3 60.3505 2.34966   4
  -4  -1   3 58.3036 2.19711   5
  -4  -1   3 61.4977 2.24993   2
  -4  -1   3 55.7600 1.72446   3
   3   1  -3 4.74407 0.89424   1
  -3  -1   3 5.82931 0.77976   2
  -3  -1   3 6.53024 0.52072   3
  -3  -1   3 4.79919 0.69610   5
  -3  -1   3 6.71315 0.84871   4
   2   1  -3 651.952 12.9335   1
  -2  -1   3 658.342 12.6847   4
  -2  -1   3 644.524 12.5650   2
  -2  -1   3 625.755 13.1388   5
   1   1  -3 1113.91 21.3156   1
  -1  -1   3 1128.77 22.0052   5
  -1  -1   3 1097.90 21.0516   4
  -1  -1   3 1127.21 20.8803   2
   0  -1   3 84.8384 2.05665   1
   0  -1   3 84.7992 2.08593   5
   0  -1   3 86.6706 1.85275   3
   0  -1   3 84.1328 1.96371   2
   0  -1   3 84.1522 1.90572   4
   1  -1   3 6684.65 123.858   3
   1  -1   3 6466.88 130.551   5
   1  -1   3 6753.42 123.992   2
   1  -1   3 7050.24 126.550   1
  -2   1  -3 166.418 3.31052   2
   2  -1   3 161.720 3.83134   1
   2  -1   3 157.107 3.68411   3
  -3   1  -3 233.001 4.79667   2
   3  -1   3 236.229 5.59704   1
   3  -1   3 241.574 5.36621   3
  -4   1  -3 540.985 10.3718   2
  -4   1  -3 526.397 11.0708   3
   4  -1   3 530.144 11.5203   1
  -5   1  -3 1.99840 1.01594   4
  -5   1  -3 1.50917 0.70886   3
   5  -1   3 1.71896 1.03596   1
  -6   1  -3 214.695 6.42173   4
  -6   1  -3 218.880 5.97624   3
   6  -1   3 220.226 6.47974   1
  -7   1  -3 25.8246 2.31434   3
  -7   1  -3 20.6770 2.30693   4
   7  -1   3 19.2014 2.46417   1
  -8   1  -3 1.76293 1.73032   4
   8  -1   3 0.99999 1.72113   1
   8   0  -3 6.14752 1.81180   1
  -8   0   3 5.34268 1.53175   4
   7   0  -3 21.7329 2.55733   1
  -7   0   3 21.9209 2.24428   4
   6   0  -3 335.275 8.60796   1
  -6   0   3 329.360 7.58832   2
  -6   0   3 312.600 8.19778   4
   5   0  -3 29.4012 1.89082   1
  -5   0   3 29.9393 1.50506   3
  -5   0   3 28.2832 1.89875   4
  -5   0   3 27.8521 1.58937   2
   4   0  -3 192.724 5.42356   1
  -4   0   3 249.384 5.59397   4
  -4   0   3 217.277 5.07256   2
  -4   0   3 215.610 4.76821   3
  -4   0   3 203.219 5.14423   5
   3   0  -3 113.396 3.13229   1
  -3   0   3 108.894 3.02632   4
  -3   0   3 105.320 2.80164   2
  -3   0   3 107.427 2.56192   3
  -3   0   3 107.868 2.93633   5
   2   0  -3 242.543 5.25265   1
  -2   0   3 242.254 5.33953   5
  -2   0   3 240.399 4.77114   3
  -2   0   3 241.308 5.05400   2
  -2   0   3 237.051 5.22935   4
   1   0  -3 300.611 6.17308   1
  -1   0   3 312.190 5.93637   3
  -1   0   3 319.832 6.17812   2
  -1   0   3 313.903 6.52378   5
  -1   0   3 308.524 6.28142   4
   0   0   3 429.863 8.17458   3
   0   0   3 430.528 8.25639   2
   0   0   3 422.635 8.42708   4
  -1   0  -3 168.380 3.55752   2
   1   0   3 170.676 3.63955   3
   1   0   3 162.751 3.54457   1
  -2   0  -3 -0.2579 0.28058   2
   2   0   3 -0.3594 0.37656   3
   2   0   3 0.46077 0.39906   1
  -3   0  -3 5.77090 0.64697   2
   3   0   3 5.96335 0.84569   1
   3   0   3 5.97033 0.78156   3
  -4   0  -3 -0.3093 0.47529   2
   4   0   3 -0.1102 0.46045   3
   4   0   3 0.38066 0.77339   1
  -5   0  -3 16.7073 1.31499   2
  -5   0  -3 16.7559 1.79939   4
   5   0   3 16.7920 1.56303   3
   5   0   3 20.9541 1.93418   1
  -6   0  -3 5.44411 1.23185   3
  -6   0  -3 6.48920 1.52773   4
   6   0   3 7.91736 1.63812   1
  -7   0  -3 -0.6901 1.31407   4
   7   0   3 -1.1992 1.32858   1
  -8   0  -3 1.95801 1.42572   4
   8   0   3 1.15952 1.88527   1
   9  -1  -3 -0.8270 1.99561   1
  -9   1   3 -0.0067 1.23498   4
   8  -1  -3 64.6746 4.01978   1
  -8   1   3 63.5615 3.74498   4
   7  -1  -3 16.3127 2.06421   1
  -7   1   3 15.8964 1.91037   4
   6  -1  -3 32.7200 2.44350   1
  -6   1   3 27.9016 1.73376   3
  -6   1   3 36.8028 2.37869   4
   5  -1  -3 70.4799 2.93835   1
  -5   1   3 74.4233 2.38212   2
  -5   1   3 68.9534 2.38560   3
  -5   1   3 67.1279 2.83302   4
   4  -1  -3 92.1407 3.05676   1
  -4   1   3 98.1582 2.71282   3
  -4   1   3 93.6557 2.59556   2
  -4   1   3 93.0303 3.09239   4
   3  -1  -3 1031.26 20.6693   1
  -3   1   3 1075.78 20.0022   2
  -3   1   3 1061.47 20.8042   4
  -3   1   3 1074.73 19.9451   3
   2  -1  -3 6.35180 0.62084   1
  -2   1   3 6.62195 0.62382   3
  -2   1   3 6.05504 0.66361   4
  -2   1   3 5.48746 0.55124   2
   1  -1  -3 12.1889 0.74163   2
  -1   1   3 13.9516 0.74379   4
  -1   1   3 12.9565 0.69929   3
   0  -1  -3 35.5424 1.26715   2
   0   1   3 39.8725 1.28330   4
   0   1   3 35.6948 1.27915   3
  -1  -1  -3 1322.24 24.5808   2
   1   1   3 1295.24 24.9968   4
   1   1   3 1320.16 24.7134   1
   1   1   3 1313.09 24.3631   3
  -2  -1  -3 4.35442 0.63466   2
   2   1   3 4.55508 0.64276   3
   2   1   3 4.01786 0.60286   1
  -3  -1  -3 22.2813 0.95672   5
  -3  -1  -3 17.7595 1.16748   2
   3   1   3 20.6166 1.31005   1
   3   1   3 19.7353 1.21569   3
  -4  -1  -3 2.29030 0.78046   2
   4   1   3 1.31180 0.73173   3
   4   1   3 1.60596 0.82431   1
  -5  -1  -3 4.59793 1.32458   4
  -5  -1  -3 6.66907 1.13054   2
   5   1   3 8.39480 1.39332   1
   5   1   3 5.47378 1.08505   3
  -6  -1  -3 9.31573 1.58319   4
   6   1   3 6.02237 1.56222   1
  -7  -1  -3 1.30846 1.24791   4
   7   1   3 1.35474 1.60089   1
  -8  -1  -3 -2.2164 1.61012   4
   8   1   3 -1.4001 1.83606   1
   9  -2  -3 -0.1687 1.52331   1
  -9   2   3 -1.2220 1.18221   4
   8  -2  -3 -1.3422 1.54566   1
  -8   2   3 0.98551 1.10951   4
   7  -2  -3 22.1897 2.41473   1
  -7   2   3 20.5912 2.30090   4
   6  -2  -3 -0.7445 1.04218   1
  -6   2   3 0.52687 0.77720   3
  -6   2   3 -0.3339 0.85160   4
   5  -2  -3 3.02550 1.02123   1
  -5   2   3 5.87261 1.02486   4
  -5   2   3 3.29116 0.67845   2
  -5   2   3 4.17976 0.86050   3
   4  -2  -3 460.113 9.81621   1
  -4   2   3 445.023 9.91926   4
  -4   2   3 448.441 9.04062   2
  -4   2   3 449.215 9.42530   3
   3  -2  -3 165.851 4.12230   1
  -3   2   3 169.841 3.80813   2
  -3   2   3 169.371 4.10526   3
  -3   2   3 170.180 4.30234   4
   2  -2  -3 322.084 6.66734   1
   2  -2  -3 329.369 6.64882   2
  -2   2   3 325.321 6.95653   4
  -2   2   3 320.871 6.78714   3
   1  -2  -3 110.336 2.42505   1
   1  -2  -3 108.720 2.77956   2
  -1   2   3 111.915 2.81655   3
  -1   2   3 113.819 2.80581   4
   0  -2  -3 25.7596 1.14978   2
   0   2   3 27.0721 1.18286   3
   0   2   3 26.3906 0.82938   1
   0   2   3 26.3295 1.05432   4
  -1  -2  -3 681.240 13.4855   2
   1   2   3 682.524 13.2821   3
   1   2   3 693.167 13.2668   1
   1   2   3 674.370 13.5163   4
  -2  -2  -3 112.932 3.19270   2
   2   2   3 111.380 3.00417   1
   2   2   3 109.873 3.04113   3
  -3  -2  -3 731.657 14.7706   2
  -3  -2  -3 735.406 14.9144   5
   3   2   3 747.727 14.4797   3
   3   2   3 699.356 14.8787   1
  -4  -2  -3 3.20049 0.94028   2
   4   2   3 3.08076 1.01102   1
   4   2   3 2.36040 0.87089   3
  -5  -2  -3 56.2295 2.67284   2
  -5  -2  -3 67.3687 3.14206   4
   5   2   3 63.4590 2.67435   3
   5   2   3 67.3924 3.12416   1
  -6  -2  -3 53.1124 3.19150   4
   6   2   3 51.8699 3.17854   1
  -7  -2  -3 -2.5278 1.37279   4
   7   2   3 -0.3409 1.58932   1
   9  -3  -3 -0.6315 1.45702   1
  -9   3   3 -0.1563 1.34285   4
   8  -3  -3 2.41329 1.37573   1
  -8   3   3 3.27739 1.77000   4
   7  -3  -3 0.06326 1.28497   1
  -7   3   3 1.85751 1.09713   3
  -7   3   3 0.52328 1.15138   4
   6  -3  -3 73.2595 3.30673   1
  -6   3   3 74.1154 3.31379   4
  -6   3   3 77.5928 3.07330   3
   5  -3  -3 12.2853 1.44633   1
  -5   3   3 11.2998 1.33946   3
  -5   3   3 11.1383 1.45670   4
   4  -3  -3 158.037 4.20637   1
   4  -3  -3 149.216 3.61197   2
  -4   3   3 155.286 4.35096   4
  -4   3   3 147.593 4.16208   3
   3  -3  -3 460.655 9.64061   1
   3  -3  -3 459.416 9.27474   2
  -3   3   3 458.458 9.84213   4
  -3   3   3 468.624 9.72330   3
   2  -3  -3 85.6827 2.32326   1
   2  -3  -3 85.3876 2.44974   2
  -2   3   3 91.4433 2.58158   4
  -2   3   3 86.9245 2.63389   3
   1  -3  -3 1151.00 21.8445   2
   1  -3  -3 1135.39 21.7088   1
  -1   3   3 1147.14 22.0313   4
  -1   3   3 1141.34 21.7481   3
   0  -3  -3 52.9077 2.01957   2
   0   3   3 57.2191 1.98595   3
   0   3   3 55.5328 1.60502   1
   0   3   3 55.4984 1.79997   4
  -1  -3  -3 0.95735 0.62621   2
   1   3   3 1.84691 0.51550   1
   1   3   3 1.10132 0.58299   3
   1   3   3 2.03758 0.55442   4
  -2  -3  -3 6.44977 1.02556   2
   2   3   3 5.07090 0.82022   1
   2   3   3 6.46864 0.91183   3
  -3  -3  -3 49.7345 2.11723   5
  -3  -3  -3 47.9195 2.37014   2
   3   3   3 52.4026 2.18811   3
   3   3   3 50.7674 2.24497   1
  -4  -3  -3 13.9861 1.60851   2
   4   3   3 16.5574 1.82350   1
   4   3   3 13.8869 1.45736   3
  -5  -3  -3 6.00344 1.43813   4
  -5  -3  -3 6.53334 1.40681   2
   5   3   3 4.17035 1.39838   1
  -6  -3  -3 3.40095 1.61501   4
  -6  -3  -3 5.90530 1.60043   2
   6   3   3 4.89198 1.66934   1
   9  -4  -3 0.66033 1.85864   1
  -9   4   3 0.84977 1.82787   4
   8  -4  -3 3.27890 1.70713   1
  -8   4   3 2.05384 1.62237   4
  -8   4   3 1.31468 1.24567   3
   7  -4  -3 7.89226 1.72845   1
  -7   4   3 7.64202 1.70550   4
  -7   4   3 6.95673 1.47591   3
   6  -4  -3 6.07768 1.38672   1
  -6   4   3 5.08320 1.29954   4
  -6   4   3 4.32364 1.20136   3
   5  -4  -3 151.902 4.50743   1
  -5   4   3 141.056 4.46680   4
  -5   4   3 146.742 4.50225   3
   4  -4  -3 306.274 7.35360   1
   4  -4  -3 319.158 6.84245   2
  -4   4   3 322.834 7.62017   4
  -4   4   3 332.387 7.63325   3
   3  -4  -3 38.2137 1.64784   1
   3  -4  -3 40.4845 1.62210   2
  -3   4   3 36.0707 1.91288   3
  -3   4   3 36.7603 1.77251   4
   2  -4  -3 51.0154 1.93436   2
   2  -4  -3 50.6366 1.75109   1
  -2   4   3 47.8630 1.86515   4
  -2   4   3 53.0358 2.17141   3
   1  -4  -3 56.2536 1.78777   1
   1  -4  -3 53.8551 2.10539   2
  -1   4   3 53.7129 2.09276   3
  -1   4   3 53.5472 1.86614   4
   0  -4  -3 10.9624 1.19138   2
   0   4   3 9.51910 0.88445   1
   0   4   3 10.6806 0.97372   4
   0   4   3 10.3009 1.12832   3
  -1  -4  -3 175.186 4.79535   2
   1   4   3 170.711 4.53120   3
   1   4   3 175.660 4.33116   1
  -2  -4  -3 4.15453 1.06702   2
   2   4   3 2.95269 0.89676   3
   2   4   3 1.34576 0.84894   1
  -3  -4  -3 24.2295 1.81695   2
  -3  -4  -3 27.1577 1.88767   5
   3   4   3 25.4723 2.06833   1
   3   4   3 23.7377 1.75755   3
  -4  -4  -3 17.9196 1.96484   2
  -5  -4  -3 4.46256 1.30581   2
  -6  -4  -3 5.24210 1.81344   2
   9  -5  -3 3.69426 2.11427   1
  -9   5   3 3.25558 1.73189   3
  -9   5   3 3.01112 2.08418   4
   8  -5  -3 0.12348 1.49893   1
  -8   5   3 2.40768 1.65790   4
  -8   5   3 1.05969 1.38158   3
   7  -5  -3 3.35063 1.52817   1
  -7   5   3 2.16108 1.33693   3
  -7   5   3 1.66739 1.35934   4
   6  -5  -3 -0.3668 0.99914   1
  -6   5   3 1.31477 1.13191   3
  -6   5   3 0.75848 1.12290   4
   5  -5  -3 3.49643 1.14051   1
  -5   5   3 0.74509 0.77552   3
  -5   5   3 0.86435 0.96573   4
   4  -5  -3 98.8876 3.28896   1
  -4   5   3 96.7071 3.59735   3
  -4   5   3 97.6985 3.41459   4
   3  -5  -3 550.685 11.8672   2
   3  -5  -3 594.358 12.1815   1
  -3   5   3 586.617 12.4718   3
  -3   5   3 593.421 12.2913   4
   2  -5  -3 118.169 3.58711   2
   2  -5  -3 126.427 3.43585   1
  -2   5   3 122.716 3.79279   3
  -2   5   3 123.880 3.49949   4
   1  -5  -3 306.977 7.08648   2
  -1   5   3 291.136 6.58487   4
  -1   5   3 289.011 7.03103   3
   0  -5  -3 541.388 11.7116   2
   0   5   3 550.721 11.5147   3
   0   5   3 531.029 11.3634   1
   0   5   3 539.410 11.2265   4
  -1  -5  -3 4.35510 1.04881   2
   1   5   3 4.37025 1.05589   3
  -2  -5  -3 171.496 5.29011   2
   2   5   3 167.438 4.83051   3
  -3  -5  -3 9.61175 1.56420   5
  -3  -5  -3 12.4303 1.79585   2
  -4  -5  -3 9.41777 1.81246   2
  -5  -5  -3 12.2682 2.13928   2
   8  -6  -3 14.0579 2.35800   1
  -8   6   3 12.4885 2.34597   4
  -8   6   3 10.6746 2.12962   3
   7  -6  -3 -0.9688 1.27081   1
  -7   6   3 3.72022 1.62130   4
  -7   6   3 3.16304 1.24420   3
   6  -6  -3 23.5542 2.26497   1
  -6   6   3 23.7152 2.29645   4
  -6   6   3 22.9768 2.28301   3
   5  -6  -3 108.021 3.88559   1
  -5   6   3 109.055 3.97861   4
  -5   6   3 106.798 4.20320   3
   4  -6  -3 42.7490 2.25814   1
  -4   6   3 41.9394 2.25637   4
  -4   6   3 39.1857 2.54355   3
   3  -6  -3 161.617 4.81691   1
   3  -6  -3 159.055 4.42874   2
  -3   6   3 154.318 4.90947   3
  -3   6   3 154.730 4.39605   4
   2  -6  -3 0.15132 0.82125   2
  -2   6   3 0.37550 0.77220   3
   1  -6  -3 161.427 4.84439   2
  -1   6   3 161.309 4.83724   3
   0  -6  -3 4.47735 1.09731   2
   0   6   3 4.52259 1.13642   3
  -1  -6  -3 0.12982 1.17545   2
   1   6   3 0.30676 0.97848   3
  -2  -6  -3 40.0110 2.82596   2
  -3  -6  -3 1.09832 1.11506   2
  -4  -6  -3 -1.3310 1.04022   2
   8  -7  -3 -0.7182 1.75839   1
  -8   7   3 3.31378 2.01827   4
  -8   7   3 1.01387 1.82163   3
   7  -7  -3 5.56097 1.89370   1
  -7   7   3 7.52368 1.99293   3
  -6   7   3 10.5973 1.87069   4
  -6   7   3 10.3613 2.03369   3
  -5   7   3 45.9528 3.09731   3
  -4   7   3 3.85421 1.22620   3
   3  -7  -3 151.696 4.66477   2
  -3   7   3 155.297 5.15113   3
   2  -7  -3 168.305 5.11273   2
  -2   7   3 172.570 5.39251   3
   1  -7  -3 19.3223 2.01909   2
  -1   7   3 23.8388 2.15951   3
   0  -7  -3 7.22481 1.63538   2
   0   7   3 5.95890 1.40208   3
  -1  -7  -3 0.20949 1.29856   2
  -2  -7  -3 1.00876 1.53379   2
  -2  -7  -3 2.96764 1.42277   5
  -3  -7  -3 0.07271 1.59576   2
  -7   8   3 0.90360 1.82938   3
  -6   8   3 -0.2906 1.08588   3
  -5   8   3 35.5571 2.71986   3
  -4   8   3 8.53304 1.92042   3
  -3   8   3 32.2159 2.86004   3
   2  -8  -3 51.4401 3.03226   2
  -2   8   3 55.6661 3.22065   3
   1  -8  -3 2.03373 1.48757   2
  -1   8   3 2.73532 1.36509   3
   0  -8  -3 37.7515 3.13868   2
   0   8   3 42.8580 2.85289   3
  -1  -8  -3 5.01314 1.55663   2
  -2  -8  -3 15.6252 2.61795   2
  -2  -8  -3 11.8506 2.30830   5
  -6   9   3 3.67453 2.05649   3
  -5   9   3 0.19390 1.78472   3
  -4   9   3 4.36237 1.82653   3
  -3   9   3 7.01243 1.93224   3
   2  -9  -3 1.01456 1.49606   2
  -2   9   3 0.34612 1.03075   3
   1  -9  -3 -2.0870 1.38993   2
  -1   9   3 -1.1576 1.38286   3
   0  -9  -3 2.70604 1.87722   2
   1 -10   4 2.74381 2.08771   5
  -2  10  -4 5.76039 2.05164   1
   2 -10   4 4.01197 1.99930   5
   3 -10   4 -0.9449 1.20773   5
   3 -10   4 1.20107 1.71902   1
  -4  10  -4 0.81273 1.67938   3
   4 -10   4 3.30579 1.84654   5
   4 -10   4 2.21316 1.96943   1
   1   9  -4 8.30130 2.04170   1
  -1  -9   4 9.87724 2.24492   2
  -1  -9   4 8.72874 2.22804   5
   0   9  -4 0.66911 1.48327   1
   0  -9   4 2.09611 1.74719   5
   0  -9   4 -0.3578 1.44907   2
  -1   9  -4 0.57743 1.40589   1
   1  -9   4 0.87514 1.61532   5
   2  -9   4 2.10929 1.54053   1
   2  -9   4 1.62841 1.61897   5
  -3   9  -4 1.22731 1.41783   3
   3  -9   4 3.13991 1.75595   1
   3  -9   4 5.86515 1.82764   5
  -4   9  -4 0.37695 1.48216   3
   4  -9   4 0.33237 1.44229   5
   4  -9   4 0.62053 1.54444   1
  -5   9  -4 6.92766 1.68524   3
   5  -9   4 2.85107 1.84040   1
  -6   9  -4 -0.3143 1.63730   3
   6  -9   4 1.12205 1.88410   1
   3   8  -4 14.3615 2.47526   1
  -3  -8   4 13.6414 2.47495   5
  -3  -8   4 15.1547 2.61103   2
   2   8  -4 0.43978 1.51685   1
  -2  -8   4 -2.2277 1.32450   5
  -2  -8   4 -0.4647 1.54240   2
   1   8  -4 -0.3622 1.30226   1
  -1  -8   4 -0.8842 0.97938   5
  -1  -8   4 -1.2789 1.33353   2
   0   8  -4 0.91177 1.28941   1
   0  -8   4 0.99604 1.22330   2
   0  -8   4 0.69760 1.37843   5
  -1   8  -4 13.1696 1.99542   1
   1  -8   4 15.1502 2.16460   5
   1  -8   4 13.9946 1.71864   2
  -2   8  -4 4.40166 1.33339   3
   2  -8   4 3.97066 1.51266   5
   2  -8   4 5.91099 1.58271   1
  -3   8  -4 2.48510 1.28156   3
   3  -8   4 -0.3353 0.96624   1
   3  -8   4 1.16233 1.22596   5
  -4   8  -4 11.1424 1.87840   3
   4  -8   4 14.4592 2.12143   1
  -5   8  -4 -0.7772 1.38225   3
   5  -8   4 2.22109 1.61570   1
  -6   8  -4 8.23271 1.69175   3
   6  -8   4 12.3560 2.34943   1
  -7   8  -4 3.76956 1.79404   3
   7  -8   4 1.03689 1.53970   1
   4   7  -4 5.21840 1.95257   1
  -4  -7   4 2.76900 1.77677   2
  -4  -7   4 3.06265 1.85924   5
   3   7  -4 -0.6678 1.41327   1
  -3  -7   4 2.36197 1.48872   2
  -3  -7   4 1.43721 1.47577   5
   2   7  -4 39.7710 2.89913   1
  -2  -7   4 39.0391 2.93255   5
  -2  -7   4 31.0080 2.71173   2
   1   7  -4 40.9921 2.75109   1
  -1  -7   4 35.8370 2.71726   5
  -1  -7   4 37.9269 2.56902   2
   0   7  -4 67.6569 3.28601   1
   0  -7   4 67.1927 3.38130   5
   0  -7   4 78.9005 3.22600   2
  -1   7  -4 0.47918 0.85633   3
   1  -7   4 0.97638 0.91718   2
   1  -7   4 2.02335 0.92640   1
   1  -7   4 0.47744 1.07769   5
  -2   7  -4 53.5222 2.57637   3
   2  -7   4 49.7035 2.78163   1
   2  -7   4 56.0201 2.96343   5
  -3   7  -4 2.52384 1.11885   3
   3  -7   4 3.33943 1.25242   1
  -4   7  -4 53.0195 2.95706   3
   4  -7   4 55.8781 3.12264   1
  -5   7  -4 114.902 4.51781   3
   5  -7   4 112.296 4.61083   1
  -6   7  -4 -0.3087 1.32254   3
   6  -7   4 -1.2815 1.40300   1
  -7   7  -4 1.86441 1.25503   3
   7  -7   4 0.45437 1.72745   1
  -8   7  -4 0.51170 1.64996   3
  -8   7  -4 0.20557 1.67863   4
   8  -7   4 -0.4172 1.91897   1
   5   6  -4 -0.8770 1.73221   1
  -5  -6   4 -0.5381 1.57525   2
   4   6  -4 10.0475 1.96488   1
  -4  -6   4 11.7560 1.98394   5
  -4  -6   4 8.65637 1.87572   2
   3   6  -4 2.32768 1.35566   1
  -3  -6   4 2.85141 1.37625   5
  -3  -6   4 1.58744 1.04262   2
   2   6  -4 138.842 4.84661   1
  -2  -6   4 143.492 4.78975   2
  -2  -6   4 145.292 5.00824   5
   1   6  -4 135.502 4.52569   1
  -1  -6   4 134.990 4.63662   5
  -1  -6   4 137.739 4.40159   2
   0   6  -4 31.2100 2.16655   1
   0   6  -4 33.4523 1.76163   3
   0  -6   4 36.5107 2.07200   2
   0  -6   4 36.3253 2.32849   5
  -1   6  -4 -0.0104 0.76793   3
   1  -6   4 -0.7642 0.65898   2
   1  -6   4 0.37512 0.72577   5
   1  -6   4 -0.3303 0.62688   1
  -2   6  -4 73.2464 2.74632   3
   2  -6   4 64.1419 2.84935   5
   2  -6   4 61.5728 2.28984   2
   2  -6   4 63.6706 2.86680   1
  -3   6  -4 3.34817 1.07313   3
   3  -6   4 1.63509 0.88371   1
  -4   6  -4 1.67351 0.86686   3
   4  -6   4 -0.3716 0.73890   1
  -5   6  -4 29.7988 2.35200   3
  -5   6  -4 30.3193 2.03769   4
   5  -6   4 32.8131 2.51894   1
  -6   6  -4 27.5946 2.46273   3
  -6   6  -4 23.6842 2.28369   4
   6  -6   4 25.5685 2.63643   1
  -7   6  -4 0.25038 1.38514   4
  -7   6  -4 0.75861 1.10347   3
   7  -6   4 -0.8926 1.49958   1
  -8   6  -4 -1.6382 1.49313   4
  -8   6  -4 -0.1758 1.51384   3
   8  -6   4 -0.3668 1.73593   1
   6   5  -4 0.61775 1.92957   1
  -6  -5   4 -0.0312 1.60349   2
   5   5  -4 3.74684 1.72606   1
  -5  -5   4 2.54139 1.47955   2
   4   5  -4 20.3565 2.23505   1
  -4  -5   4 16.9237 2.00549   5
  -4  -5   4 17.8154 2.10875   2
   3   5  -4 0.16960 0.79135   1
  -3  -5   4 0.18218 1.00819   5
  -3  -5   4 -1.6065 0.88963   2
   2   5  -4 7.59385 1.23893   1
  -2  -5   4 7.02367 1.19623   2
  -2  -5   4 5.69291 1.10284   5
   1   5  -4 85.7857 3.18864   1
  -1  -5   4 94.1067 3.13831   2
  -1  -5   4 93.5257 3.41798   5
   0   5  -4 55.9743 2.45879   1
   0   5  -4 55.0930 1.93972   3
   0  -5   4 51.3191 2.15264   2
   0  -5   4 56.6759 2.49404   5
  -1   5  -4 52.5756 1.99504   3
   1  -5   4 56.9516 2.38083   1
   1  -5   4 47.4498 1.89768   2
   1  -5   4 49.9557 2.29107   5
  -2   5  -4 0.94610 0.69364   3
  -2   5  -4 -0.1189 0.36104   4
   2  -5   4 0.49655 0.65742   5
   2  -5   4 -0.2096 0.46133   2
   2  -5   4 0.00943 0.53433   1
  -3   5  -4 -0.2703 0.57493   4
  -3   5  -4 -1.2323 0.66730   3
   3  -5   4 0.28795 0.85836   1
  -4   5  -4 7.56171 1.32744   3
  -4   5  -4 9.13546 1.21839   4
   4  -5   4 9.64108 1.48798   1
  -5   5  -4 62.1731 3.01359   3
  -5   5  -4 66.6353 2.91943   4
   5  -5   4 64.3580 3.12633   1
  -6   5  -4 1.95212 1.21450   3
  -6   5  -4 2.18841 1.05535   4
   6  -5   4 2.23848 1.37824   1
  -7   5  -4 -2.2738 0.91308   4
  -7   5  -4 -1.2152 1.24655   3
   7  -5   4 -1.8117 1.34656   1
  -8   5  -4 -2.9550 1.47978   4
  -8   5  -4 0.33152 1.50451   3
   8  -5   4 -1.5680 1.57008   1
   7   4  -4 4.17631 1.75622   1
  -7  -4   4 2.26956 1.77209   2
   6   4  -4 4.15738 1.84734   1
  -6  -4   4 5.53931 1.70785   2
   5   4  -4 -0.0042 1.35457   1
  -5  -4   4 0.63414 1.26237   2
  -5  -4   4 0.81607 1.11547   5
   4   4  -4 2.30459 1.19231   1
  -4  -4   4 0.13795 0.96033   5
  -4  -4   4 -1.0784 0.91689   2
   3   4  -4 1.59792 1.04995   1
  -3  -4   4 1.32680 0.89124   5
  -3  -4   4 0.99762 0.71831   2
   2   4  -4 464.003 10.5258   1
  -2  -4   4 475.667 10.7706   5
  -2  -4   4 476.280 10.2852   2
   1   4  -4 1.27757 0.42235   3
   1   4  -4 0.15982 0.53192   1
  -1  -4   4 0.64854 0.53006   5
  -1  -4   4 1.74394 0.67263   2
   0   4  -4 758.941 14.5676   3
   0  -4   4 758.261 15.0448   2
   0  -4   4 787.861 15.6618   1
   0  -4   4 753.177 16.0089   5
  -1   4  -4 117.495 3.02879   3
  -1   4  -4 109.236 2.45178   4
   1  -4   4 110.393 3.31443   5
   1  -4   4 111.862 3.31350   1
   1  -4   4 114.492 2.91088   2
  -2   4  -4 136.159 3.25824   4
  -2   4  -4 131.984 3.58501   3
   2  -4   4 131.233 3.81624   1
   2  -4   4 135.481 3.68881   5
   2  -4   4 131.462 3.04893   2
  -3   4  -4 520.542 10.8701   3
  -3   4  -4 517.394 10.7079   4
   3  -4   4 502.548 11.1534   1
  -4   4  -4 16.4581 1.62012   3
  -4   4  -4 18.6380 1.57237   4
   4  -4   4 19.1930 1.72434   1
  -5   4  -4 7.22500 1.21696   3
  -5   4  -4 6.80370 1.32869   4
   5  -4   4 9.47854 1.48896   1
  -6   4  -4 8.40639 1.59233   4
  -6   4  -4 8.39273 1.60803   3
   6  -4   4 7.77815 1.63880   1
  -7   4  -4 14.3201 2.20171   4
  -7   4  -4 13.4807 2.00770   3
   7  -4   4 10.4719 2.06381   1
  -8   4  -4 9.44017 2.01661   4
  -8   4  -4 10.5642 2.05307   3
   8  -4   4 11.8086 2.10735   1
   7   3  -4 4.05192 1.53201   1
  -7  -3   4 4.22806 1.70856   2
   6   3  -4 1.77353 1.51672   1
  -6  -3   4 0.00295 1.18199   2
   5   3  -4 48.5853 2.95055   1
  -5  -3   4 50.4597 2.70056   2
  -5  -3   4 42.0163 2.40402   5
   4   3  -4 0.34660 0.74331   1
  -4  -3   4 1.04065 0.74621   2
  -4  -3   4 1.81768 0.91531   5
  -4  -3   4 0.84647 0.77543   4
   3   3  -4 54.3369 2.51526   1
  -3  -3   4 52.9125 1.92908   4
  -3  -3   4 60.7651 2.45652   5
  -3  -3   4 58.9163 2.41005   2
   2   3  -4 620.236 13.0113   1
  -2  -3   4 617.181 12.6417   2
  -2  -3   4 620.411 13.2712   5
  -2  -3   4 618.287 12.1357   4
   1   3  -4 2.40066 0.59649   1
   1   3  -4 2.28648 0.32344   3
  -1  -3   4 1.88373 0.51795   2
  -1  -3   4 0.65548 0.26264   4
  -1  -3   4 1.41765 0.51496   5
   0   3  -4 346.413 6.85496   3
   0  -3   4 342.888 7.69650   5
   0  -3   4 352.316 7.57951   1
   0  -3   4 344.938 7.17873   2
  -1   3  -4 6.27987 0.73171   3
   1  -3   4 6.53694 0.63533   2
   1  -3   4 6.63130 0.76426   1
   1  -3   4 7.60442 0.75733   5
  -2   3  -4 3.78337 0.73497   3
   2  -3   4 3.02484 0.56868   5
   2  -3   4 2.72542 0.68560   1
   2  -3   4 3.34281 0.36980   2
  -3   3  -4 32.6563 1.59946   3
  -3   3  -4 30.8706 1.54349   4
   3  -3   4 30.6758 1.67868   1
   3  -3   4 31.5544 1.23514   5
  -4   3  -4 42.6732 2.01376   3
  -4   3  -4 45.5839 2.03413   4
   4  -3   4 41.4980 2.17616   1
  -5   3  -4 137.462 4.39701   4
  -5   3  -4 141.680 4.44146   3
   5  -3   4 146.840 4.66500   1
  -6   3  -4 4.95777 1.17684   3
  -6   3  -4 5.29773 1.37254   4
   6  -3   4 4.55157 1.48493   1
  -7   3  -4 19.8185 2.38241   4
  -7   3  -4 23.2554 2.40876   3
   7  -3   4 24.1157 2.47040   1
  -8   3  -4 33.1607 3.04936   3
  -8   3  -4 40.5909 3.61255   4
   8  -3   4 36.9455 3.28285   1
   8   2  -4 14.9608 2.80269   1
   7   2  -4 0.69941 1.68456   1
  -7  -2   4 -0.6533 1.24010   4
  -7  -2   4 -0.2970 1.14928   2
   6   2  -4 8.95319 1.80430   1
  -6  -2   4 9.42885 1.51741   2
  -6  -2   4 9.46525 1.55676   4
   5   2  -4 17.3972 1.98852   1
  -5  -2   4 21.6403 1.83871   4
  -5  -2   4 21.0239 1.85019   2
  -5  -2   4 17.2598 1.68105   5
   4   2  -4 128.619 4.18899   1
  -4  -2   4 126.763 3.88360   5
  -4  -2   4 127.807 3.88020   2
  -4  -2   4 135.525 3.80865   4
   3   2  -4 2.46783 0.70597   1
  -3  -2   4 4.82420 0.80287   2
  -3  -2   4 3.75156 0.73174   4
  -3  -2   4 3.08697 0.77832   5
   2   2  -4 738.384 15.0941   1
  -2  -2   4 760.973 14.5626   4
  -2  -2   4 743.931 15.4207   5
  -2  -2   4 744.221 14.7131   2
   1   2  -4 201.631 4.73080   1
  -1  -2   4 204.171 4.20820   4
  -1  -2   4 207.120 4.83949   5
  -1  -2   4 199.588 4.56962   2
   0   2  -4 163.275 3.40406   3
   0  -2   4 166.867 3.37973   4
   0  -2   4 163.867 3.89429   5
   0  -2   4 157.101 3.82609   1
   0  -2   4 160.005 3.60818   2
  -1   2  -4 442.268 8.67512   3
   1  -2   4 441.490 9.06842   5
   1  -2   4 440.313 9.01417   1
   1  -2   4 438.342 8.45503   2
  -2   2  -4 35.0177 0.96001   2
  -2   2  -4 33.0083 1.43290   3
   2  -2   4 36.6918 1.44573   1
   2  -2   4 34.9514 1.12291   5
  -3   2  -4 412.447 8.85052   3
   3  -2   4 428.837 9.17216   1
  -4   2  -4 36.2440 1.90562   3
   4  -2   4 36.1143 1.88073   1
  -5   2  -4 20.2367 1.90352   4
  -5   2  -4 21.2962 1.85177   3
   5  -2   4 20.8915 1.95245   1
  -6   2  -4 154.694 4.84812   3
  -6   2  -4 143.852 4.93026   4
   6  -2   4 154.525 5.15113   1
  -7   2  -4 35.6883 2.88005   4
  -7   2  -4 31.2814 2.67462   3
   7  -2   4 40.4711 3.05722   1
  -8   2  -4 7.49541 1.93055   3
  -8   2  -4 11.6281 2.07692   4
   8  -2   4 8.63635 2.20085   1
   8   1  -4 24.9143 3.11284   1
  -8  -1   4 32.6305 3.09401   4
   7   1  -4 5.98418 1.90347   1
  -7  -1   4 2.77518 1.35109   4
   6   1  -4 16.2674 2.13747   1
  -6  -1   4 16.6502 1.78102   2
  -6  -1   4 16.8768 1.93321   4
   5   1  -4 48.4667 2.65329   1
  -5  -1   4 46.6892 2.22507   2
  -5  -1   4 46.4859 2.35894   4
  -5  -1   4 45.5744 2.20512   5
   4   1  -4 33.1442 1.99985   1
  -4  -1   4 33.5624 1.69341   5
  -4  -1   4 33.2728 1.61325   2
  -4  -1   4 33.1366 1.75363   4
   3   1  -4 41.2967 1.85234   1
  -3  -1   4 41.1575 1.72243   5
  -3  -1   4 44.4844 1.73610   4
  -3  -1   4 42.8465 1.73473   2
  -3  -1   4 42.4524 1.15469   3
   2   1  -4 495.473 10.1513   1
  -2  -1   4 491.651 10.3695   5
  -2  -1   4 489.462 9.91983   4
  -2  -1   4 496.441 9.90650   2
   1   1  -4 35.1073 1.30809   1
  -1  -1   4 39.7125 1.40532   5
  -1  -1   4 34.6227 1.15607   4
  -1  -1   4 38.1055 1.31840   2
   0  -1   4 3357.29 65.8196   2
   0  -1   4 3519.34 64.9583   3
   0  -1   4 3574.09 67.0512   1
   0  -1   4 3561.55 68.9408   5
   0  -1   4 3568.08 66.4068   4
   1  -1   4 1336.00 24.7657   3
   1  -1   4 1350.72 25.4055   1
   1  -1   4 1331.48 26.0173   5
   1  -1   4 1346.09 24.7548   2
  -2   1  -4 42.0263 1.22501   2
   2  -1   4 41.0067 1.48123   3
   2  -1   4 41.2268 1.53826   1
  -3   1  -4 50.2392 1.47267   2
   3  -1   4 54.1112 1.89420   3
   3  -1   4 46.5711 1.92907   1
  -4   1  -4 12.7372 0.89873   2
   4  -1   4 13.4256 1.22319   3
   4  -1   4 12.6885 1.37096   1
  -5   1  -4 74.5407 2.84943   3
  -5   1  -4 72.4332 3.15098   4
   5  -1   4 78.0747 3.08964   1
  -6   1  -4 90.7228 3.85256   4
  -6   1  -4 82.8856 3.43094   3
   6  -1   4 84.1977 3.74623   1
  -7   1  -4 14.1186 2.23693   4
  -7   1  -4 12.0677 1.86706   3
   7  -1   4 13.4423 2.15705   1
  -8   1  -4 0.21408 1.69885   4
   8  -1   4 2.53326 1.82732   1
   8   0  -4 90.9586 4.72542   1
  -8   0   4 93.6101 4.25655   4
   7   0  -4 5.53798 1.48573   1
  -7   0   4 6.51354 1.54915   4
   6   0  -4 622.593 14.2625   1
  -6   0   4 630.758 13.2011   2
  -6   0   4 638.301 14.1055   4
   5   0  -4 109.734 3.79730   1
  -5   0   4 112.610 3.78578   4
  -5   0   4 116.489 3.41701   2
   4   0  -4 284.505 6.76158   1
  -4   0   4 277.581 6.65068   4
  -4   0   4 286.561 6.30778   2
  -4   0   4 270.558 5.85701   3
   3   0  -4 588.081 11.9966   1
  -3   0   4 584.246 12.1999   5
  -3   0   4 576.629 11.1011   3
  -3   0   4 584.589 11.9597   4
  -3   0   4 577.282 11.5570   2
   2   0  -4 4.17684 0.59997   1
  -2   0   4 4.56627 0.59258   2
  -2   0   4 2.85717 0.56083   4
  -2   0   4 3.09390 0.40355   3
  -2   0   4 3.98240 0.56813   5
   1   0  -4 592.375 11.2475   1
  -1   0   4 578.912 11.4259   4
  -1   0   4 586.202 11.2267   2
  -1   0   4 570.590 10.9216   3
   0   0   4 1954.44 35.7856   3
   0   0   4 1940.31 36.8086   4
   0   0   4 1990.38 36.1292   2
  -1   0  -4 147.685 3.31184   2
   1   0   4 148.927 3.49475   4
   1   0   4 142.712 3.35248   3
   1   0   4 146.430 3.20862   1
  -2   0  -4 81.7333 2.17551   2
   2   0   4 76.4048 2.23688   1
   2   0   4 79.4459 2.31187   3
  -3   0  -4 77.3864 2.25889   2
   3   0   4 76.1296 2.46380   3
   3   0   4 79.3445 2.55382   1
  -4   0  -4 104.826 2.94714   2
   4   0   4 108.971 3.48847   1
   5   0   4 -0.3796 0.92232   1
   5   0   4 0.30592 0.82699   3
  -6   0  -4 1.13913 1.29442   4
  -6   0  -4 0.65600 1.03574   3
   6   0   4 -0.3844 1.11969   1
  -7   0  -4 7.17462 1.91295   4
   7   0   4 5.35073 1.79508   1
  -8   0  -4 -1.2652 1.74048   4
   8   0   4 0.63724 1.88474   1
   9  -1  -4 3.39753 2.07765   1
  -9   1   4 3.82236 2.04347   4
   8  -1  -4 -0.5828 1.24240   1
  -8   1   4 0.99829 1.46097   4
   7  -1  -4 22.5896 2.33174   1
  -7   1   4 20.6406 2.20676   4
   6  -1  -4 14.8468 1.89651   1
  -6   1   4 14.0443 1.66008   4
   5  -1  -4 23.3720 1.86108   1
  -5   1   4 23.3136 1.47380   2
  -5   1   4 24.6967 1.41523   3
  -5   1   4 24.4498 1.81100   4
   4  -1  -4 160.305 4.37607   1
  -4   1   4 166.498 4.02037   2
  -4   1   4 162.705 3.98419   3
  -4   1   4 167.202 4.55399   4
   3  -1  -4 27.7832 1.35935   1
  -3   1   4 31.5815 1.27276   2
  -3   1   4 29.3748 1.41135   4
  -3   1   4 28.8763 1.23414   3
   2  -1  -4 10.3614 0.72969   1
  -2   1   4 12.4025 0.82232   4
  -2   1   4 10.9279 0.75727   2
  -2   1   4 10.5549 0.73555   3
   1  -1  -4 78.1805 2.11809   2
  -1   1   4 81.0060 2.20882   4
  -1   1   4 75.3198 2.06733   3
   0  -1  -4 47.5364 1.58525   2
   0   1   4 48.2535 1.57744   4
   0   1   4 45.2900 1.50445   3
  -1  -1  -4 28.2834 1.25193   2
   1   1   4 30.7735 1.25848   4
   1   1   4 28.8878 0.99052   1
   1   1   4 29.0498 1.21057   3
  -2  -1  -4 128.178 3.31518   2
   2   1   4 126.006 3.30177   3
   2   1   4 128.933 3.21732   1
  -3  -1  -4 2.42760 0.68903   2
   3   1   4 3.32589 0.77409   3
   3   1   4 3.00118 0.73496   1
  -4  -1  -4 7.41747 1.02834   2
   4   1   4 6.13040 1.05124   3
   4   1   4 8.35248 1.20494   1
  -5  -1  -4 0.31994 0.75262   2
   5   1   4 -0.5293 0.86382   3
   5   1   4 2.04913 1.04667   1
  -6  -1  -4 0.02302 1.21044   4
   6   1   4 1.03659 1.24229   1
   6   1   4 1.34338 1.10885   3
  -7  -1  -4 3.04172 1.72630   4
   7   1   4 -0.1063 1.57682   1
   9  -2  -4 1.22110 2.10709   1
  -9   2   4 -3.2285 1.56967   4
   8  -2  -4 0.49302 1.29839   1
  -8   2   4 -0.6839 0.94137   4
   7  -2  -4 -0.5813 1.22347   1
  -7   2   4 -0.4442 1.13349   4
   6  -2  -4 -0.6707 1.03890   1
  -6   2   4 0.46393 0.75833   4
  -6   2   4 1.15780 0.80132   3
   5  -2  -4 62.4278 2.68851   1
  -5   2   4 58.9100 2.12589   2
  -5   2   4 64.0608 2.40122   3
  -5   2   4 60.1896 2.60555   4
   4  -2  -4 75.0231 2.64726   1
  -4   2   4 79.7550 2.84559   4
  -4   2   4 76.3088 2.30476   2
  -4   2   4 80.7925 2.58298   3
   3  -2  -4 68.2569 2.18680   1
  -3   2   4 71.4760 2.12317   2
  -3   2   4 70.1194 2.41660   4
  -3   2   4 71.3500 2.25186   3
   2  -2  -4 37.4335 1.42272   2
   2  -2  -4 38.7814 1.27549   1
  -2   2   4 36.4151 1.49169   3
  -2   2   4 37.6241 1.53523   4
   1  -2  -4 13.8774 0.92302   2
  -1   2   4 13.3958 0.84991   3
  -1   2   4 11.1642 0.77691   4
   0  -2  -4 102.976 2.84247   2
   0   2   4 105.569 2.82271   3
   0   2   4 100.278 2.74204   4
  -1  -2  -4 7.20063 0.89405   2
   1   2   4 7.10342 0.62884   1
   1   2   4 7.69066 0.88673   3
   1   2   4 6.50481 0.83429   4
  -2  -2  -4 24.9972 1.44959   2
   2   2   4 22.9416 1.23452   1
   2   2   4 22.9109 1.36319   3
  -3  -2  -4 51.7203 2.22219   2
   3   2   4 52.6599 2.18130   3
   3   2   4 50.4933 2.10387   1
  -4  -2  -4 11.6993 1.37803   2
   4   2   4 12.8696 1.54803   1
   4   2   4 10.8650 1.33847   3
  -5  -2  -4 4.60060 1.16173   2
   5   2   4 2.65220 1.06615   3
   5   2   4 4.82880 1.32904   1
  -6  -2  -4 22.6370 2.54726   4
   6   2   4 19.3245 2.33258   1
  -7  -2  -4 3.42998 1.83274   4
   7   2   4 3.96540 1.84683   1
   9  -3  -4 1.19563 2.12535   1
  -9   3   4 2.65226 1.51284   4
   8  -3  -4 7.44697 2.02152   1
  -8   3   4 5.63923 1.79854   4
   7  -3  -4 27.8189 2.61739   1
  -7   3   4 22.9618 2.08081   3
  -7   3   4 26.3794 2.57212   4
   6  -3  -4 5.89678 1.34979   1
  -6   3   4 7.59509 1.30325   3
  -6   3   4 6.33479 1.25830   4
   5  -3  -4 55.3434 2.58616   1
  -5   3   4 64.1955 2.80151   4
  -5   3   4 61.4830 2.56349   3
   4  -3  -4 3.53307 0.69035   2
   4  -3  -4 4.64471 0.88149   1
  -4   3   4 3.25428 0.88434   3
  -4   3   4 3.19278 0.91169   4
   3  -3  -4 1006.92 19.8603   1
   3  -3  -4 1028.45 19.5434   2
  -3   3   4 1025.73 19.7949   3
  -3   3   4 1011.32 20.2685   4
   2  -3  -4 25.4458 1.09073   1
   2  -3  -4 31.4942 1.42983   2
  -2   3   4 25.8727 1.36434   4
  -2   3   4 26.8603 1.37928   3
   1  -3  -4 2301.20 44.0203   2
   1  -3  -4 2413.54 44.1209   1
  -1   3   4 2374.07 44.6888   4
  -1   3   4 2365.20 43.7617   3
   0  -3  -4 757.191 15.2181   2
   0   3   4 754.558 15.1809   4
   0   3   4 765.057 14.6532   1
   0   3   4 779.404 15.0953   3
  -1  -3  -4 130.427 3.73605   2
   1   3   4 129.693 3.60613   3
   1   3   4 129.359 3.51028   4
   1   3   4 127.946 3.17346   1
  -2  -3  -4 307.014 7.10925   2
   2   3   4 298.822 6.87608   3
   2   3   4 291.141 6.67831   1
  -3  -3  -4 0.25947 0.85846   2
   3   3   4 -0.9512 0.77773   3
   3   3   4 -1.1987 0.77472   1
  -4  -3  -4 48.7610 2.56969   2
   4   3   4 44.7314 2.42342   1
   4   3   4 45.9572 2.35041   3
  -5  -3  -4 0.54687 1.03757   2
   5   3   4 0.83765 1.16080   1
  -6  -3  -4 3.22101 1.45521   2
  -6  -3  -4 1.08825 1.54283   4
   9  -4  -4 2.11118 1.97477   1
  -9   4   4 4.51057 2.04512   4
   8  -4  -4 2.12746 1.69772   1
  -8   4   4 3.72893 1.42468   3
  -8   4   4 3.38512 1.63405   4
   7  -4  -4 35.4154 2.78334   1
  -7   4   4 40.0664 2.58645   3
  -7   4   4 40.6516 2.90178   4
   6  -4  -4 2.64127 1.14977   1
  -6   4   4 0.74635 0.99915   3
  -6   4   4 1.76358 1.07666   4
   5  -4  -4 86.5866 3.19375   1
  -5   4   4 81.2330 3.12892   3
  -5   4   4 83.6023 3.23692   4
   4  -4  -4 8.49020 1.14470   1
   4  -4  -4 6.25570 0.86683   2
  -4   4   4 6.87937 1.18372   4
  -4   4   4 7.83890 1.12839   3
   3  -4  -4 11.7181 1.08586   1
   3  -4  -4 11.2183 1.07611   2
  -3   4   4 11.7498 1.18181   4
  -3   4   4 10.6825 1.27699   3
   2  -4  -4 132.972 3.70530   2
  -2   4   4 134.689 3.90669   3
  -2   4   4 138.261 3.72848   4
   1  -4  -4 59.3211 1.83253   1
   1  -4  -4 63.7980 2.38586   2
  -1   4   4 66.0002 2.23978   4
  -1   4   4 61.5380 2.40457   3
   0  -4  -4 44.4667 2.09320   2
   0   4   4 42.2239 1.74963   4
   0   4   4 43.3364 1.55528   1
   0   4   4 42.9814 2.00813   3
  -1  -4  -4 153.160 4.47583   2
   1   4   4 156.071 4.31646   3
   1   4   4 147.898 3.93032   1
  -2  -4  -4 410.421 9.75692   2
   2   4   4 443.479 9.53196   3
  -3  -4  -4 1.80254 1.07074   2
   3   4   4 -3.1155 0.75825   3
  -4  -4  -4 98.3073 3.84637   2
  -5  -4  -4 1.03598 1.32062   2
  -6  -4  -4 5.50934 1.85793   2
   8  -5  -4 -1.5304 1.47255   1
  -8   5   4 0.69910 1.43214   3
  -8   5   4 1.55871 1.63610   4
   7  -5  -4 3.99560 1.55427   1
  -7   5   4 2.67608 1.45582   4
  -7   5   4 0.42321 1.24772   3
   6  -5  -4 11.6586 1.78038   1
  -6   5   4 13.5198 1.84584   3
  -6   5   4 13.6953 1.93039   4
   5  -5  -4 10.8688 1.47767   1
  -5   5   4 9.52709 1.50140   4
  -5   5   4 9.01351 1.55639   3
   4  -5  -4 11.5852 1.16893   2
   4  -5  -4 10.8552 1.32404   1
  -4   5   4 9.92218 1.41876   4
  -4   5   4 10.8430 1.51604   3
   3  -5  -4 23.3684 1.57017   2
   3  -5  -4 24.4310 1.48945   1
  -3   5   4 22.5301 1.65590   3
  -3   5   4 24.2586 1.64092   4
   2  -5  -4 0.13567 0.71843   2
  -2   5   4 -0.8433 0.80041   3
  -2   5   4 1.07242 0.76933   4
   1  -5  -4 16.8336 1.59690   2
  -1   5   4 16.2127 1.22987   4
  -1   5   4 17.8773 1.67246   3
   0  -5  -4 249.962 6.52260   2
   0   5   4 263.096 6.45655   3
   0   5   4 255.900 6.07378   4
  -1  -5  -4 110.882 4.00931   2
   1   5   4 118.900 3.89029   3
  -2  -5  -4 652.564 14.4673   2
   2   5   4 661.173 13.9306   3
  -3  -5  -4 5.13898 1.27234   2
  -4  -5  -4 12.4077 2.00654   2
  -5  -5  -4 19.3492 2.50754   2
   8  -6  -4 -0.4005 1.75295   1
  -8   6   4 0.13400 1.47755   3
  -8   6   4 -0.1152 1.62040   4
   7  -6  -4 44.0808 3.06002   1
  -7   6   4 41.3640 2.82960   3
  -7   6   4 48.5544 3.32415   4
   6  -6  -4 6.73670 1.47783   1
  -6   6   4 9.49602 1.83993   4
  -6   6   4 7.61355 1.65745   3
  -5   6   4 231.784 6.57042   3
  -5   6   4 219.804 6.34371   4
  -4   6   4 95.2046 3.85571   3
  -4   6   4 94.9037 3.54532   4
   3  -6  -4 107.759 3.54892   2
  -3   6   4 107.507 3.51953   4
  -3   6   4 100.103 3.76193   3
   2  -6  -4 172.237 4.97248   2
  -2   6   4 173.523 5.21948   3
   1  -6  -4 17.9042 1.82966   2
  -1   6   4 16.5172 1.79324   3
   0  -6  -4 29.8017 2.26067   2
   0   6   4 33.0526 2.17427   3
  -1  -6  -4 26.7973 2.08525   2
   1   6   4 23.0983 2.06446   3
  -2  -6  -4 0.16888 0.96217   2
   2   6   4 1.38815 1.27183   3
  -3  -6  -4 1.55217 1.46864   2
  -4  -6  -4 7.74798 2.08886   2
  -8   7   4 1.21492 1.68337   3
  -8   7   4 0.87633 1.46000   4
  -7   7   4 65.7571 3.90239   3
  -6   7   4 20.6071 2.31655   4
  -6   7   4 19.9072 2.54113   3
  -5   7   4 33.5175 2.95605   3
  -4   7   4 87.1470 3.76471   3
   3  -7  -4 4.86517 1.29536   2
  -3   7   4 4.11269 1.41835   3
   2  -7  -4 42.5289 2.52935   2
  -2   7   4 42.6141 2.73214   3
   1  -7  -4 2.49641 1.26561   2
  -1   7   4 3.04918 1.03831   3
   0  -7  -4 -0.9444 1.20234   2
   0   7   4 0.21877 1.02701   3
  -1  -7  -4 2.00327 1.52294   2
   1   7   4 2.14870 1.30479   3
  -2  -7  -4 4.14886 1.45017   2
  -3  -7  -4 1.70298 1.77613   2
  -7   8   4 1.23622 1.91350   3
  -6   8   4 1.99419 1.37011   3
  -5   8   4 -0.6776 1.03155   3
  -4   8   4 0.95654 1.40574   3
  -3   8   4 0.73301 1.38277   3
   2  -8  -4 4.06618 1.52493   2
  -2   8   4 3.32286 1.50100   3
   1  -8  -4 2.28346 1.50303   2
  -1   8   4 3.10087 1.49690   3
   0  -8  -4 -0.1738 1.55054   2
   0   8   4 2.47529 1.50274   3
  -1  -8  -4 12.2606 2.37178   2
  -5   9   4 7.39854 2.16678   3
  -4   9   4 -0.5577 1.62458   3
  -3   9   4 -0.1945 1.53898   3
   2  -9  -4 0.80246 1.56334   2
  -2   9   4 -0.5678 1.55394   3
   1  -9  -4 1.87351 1.73806   2
  -1   9   4 0.67639 1.61090   3
  -1  10  -5 0.65863 2.06431   1
   1 -10   5 4.29231 2.07988   5
  -2  10  -5 2.72996 1.96304   1
   2 -10   5 3.15377 1.99471   5
   3 -10   5 1.73989 1.91589   1
   3 -10   5 0.66398 1.77926   5
  -4  10  -5 -0.2814 1.69404   3
   4 -10   5 -0.5550 1.84849   1
   4 -10   5 2.43646 1.80771   5
   2   9  -5 1.64148 1.97967   1
  -2  -9   5 3.86554 2.03269   5
  -2  -9   5 2.35919 1.57143   2
   1   9  -5 2.98936 1.92617   1
  -1  -9   5 -1.7491 1.61254   5
  -1  -9   5 -0.9152 1.58643   2
   0   9  -5 -1.1620 1.39464   1
   0  -9   5 -1.5546 1.35863   2
   0  -9   5 1.12623 1.32352   5
  -1   9  -5 0.67166 1.53080   1
   1  -9   5 3.30604 1.46746   5
   2  -9   5 3.34574 1.59530   1
   2  -9   5 0.20607 1.46347   5
  -3   9  -5 7.68063 1.81069   3
   3  -9   5 6.96123 1.98968   1
   3  -9   5 5.78536 1.82574   5
  -4   9  -5 0.29420 1.42951   3
   4  -9   5 -1.4386 1.49648   1
   4  -9   5 -1.7653 1.25286   5
  -5   9  -5 2.44501 1.76521   3
   5  -9   5 -0.6054 1.68724   1
  -6   9  -5 -1.6594 1.16060   3
   6  -9   5 0.76080 1.97031   1
   3   8  -5 4.14234 1.97681   1
  -3  -8   5 3.12469 1.53101   5
  -3  -8   5 2.82194 1.89442   2
   2   8  -5 -0.2717 1.45486   1
  -2  -8   5 1.41124 1.58498   5
  -2  -8   5 0.52541 1.56694   2
   1   8  -5 13.9239 2.20349   1
  -1  -8   5 13.5305 2.22359   5
  -1  -8   5 14.4021 2.15842   2
   0   8  -5 42.5361 2.95977   1
   0  -8   5 36.6610 2.67553   2
   0  -8   5 45.3457 3.15926   5
  -1   8  -5 6.84952 1.72053   1
   1  -8   5 7.77539 1.73483   5
   1  -8   5 9.74475 1.56375   2
  -2   8  -5 182.501 5.42539   3
   2  -8   5 177.400 5.81280   1
   2  -8   5 183.516 6.08591   5
  -3   8  -5 11.2941 1.73863   3
   3  -8   5 8.27182 1.79260   1
   3  -8   5 12.5696 1.92015   5
  -4   8  -5 25.3974 2.45243   3
   4  -8   5 29.2389 2.82092   1
   4  -8   5 23.0788 2.42007   5
  -5   8  -5 9.71902 1.94678   3
   5  -8   5 12.3857 2.21596   1
  -6   8  -5 3.72294 1.70086   3
   6  -8   5 -0.9359 1.56215   1
  -7   8  -5 5.42781 1.58492   3
   7  -8   5 1.27249 2.01532   1
   4   7  -5 16.5432 2.70887   1
  -4  -7   5 17.6504 2.62658   2
  -4  -7   5 14.5104 2.37430   5
   3   7  -5 8.99693 2.03006   1
  -3  -7   5 4.46623 1.59914   5
  -3  -7   5 4.38941 1.45465   2
   2   7  -5 36.7028 2.90023   1
  -2  -7   5 32.5818 2.39350   2
  -2  -7   5 32.3876 2.49107   5
   1   7  -5 32.5946 2.54093   1
  -1  -7   5 29.2213 2.63833   5
  -1  -7   5 31.6911 2.42102   2
   0   7  -5 10.7424 1.68590   1
   0  -7   5 6.68259 1.36787   2
   0  -7   5 8.60519 1.59562   5
  -1   7  -5 6.75313 1.16079   3
   1  -7   5 4.59939 1.34914   5
   1  -7   5 5.75009 1.18190   2
   1  -7   5 5.88939 1.44615   1
  -2   7  -5 13.1375 1.56998   3
   2  -7   5 19.1960 2.03173   1
   2  -7   5 18.8722 2.00743   5
  -3   7  -5 1.78343 0.84562   3
   3  -7   5 -0.8588 1.04719   1
   3  -7   5 -0.5935 0.91792   5
  -4   7  -5 51.1269 2.91605   3
   4  -7   5 51.1342 2.73165   5
   4  -7   5 51.4211 3.11535   1
  -5   7  -5 10.2309 1.81196   3
   5  -7   5 7.66730 1.81746   1
  -6   7  -5 5.28285 1.38130   3
   6  -7   5 9.34652 1.82799   1
  -7   7  -5 -0.1358 1.48793   3
   7  -7   5 3.33846 1.88682   1
  -8   7  -5 -0.1953 1.22170   3
   8  -7   5 -1.0799 1.96806   1
   5   6  -5 1.75109 1.87007   1
  -5  -6   5 1.30960 1.64531   2
   4   6  -5 2.49304 1.63368   1
  -4  -6   5 4.41005 1.59383   5
  -4  -6   5 0.72417 1.47368   2
   3   6  -5 7.15656 1.70326   1
  -3  -6   5 9.81812 1.57239   2
  -3  -6   5 8.37533 1.73282   5
   2   6  -5 2.04806 1.24650   1
  -2  -6   5 3.47797 1.08546   2
  -2  -6   5 3.74277 1.32571   5
   1   6  -5 138.861 4.60439   1
  -1  -6   5 131.770 4.32265   2
  -1  -6   5 128.444 4.58779   5
   0   6  -5 43.1574 2.49024   1
   0  -6   5 43.8966 2.25506   2
   0  -6   5 39.8766 2.43036   5
  -1   6  -5 37.5142 1.95300   3
   1  -6   5 35.6645 2.24696   5
   1  -6   5 38.7153 2.31219   1
   1  -6   5 39.2495 2.00075   2
  -2   6  -5 1.39069 0.86535   3
   2  -6   5 0.56351 0.94206   1
   2  -6   5 0.56632 0.71978   5
   2  -6   5 1.03469 0.63275   2
  -3   6  -5 1.91418 0.82943   3
   3  -6   5 3.83249 1.20119   1
   3  -6   5 -0.7875 0.88622   5
  -4   6  -5 10.8178 1.45735   3
   4  -6   5 11.9158 1.73319   1
   4  -6   5 11.1583 1.35616   5
  -5   6  -5 5.28193 1.24338   4
  -5   6  -5 6.69352 1.52524   3
   5  -6   5 5.72756 1.59622   1
  -6   6  -5 0.90258 1.32752   3
  -6   6  -5 0.13097 1.23560   4
   6  -6   5 1.27257 1.15487   1
  -7   6  -5 0.98490 1.57251   3
  -7   6  -5 -0.3977 1.41762   4
   7  -6   5 1.97058 1.72283   1
  -8   6  -5 2.68957 1.93437   4
  -8   6  -5 0.70757 1.30787   3
   8  -6   5 0.94009 1.84939   1
   6   5  -5 2.21991 1.97618   1
  -6  -5   5 2.13855 1.76387   2
   5   5  -5 16.2733 2.40019   1
  -5  -5   5 14.9794 2.21665   2
  -5  -5   5 15.8216 2.10703   5
   4   5  -5 19.2388 2.28189   1
  -4  -5   5 22.1680 2.25406   2
  -4  -5   5 20.1091 2.25001   5
   3   5  -5 2.22146 1.02139   1
  -3  -5   5 1.81209 1.14648   2
  -3  -5   5 2.40808 1.20352   5
   2   5  -5 0.49508 0.77706   1
  -2  -5   5 -0.2587 0.93230   5
  -2  -5   5 -1.0290 0.86381   2
   1   5  -5 20.4120 1.82716   1
  -1  -5   5 22.0179 1.79476   5
  -1  -5   5 19.4378 1.44926   2
   0   5  -5 33.1902 1.46841   3
   0  -5   5 31.5550 1.70850   2
   0  -5   5 32.4484 1.95668   5
  -1   5  -5 53.2646 2.03433   3
   1  -5   5 54.6016 2.05550   2
   1  -5   5 54.7988 2.45150   1
   1  -5   5 55.3927 2.41123   5
  -2   5  -5 76.8145 2.70390   3
   2  -5   5 76.3281 2.27957   2
   2  -5   5 79.0094 2.99556   1
   2  -5   5 76.4541 2.80920   5
  -3   5  -5 5.35142 1.11889   3
  -3   5  -5 6.55388 0.86631   4
   3  -5   5 2.84043 0.86029   1
   3  -5   5 6.06946 0.99300   5
  -4   5  -5 4.30131 1.00118   4
  -4   5  -5 3.03954 0.95614   3
   4  -5   5 5.15335 1.24721   1
   4  -5   5 5.13844 0.93478   5
  -5   5  -5 36.0365 2.24160   4
  -5   5  -5 40.1247 2.54671   3
   5  -5   5 40.6511 2.61279   1
  -6   5  -5 7.70651 1.66087   3
  -6   5  -5 7.42287 1.37552   4
   6  -5   5 7.14397 1.68869   1
  -7   5  -5 30.9630 2.96584   4
  -7   5  -5 32.6402 2.54958   3
   7  -5   5 30.5571 2.99415   1
  -8   5  -5 2.49911 1.75289   3
  -8   5  -5 2.68332 1.94603   4
   8  -5   5 3.38230 1.61329   1
   7   4  -5 1.42610 1.95650   1
  -7  -4   5 0.40111 1.64138   2
   6   4  -5 11.2094 2.32707   1
  -6  -4   5 12.3172 2.03543   2
   5   4  -5 0.45508 1.40879   1
  -5  -4   5 -0.1561 1.21436   2
  -5  -4   5 0.06101 1.08627   5
   4   4  -5 8.00082 1.51912   1
  -4  -4   5 4.93461 1.30012   2
  -4  -4   5 4.11133 1.23113   5
   3   4  -5 3.30380 1.14530   1
  -3  -4   5 4.30850 1.14859   5
  -3  -4   5 4.52675 1.14017   2
   2   4  -5 5.31849 0.99783   1
  -2  -4   5 4.04221 1.02726   5
  -2  -4   5 5.55630 0.92448   2
   1   4  -5 48.3350 2.18453   1
   1   4  -5 43.0200 1.34526   3
  -1  -4   5 43.6222 2.01862   5
  -1  -4   5 46.2367 1.90785   2
   0   4  -5 1.28587 0.47885   3
   0  -4   5 0.57526 0.68578   1
   0  -4   5 1.00153 0.67276   5
   0  -4   5 0.50683 0.52244   2
  -1   4  -5 13.6573 0.99830   3
   1  -4   5 12.8291 1.27664   1
   1  -4   5 12.3261 1.16725   5
   1  -4   5 11.5804 0.88408   2
  -2   4  -5 390.995 8.02302   4
  -2   4  -5 385.172 8.30798   3
   2  -4   5 378.631 8.65442   1
   2  -4   5 387.627 7.69868   2
   2  -4   5 386.347 8.55729   5
  -3   4  -5 191.604 5.02401   3
  -3   4  -5 191.159 4.75067   4
   3  -4   5 188.488 4.68122   5
   3  -4   5 191.655 5.18783   1
  -4   4  -5 100.662 3.46275   3
  -4   4  -5 103.117 3.40068   4
   4  -4   5 106.174 3.68333   1
  -5   4  -5 71.5989 3.00170   3
  -5   4  -5 67.8244 2.87807   4
   5  -4   5 64.2840 3.10039   1
  -6   4  -5 6.09411 1.48480   4
  -6   4  -5 6.05443 1.30592   3
   6  -4   5 3.59802 1.41455   1
  -7   4  -5 1.73171 1.15550   3
  -7   4  -5 0.40357 1.35070   4
   7  -4   5 0.23111 1.44982   1
  -8   4  -5 1.32960 1.63493   3
  -8   4  -5 0.34423 1.81811   4
   8  -4   5 1.10812 1.44431   1
   7   3  -5 0.64357 1.70038   1
  -7  -3   5 -0.0221 1.40176   2
   6   3  -5 1.31035 1.56212   1
  -6  -3   5 2.31168 1.28252   2
   5   3  -5 6.41884 1.60426   1
  -5  -3   5 6.34549 1.22717   2
  -5  -3   5 6.77944 1.41031   5
   4   3  -5 34.4764 2.11198   1
  -4  -3   5 31.2167 2.07142   2
  -4  -3   5 30.8327 1.78209   4
  -4  -3   5 35.3666 2.10782   5
   3   3  -5 12.8737 1.46533   1
  -3  -3   5 14.3292 1.08430   4
  -3  -3   5 16.4684 1.53977   5
  -3  -3   5 15.6673 1.40913   2
   2   3  -5 1.46524 0.74985   1
  -2  -3   5 2.02409 0.71128   2
  -2  -3   5 0.14449 0.43060   4
  -2  -3   5 2.14794 0.75273   5
   1   3  -5 179.925 3.48935   3
   1   3  -5 172.239 4.44344   1
  -1  -3   5 169.297 3.63557   4
  -1  -3   5 172.499 4.29410   2
  -1  -3   5 171.959 4.55565   5
   0   3  -5 22.0761 0.96396   3
   0  -3   5 22.2539 0.75807   4
   0  -3   5 20.2072 1.26319   1
   0  -3   5 22.0804 1.13252   2
   0  -3   5 21.6901 1.25590   5
  -1   3  -5 22.3983 1.12077   3
   1  -3   5 20.7604 1.25626   1
   1  -3   5 22.7835 1.19223   5
   1  -3   5 21.5465 1.01302   2
  -2   3  -5 8.02522 0.92137   3
   2  -3   5 6.90311 0.86181   1
   2  -3   5 6.40550 0.51501   2
   2  -3   5 5.82612 0.70277   5
  -3   3  -5 160.424 4.24823   3
   3  -3   5 150.076 4.22958   1
   3  -3   5 158.566 3.69968   5
  -4   3  -5 31.9699 1.92883   3
  -4   3  -5 33.3381 1.90565   4
   4  -3   5 35.3783 2.04617   1
  -5   3  -5 26.9725 1.87535   4
  -5   3  -5 33.1571 2.17028   3
   5  -3   5 29.1733 1.97643   1
  -6   3  -5 0.81630 0.88100   3
  -6   3  -5 -0.2876 1.03486   4
   6  -3   5 -1.5238 1.13785   1
  -7   3  -5 14.7404 2.25139   4
  -7   3  -5 18.2699 2.26419   3
   7  -3   5 19.6133 2.32206   1
  -8   3  -5 2.41339 1.72137   3
  -8   3  -5 5.10727 1.66317   4
   8  -3   5 6.50510 2.11561   1
   8   2  -5 24.3800 3.26026   1
   7   2  -5 2.52792 1.80373   1
  -7  -2   5 -0.0776 1.20631   2
  -7  -2   5 2.94407 1.42677   4
   6   2  -5 44.5329 3.07183   1
  -6  -2   5 43.8861 2.43848   2
  -6  -2   5 49.0513 2.69381   4
   5   2  -5 2.38867 1.30388   1
  -5  -2   5 2.52313 0.98661   5
  -5  -2   5 4.46155 1.04859   4
  -5  -2   5 2.60208 1.03958   2
   4   2  -5 20.7999 1.87213   1
  -4  -2   5 23.5117 1.52254   4
  -4  -2   5 21.6318 1.62926   2
  -4  -2   5 21.9323 1.60656   5
   3   2  -5 23.4078 1.57050   1
  -3  -2   5 23.2762 1.32047   4
  -3  -2   5 21.5466 1.43984   2
  -3  -2   5 22.1722 1.44908   5
   2   2  -5 21.0236 1.32643   1
  -2  -2   5 20.9668 1.26981   2
  -2  -2   5 20.4236 1.00419   4
  -2  -2   5 21.1131 1.23433   5
   1   2  -5 257.001 5.79871   1
  -1  -2   5 259.659 5.95509   5
  -1  -2   5 254.356 5.64083   2
  -1  -2   5 256.949 5.32847   4
   0  -2   5 1.41344 0.34173   3
   0  -2   5 0.83876 0.48467   1
   0  -2   5 1.67101 0.37593   4
   0  -2   5 1.30002 0.36037   2
   0  -2   5 2.23978 0.54621   5
   1  -2   5 0.65967 0.41167   3
   1  -2   5 0.61639 0.41731   5
   1  -2   5 1.93409 0.52923   1
   1  -2   5 0.89961 0.35189   2
  -2   2  -5 9.29677 0.58550   2
   2  -2   5 7.52472 0.81423   1
   2  -2   5 9.74186 0.88759   3
   2  -2   5 9.97176 0.64294   5
  -3   2  -5 258.237 5.00803   2
   3  -2   5 241.300 5.96689   1
  -4   2  -5 90.5509 3.12853   3
   4  -2   5 86.1496 3.15443   1
  -5   2  -5 145.711 4.77736   4
  -5   2  -5 157.245 4.69093   3
   5  -2   5 156.480 4.85376   1
  -6   2  -5 11.8669 1.68223   3
  -6   2  -5 11.2654 1.76235   4
   6  -2   5 8.90652 1.69591   1
  -7   2  -5 17.9560 2.20510   4
  -7   2  -5 20.1691 2.26671   3
   7  -2   5 19.6243 2.29951   1
  -8   2  -5 8.81197 2.04800   3
  -8   2  -5 7.07631 2.04490   4
   8  -2   5 7.94340 2.14172   1
   8   1  -5 -0.8276 1.76387   1
  -8  -1   5 0.16094 1.51302   4
   7   1  -5 0.35472 1.60266   1
  -7  -1   5 2.25421 1.36457   4
   6   1  -5 135.985 5.02942   1
  -6  -1   5 137.712 4.38599   2
  -6  -1   5 141.852 4.71246   4
   5   1  -5 75.8471 3.29650   1
  -5  -1   5 79.6104 3.00133   5
  -5  -1   5 70.9182 2.96655   4
   4   1  -5 167.685 4.72151   1
  -4  -1   5 153.995 4.37832   4
  -4  -1   5 162.127 4.46448   5
  -4  -1   5 159.475 4.33645   2
   3   1  -5 79.8323 2.70898   1
  -3  -1   5 76.4137 1.82826   3
  -3  -1   5 90.9048 2.64033   4
  -3  -1   5 81.1212 2.54711   2
  -3  -1   5 82.1191 2.68512   5
   2   1  -5 34.5524 1.48806   1
  -2  -1   5 33.8063 1.44401   2
  -2  -1   5 34.4707 1.52182   5
  -2  -1   5 33.1957 1.34658   4
   1   1  -5 132.096 3.14142   1
  -1  -1   5 124.441 3.11043   2
  -1  -1   5 124.901 2.67669   3
  -1  -1   5 128.404 3.03594   4
  -1  -1   5 132.178 3.30760   5
   0  -1   5 328.275 6.67694   2
   0  -1   5 325.693 6.74614   1
   0  -1   5 324.211 6.76016   4
   0  -1   5 333.413 7.04296   5
   0  -1   5 337.017 6.52337   3
   1  -1   5 4004.98 74.3962   3
   1  -1   5 4078.79 76.0038   4
   1  -1   5 4074.99 80.0024   5
   1  -1   5 4053.41 76.8594   1
  -2   1  -5 64.2873 1.80275   2
   2  -1   5 68.0795 2.12505   3
   2  -1   5 66.0052 2.07561   1
  -3   1  -5 311.589 6.23109   2
   3  -1   5 296.525 6.87483   1
   3  -1   5 296.688 6.70553   3
   4  -1   5 59.0013 2.39480   3
   4  -1   5 58.5051 2.47814   1
   5  -1   5 31.3647 2.14357   1
  -6   1  -5 102.825 3.90481   3
  -6   1  -5 100.044 4.02928   4
   6  -1   5 101.873 4.11496   1
  -7   1  -5 2.26123 1.26304   4
  -7   1  -5 1.53111 1.32341   3
   7  -1   5 3.60375 1.60496   1
  -8   1  -5 -0.3478 1.30758   4
   8  -1   5 0.79667 1.75519   1
   8   0  -5 3.51917 1.90726   1
  -8   0   5 4.37229 1.46646   4
   7   0  -5 11.1968 2.03448   1
  -7   0   5 12.2445 1.94188   4
   6   0  -5 193.146 5.88012   1
  -6   0   5 183.503 5.12989   2
  -6   0   5 179.383 5.61981   4
   5   0  -5 58.7469 2.64233   1
  -5   0   5 52.6602 2.46477   4
  -5   0   5 61.3310 2.46106   2
   4   0  -5 7.43560 1.03517   1
  -4   0   5 5.84737 0.70145   3
  -4   0   5 6.64468 0.90735   2
  -4   0   5 9.34575 1.19524   4
   3   0  -5 322.190 7.11007   1
  -3   0   5 315.777 6.85620   2
  -3   0   5 314.162 7.11423   4
  -3   0   5 320.696 6.40429   3
   2   0  -5 48.8160 1.63934   1
  -2   0   5 51.1156 1.70982   2
  -2   0   5 48.2532 1.40273   3
  -2   0   5 50.1451 1.75656   4
   1   0  -5 747.513 14.1344   1
  -1   0   5 730.141 14.1680   2
  -1   0   5 711.073 13.8151   3
  -1   0   5 756.587 14.4537   4
   0   0  -5 17.3190 0.85604   2
   0   0   5 15.5892 0.65312   1
   0   0   5 17.6480 0.88828   4
   0   0   5 16.1772 0.81257   3
  -1   0  -5 94.8899 2.48191   2
   1   0   5 91.7752 2.63622   4
   1   0   5 92.4113 2.51205   3
   1   0   5 98.3827 2.29859   1
  -2   0  -5 35.8572 1.39309   2
   2   0   5 36.4257 1.56290   3
   2   0   5 36.0280 1.40765   1
  -3   0  -5 185.288 4.32582   2
   3   0   5 182.454 4.62782   1
   3   0   5 181.601 4.61124   3
  -4   0  -5 0.18547 0.59669   2
   4   0   5 0.76150 0.75732   1
   4   0   5 -0.1597 0.72282   3
   5   0   5 10.2724 1.51731   1
   5   0   5 8.90774 1.36123   3
  -6   0  -5 -0.1942 0.89144   4
   6   0   5 0.15982 1.19152   1
  -7   0  -5 3.93506 1.49033   3
  -7   0  -5 5.92898 1.87130   4
   7   0   5 2.40269 1.63344   1
  -8   0  -5 -0.3519 1.76543   4
   8   0   5 0.08053 1.83697   1
   9  -1  -5 3.89017 2.14794   1
  -9   1   5 3.05678 1.93351   4
   8  -1  -5 8.84964 2.25885   1
  -8   1   5 5.99989 1.85453   4
   7  -1  -5 10.4645 1.99076   1
  -7   1   5 14.7131 2.05067   4
   6  -1  -5 22.1198 2.18020   1
  -6   1   5 22.3112 2.20303   4
  -6   1   5 22.6562 1.65625   2
   5  -1  -5 38.4146 2.21719   1
  -5   1   5 42.1093 1.86320   2
  -5   1   5 35.7652 2.15186   4
  -5   1   5 41.9808 1.84533   3
   4  -1  -5 29.1950 1.54950   1
  -4   1   5 25.5175 1.36607   3
  -4   1   5 26.7825 1.56149   4
  -4   1   5 26.8034 1.40126   2
   3  -1  -5 704.893 13.8157   1
  -3   1   5 667.823 14.0138   4
  -3   1   5 696.510 13.3316   3
  -3   1   5 679.390 13.5149   2
   2  -1  -5 10.2407 0.71666   1
  -2   1   5 7.57118 0.62373   3
  -2   1   5 7.75350 0.76654   2
  -2   1   5 8.01111 0.87258   4
   1  -1  -5 1003.42 19.0404   2
  -1   1   5 990.433 18.8223   3
  -1   1   5 1004.37 19.4371   4
   0  -1  -5 1.18121 0.47704   2
   0   1   5 1.19312 0.39006   3
   0   1   5 1.89505 0.51128   4
  -1  -1  -5 47.3478 1.76910   2
   1   1   5 49.9269 1.85656   4
   1   1   5 52.2547 1.42801   1
   1   1   5 53.5673 1.85376   3
  -2  -1  -5 6.57828 0.83819   2
   2   1   5 6.82210 0.91182   3
   2   1   5 8.42068 0.81075   1
  -3  -1  -5 104.386 3.11524   2
   3   1   5 102.720 3.12071   1
   3   1   5 107.462 3.24756   3
  -4  -1  -5 52.9428 2.22980   2
   4   1   5 50.5098 2.34338   3
   4   1   5 51.8698 2.45214   1
  -5  -1  -5 -0.3502 0.69891   2
   5   1   5 0.81223 1.00912   3
   5   1   5 1.45475 1.13996   1
  -6  -1  -5 -0.3954 1.30644   4
   6   1   5 -0.9311 1.22853   1
   6   1   5 -1.5112 1.01412   3
  -7  -1  -5 -0.6797 1.53455   4
   7   1   5 0.75752 1.58926   1
   9  -2  -5 4.28816 2.21742   1
  -9   2   5 1.97685 1.89745   4
   8  -2  -5 -0.7645 1.56846   1
  -8   2   5 0.53417 1.08473   4
   7  -2  -5 2.34070 1.40959   1
  -7   2   5 1.73174 1.04499   4
   6  -2  -5 4.49300 1.14117   1
  -6   2   5 6.27676 1.11759   3
  -6   2   5 5.58793 1.36184   4
   5  -2  -5 4.17491 1.09151   1
  -5   2   5 2.04580 0.67609   2
  -5   2   5 1.66168 0.73051   3
  -5   2   5 1.67922 0.72836   4
   4  -2  -5 0.90112 0.68510   1
  -4   2   5 1.01425 0.61715   3
  -4   2   5 0.69652 0.52109   2
  -4   2   5 1.99215 0.79684   4
   3  -2  -5 34.0337 1.48288   1
  -3   2   5 32.7765 1.70188   4
  -3   2   5 36.2168 1.60323   3
  -3   2   5 33.6286 1.46066   2
   2  -2  -5 78.6838 2.32487   2
   2  -2  -5 79.7270 2.01273   1
  -2   2   5 75.4412 2.37493   3
  -2   2   5 72.6201 2.38463   4
   1  -2  -5 2616.64 48.6887   2
  -1   2   5 2637.52 49.5597   4
  -1   2   5 2626.03 48.3079   3
   0  -2  -5 11.9766 1.06125   2
   0   2   5 14.2460 1.07807   3
   0   2   5 13.8280 1.02837   4
  -1  -2  -5 1267.10 24.4256   2
   1   2   5 1279.93 24.7799   4
   1   2   5 1280.21 24.0643   1
   1   2   5 1262.98 24.2027   3
  -2  -2  -5 336.048 7.65898   2
   2   2   5 346.589 7.60882   3
   2   2   5 341.725 7.29761   1
  -3  -2  -5 5.89043 1.06676   2
   3   2   5 5.86647 0.95368   3
   3   2   5 6.39504 1.02926   1
  -4  -2  -5 59.0139 2.62600   2
   4   2   5 54.1575 2.55309   3
   4   2   5 63.4113 2.66625   1
  -5  -2  -5 1.34559 1.01337   2
   5   2   5 1.64544 1.07895   3
   5   2   5 0.57950 1.12359   1
  -6  -2  -5 1.19775 1.45243   4
  -7  -2  -5 -1.5473 1.61194   4
   9  -3  -5 0.69731 1.46868   1
  -9   3   5 -0.1677 1.70504   4
   8  -3  -5 0.47251 1.24096   1
  -8   3   5 -0.5121 1.27067   4
   7  -3  -5 7.98981 1.73734   1
  -7   3   5 12.3361 1.89049   4
  -7   3   5 10.4229 1.56081   3
   6  -3  -5 2.88866 1.21410   1
  -6   3   5 2.80476 1.19421   4
  -6   3   5 2.33379 1.01468   3
   5  -3  -5 31.7996 1.97651   1
   5  -3  -5 28.5658 1.54842   2
  -5   3   5 33.8047 1.94547   3
   4  -3  -5 0.33365 0.60912   2
   4  -3  -5 0.24448 0.69678   1
  -4   3   5 0.07186 0.74736   4
  -4   3   5 0.17074 0.64550   3
   3  -3  -5 145.198 3.83761   2
   3  -3  -5 145.585 3.71318   1
  -3   3   5 151.675 4.14565   4
  -3   3   5 157.526 4.12832   3
   2  -3  -5 43.7861 1.78135   2
   2  -3  -5 39.9870 1.33698   1
  -2   3   5 40.4343 1.84345   3
  -2   3   5 40.1265 1.78611   4
   1  -3  -5 2.25664 0.66979   2
  -1   3   5 3.82872 0.68825   3
  -1   3   5 2.48158 0.64597   4
   0  -3  -5 31.6642 1.67299   2
   0   3   5 31.2547 1.54830   3
   0   3   5 33.1215 1.03535   1
   0   3   5 33.3591 1.49453   4
  -1  -3  -5 7.73978 1.10819   2
   1   3   5 8.28914 1.00911   3
   1   3   5 7.57064 0.97607   4
   1   3   5 8.23604 0.75465   1
  -2  -3  -5 8.56771 1.22696   2
   2   3   5 8.05475 1.08005   3
   2   3   5 9.15188 1.01759   1
  -3  -3  -5 3.68680 1.06060   2
   3   3   5 1.27711 0.99938   3
  -4  -3  -5 16.6483 1.84757   2
   4   3   5 13.2655 1.65986   3
  -5  -3  -5 19.7256 2.08975   2
  -6  -3  -5 16.3220 2.32739   4
   9  -4  -5 -1.1102 1.88517   1
  -9   4   5 2.48392 1.91999   4
   8  -4  -5 6.48743 1.63922   1
  -8   4   5 7.83346 1.69085   3
  -8   4   5 6.34124 1.85998   4
   7  -4  -5 0.68716 1.31075   1
  -7   4   5 2.02815 1.28159   4
  -7   4   5 1.32664 1.12091   3
   6  -4  -5 2.17958 1.10380   1
  -6   4   5 5.15231 1.42119   4
  -6   4   5 3.88494 1.20022   3
   5  -4  -5 17.3558 1.72525   1
  -5   4   5 14.4948 1.56767   3
  -5   4   5 20.1763 1.98509   4
   4  -4  -5 128.063 3.69311   1
   4  -4  -5 118.943 3.51135   2
  -4   4   5 129.086 4.08008   4
  -4   4   5 130.925 4.08537   3
   3  -4  -5 19.1584 1.36523   2
   3  -4  -5 17.5461 1.16708   1
  -3   4   5 17.5281 1.29755   4
  -3   4   5 18.3201 1.62378   3
   2  -4  -5 2.90584 0.57384   1
   2  -4  -5 2.10677 0.78074   2
  -2   4   5 3.91018 0.81999   4
  -2   4   5 3.20894 0.89374   3
   1  -4  -5 173.289 4.70461   2
  -1   4   5 178.217 4.54381   4
  -1   4   5 171.337 4.67161   3
   0  -4  -5 1.78403 0.82288   2
   0   4   5 3.39653 0.91536   3
   0   4   5 3.95665 0.82046   4
  -1  -4  -5 80.5456 3.02132   2
   1   4   5 78.5884 2.90586   3
   1   4   5 83.5908 2.88270   4
  -2  -4  -5 363.490 8.95800   2
   2   4   5 397.640 8.87928   3
  -3  -4  -5 1.74829 1.13145   2
   3   4   5 0.23487 0.98907   3
  -4  -4  -5 103.074 4.19160   2
  -5  -4  -5 0.66980 1.33710   2
  -6  -4  -5 3.67390 1.70561   2
   8  -5  -5 0.63616 1.63689   1
  -8   5   5 0.74177 1.51200   3
  -8   5   5 0.64458 1.62018   4
   7  -5  -5 29.1900 2.66420   1
  -7   5   5 24.0130 2.39020   3
  -7   5   5 32.9528 3.03354   4
   6  -5  -5 10.4551 1.61449   1
  -6   5   5 10.0144 1.75386   4
  -6   5   5 8.52633 1.61387   3
   5  -5  -5 138.953 4.29469   1
  -5   5   5 135.524 4.52549   4
  -5   5   5 135.886 4.52667   3
   4  -5  -5 289.856 6.76119   2
  -4   5   5 282.201 7.29449   3
  -4   5   5 286.045 7.24356   4
   3  -5  -5 12.2953 1.35535   2
  -3   5   5 14.2800 1.67886   3
  -3   5   5 10.1780 1.30620   4
   2  -5  -5 43.6425 2.19530   2
  -2   5   5 41.9898 2.30780   3
  -2   5   5 38.3401 1.95531   4
   1  -5  -5 1.92984 0.96296   2
  -1   5   5 2.15973 0.85558   4
  -1   5   5 3.05461 0.86132   3
   0  -5  -5 13.6020 1.62668   2
   0   5   5 15.5595 1.40146   4
   0   5   5 11.4574 1.49878   3
  -1  -5  -5 6.07662 1.23084   2
   1   5   5 8.92046 1.44099   3
  -2  -5  -5 54.4391 3.01058   2
   2   5   5 52.2973 2.72690   3
  -3  -5  -5 4.52621 1.50551   2
   3   5   5 2.20050 1.22577   3
  -4  -5  -5 18.2933 2.38639   2
  -5  -5  -5 2.12554 1.71397   2
  -8   6   5 2.27703 1.55085   3
  -8   6   5 3.47715 1.52468   4
  -7   6   5 117.960 4.62403   3
  -7   6   5 107.194 4.83426   4
  -6   6   5 36.6051 2.79805   4
  -6   6   5 38.6529 2.89374   3
  -5   6   5 140.797 4.99954   3
  -5   6   5 136.475 4.72405   4
  -4   6   5 21.8700 2.12769   3
  -4   6   5 19.9208 1.92914   4
   3  -6  -5 52.1444 2.61507   2
  -3   6   5 52.0215 2.83991   3
  -3   6   5 50.1319 2.42945   4
   2  -6  -5 139.124 4.43770   2
  -2   6   5 134.157 4.56607   3
   1  -6  -5 23.0346 2.08337   2
  -1   6   5 21.2078 1.93841   3
   0  -6  -5 25.4792 2.22749   2
   0   6   5 24.2470 2.16869   3
  -1  -6  -5 1.94910 1.24143   2
   1   6   5 1.75305 0.93126   3
  -2  -6  -5 4.72966 1.60616   2
   2   6   5 4.63841 1.45853   3
  -3  -6  -5 -0.7055 1.36891   2
  -4  -6  -5 -0.0322 1.53634   2
  -7   7   5 5.40517 1.90900   4
  -7   7   5 6.32274 1.68891   3
  -6   7   5 18.5094 2.26837   4
  -6   7   5 28.9647 2.96791   3
  -5   7   5 11.8637 2.13291   3
  -4   7   5 8.86896 1.59780   3
   3  -7  -5 16.0156 1.77234   2
  -3   7   5 16.1980 2.13512   3
   2  -7  -5 8.90248 1.55702   2
  -2   7   5 9.54876 1.56060   3
   1  -7  -5 34.8613 2.64661   2
  -1   7   5 42.3956 2.76287   3
   0  -7  -5 8.21414 1.80606   2
   0   7   5 11.3973 1.84475   3
  -1  -7  -5 8.76522 2.04612   2
   1   7   5 11.0097 1.89058   3
  -2  -7  -5 0.11711 1.25860   2
  -3  -7  -5 -0.0314 1.73265   2
  -6   8   5 7.63270 2.11820   3
  -5   8   5 -0.2683 1.49285   3
  -4   8   5 6.32427 1.89079   3
  -3   8   5 3.61390 1.61211   3
   2  -8  -5 23.4801 2.43943   2
  -2   8   5 19.9904 2.26000   3
   1  -8  -5 2.30899 1.58255   2
  -1   8   5 0.66278 1.39090   3
   0  -8  -5 9.03349 2.11735   2
   0   8   5 5.77619 1.73868   3
  -1  -8  -5 4.64972 2.05738   2
  -5   9   5 17.0724 2.57084   3
  -4   9   5 18.1169 2.69537   3
  -3   9   5 -0.1934 1.62635   3
   2  -9  -5 17.9016 2.49687   2
  -2   9   5 16.5135 2.25342   3
   1  -9  -5 2.08927 1.88588   2
  -1   9   5 2.43170 1.69980   3
  -1  10  -6 10.6756 2.50221   1
   1 -10   6 7.46616 2.37769   5
  -2  10  -6 0.84776 1.85061   1
   2 -10   6 3.24550 1.99498   5
   3 -10   6 4.95579 2.11389   1
   3 -10   6 2.63190 1.93024   5
  -4  10  -6 3.09695 1.86659   3
   4 -10   6 -0.7671 1.68970   5
   4 -10   6 0.77393 1.97092   1
   2   9  -6 1.08928 1.98568   1
  -2  -9   6 -0.0652 1.38316   5
  -2  -9   6 1.73221 1.86082   2
   1   9  -6 7.15236 2.24096   1
  -1  -9   6 8.55513 2.22721   5
  -1  -9   6 8.72638 2.00521   2
   0   9  -6 4.95186 1.83219   1
   0  -9   6 -1.9481 1.26366   2
   0  -9   6 0.65664 1.68960   5
  -1   9  -6 -0.4156 1.50932   1
   1  -9   6 1.84035 1.62902   5
   2  -9   6 8.91879 2.00541   1
   2  -9   6 10.0017 2.11724   5
  -3   9  -6 3.44130 1.50043   3
   3  -9   6 3.33559 1.66029   5
   3  -9   6 3.91909 1.84984   1
  -4   9  -6 1.82174 1.51214   3
   4  -9   6 2.64315 1.80278   1
   4  -9   6 2.31747 1.60809   5
  -5   9  -6 -0.0590 1.18630   3
   5  -9   6 1.97651 1.90062   1
  -6   9  -6 -0.6264 1.70947   3
   6  -9   6 1.09249 2.08800   1
   3   8  -6 10.8227 2.37624   1
  -3  -8   6 16.1315 2.59236   2
  -3  -8   6 15.3151 2.50672   5
   2   8  -6 3.85250 1.49461   1
  -2  -8   6 -0.2512 1.60065   5
  -2  -8   6 3.27641 1.65269   2
   1   8  -6 9.24897 2.00702   1
  -1  -8   6 8.05497 1.75439   2
  -1  -8   6 8.90646 1.98750   5
   0   8  -6 1.08725 1.41717   1
   0  -8   6 3.27065 1.29499   5
   0  -8   6 0.07863 1.14835   2
  -1   8  -6 24.4335 2.53117   1
   1  -8   6 23.4212 2.47762   5
   1  -8   6 23.2858 2.13139   2
  -2   8  -6 3.56125 1.27851   3
   2  -8   6 5.96499 1.59130   5
   2  -8   6 4.82313 1.60454   1
  -3   8  -6 0.10724 1.16911   3
   3  -8   6 0.92709 1.18346   5
   3  -8   6 -1.3310 0.99868   1
  -4   8  -6 1.44186 1.04323   3
   4  -8   6 0.45630 1.41763   1
   4  -8   6 0.68637 1.18529   5
  -5   8  -6 5.13903 1.45085   3
   5  -8   6 3.64766 1.50103   1
  -6   8  -6 2.18584 1.34867   3
   6  -8   6 2.21651 1.88290   1
  -7   8  -6 -1.1010 1.54027   3
   7  -8   6 0.97477 1.91206   1
   4   7  -6 10.3890 2.32110   1
  -4  -7   6 5.59340 2.03621   2
  -4  -7   6 8.85124 2.12336   5
   3   7  -6 14.7654 2.31753   1
  -3  -7   6 17.5180 2.40537   5
  -3  -7   6 20.0430 2.30133   2
   2   7  -6 10.9575 2.00872   1
  -2  -7   6 12.1668 1.73564   2
  -2  -7   6 12.2563 2.01092   5
   1   7  -6 105.876 4.27372   1
  -1  -7   6 93.4930 4.03202   5
  -1  -7   6 97.7934 3.91753   2
   0   7  -6 45.3896 2.82305   1
   0  -7   6 40.6048 2.43748   2
   0  -7   6 34.7913 2.61393   5
   1  -7   6 28.9367 1.91159   2
   1  -7   6 23.4388 2.17013   5
   1  -7   6 23.8283 2.28465   1
  -2   7  -6 19.5400 1.82424   3
   2  -7   6 19.0619 2.01802   5
   2  -7   6 19.9671 2.12558   1
  -3   7  -6 42.3055 2.34154   3
   3  -7   6 42.7640 2.80519   1
   3  -7   6 46.6461 2.62649   5
  -4   7  -6 0.36529 1.18048   3
   4  -7   6 2.02331 1.06712   1
   4  -7   6 1.67324 1.06262   5
  -5   7  -6 24.6090 2.35911   3
   5  -7   6 24.6046 2.66908   1
  -6   7  -6 3.70886 1.57743   3
   6  -7   6 3.94341 1.85496   1
  -7   7  -6 -1.1641 1.44468   3
   7  -7   6 -1.9246 1.68263   1
   5   6  -6 0.25778 1.76801   1
  -5  -6   6 1.81952 1.67156   5
  -5  -6   6 2.04476 1.77677   2
   4   6  -6 3.19273 1.59957   1
  -4  -6   6 3.09689 1.60479   2
  -4  -6   6 3.91654 1.58512   5
   3   6  -6 -0.8560 1.23157   1
  -3  -6   6 -1.3492 1.05299   5
  -3  -6   6 0.85666 0.94119   2
   2   6  -6 184.018 5.87952   1
  -2  -6   6 189.052 5.98868   5
  -2  -6   6 190.318 5.69013   2
   1   6  -6 57.1552 2.94470   1
  -1  -6   6 53.3941 2.90560   5
  -1  -6   6 55.9560 2.58600   2
   0   6  -6 26.8932 2.15722   1
   0  -6   6 26.7244 1.85638   2
   0  -6   6 31.1213 2.22398   5
  -1   6  -6 0.36359 0.73001   3
   1  -6   6 0.90167 0.94153   5
   1  -6   6 -1.2599 0.85968   1
   1  -6   6 -1.2266 0.62562   2
  -2   6  -6 2.81172 0.94679   3
   2  -6   6 2.74264 1.15265   1
   2  -6   6 3.09965 0.90083   5
  -3   6  -6 -0.9201 0.80412   3
   3  -6   6 -0.0218 0.79919   5
   3  -6   6 0.52966 1.02068   1
  -4   6  -6 1.94968 0.93392   3
   4  -6   6 1.10978 0.94662   1
  -5   6  -6 0.80778 1.19232   4
  -5   6  -6 1.76235 1.06333   3
   5  -6   6 2.72182 1.46625   1
  -6   6  -6 27.7634 2.52765   4
  -6   6  -6 30.0270 2.78917   3
   6  -6   6 30.1929 2.94775   1
  -7   6  -6 60.2370 3.44510   3
  -7   6  -6 67.4994 3.81455   4
   7  -6   6 65.0022 3.71735   1
  -8   6  -6 -1.9356 1.72621   4
  -8   6  -6 -0.5532 1.65491   3
   8  -6   6 -0.7220 1.33305   1
   6   5  -6 9.62104 2.10400   1
  -6  -5   6 9.51782 1.89570   2
   5   5  -6 1.62835 1.55725   1
  -5  -5   6 1.40601 1.50824   2
  -5  -5   6 3.02500 1.46223   5
   4   5  -6 5.83881 1.58414   1
  -4  -5   6 6.21875 1.56145   5
  -4  -5   6 3.24605 1.16645   2
   3   5  -6 -1.1254 0.98475   1
  -3  -5   6 -1.4812 0.59862   2
  -3  -5   6 -2.7090 0.90985   5
   2   5  -6 10.1147 1.56504   1
  -2  -5   6 9.97230 1.54242   5
  -2  -5   6 11.1728 1.51928   2
   1   5  -6 72.9524 3.08485   1
  -1  -5   6 77.3969 3.15727   5
  -1  -5   6 76.3548 2.90675   2
   0   5  -6 71.1333 2.22413   3
   0  -5   6 73.3878 2.94642   5
   0  -5   6 70.5700 2.59170   2
  -1   5  -6 28.7540 1.49643   3
   1  -5   6 28.8927 1.82176   5
   1  -5   6 30.2427 1.93358   1
   1  -5   6 30.6057 1.53066   2
  -2   5  -6 129.932 3.76078   3
   2  -5   6 125.743 3.85511   5
   2  -5   6 127.484 3.26401   2
   2  -5   6 126.090 4.06798   1
  -3   5  -6 50.1161 2.02864   4
  -3   5  -6 55.6679 2.52976   3
   3  -5   6 58.6956 2.73435   1
   3  -5   6 57.8780 2.35913   5
  -4   5  -6 52.7618 2.37213   4
  -4   5  -6 49.6296 2.45861   3
   4  -5   6 49.9991 2.58364   1
  -5   5  -6 0.16591 1.07008   4
  -5   5  -6 1.65322 1.24143   3
   5  -5   6 1.44488 1.23387   1
  -6   5  -6 12.8624 1.80911   3
  -6   5  -6 13.4112 1.73932   4
   6  -5   6 10.4722 1.87632   1
  -7   5  -6 1.34443 1.56283   4
  -7   5  -6 -0.4661 1.44089   3
   7  -5   6 0.39704 1.48761   1
  -8   5  -6 0.92583 1.91047   4
  -8   5  -6 -0.8730 1.60643   3
   8  -5   6 -0.2386 1.37503   1
   7   4  -6 3.01838 2.06906   1
  -7  -4   6 0.32638 1.63953   2
   6   4  -6 17.4479 2.60807   1
  -6  -4   6 22.7465 2.39574   2
   5   4  -6 0.79256 1.45134   1
  -5  -4   6 -1.2412 1.13528   2
  -5  -4   6 -0.6122 1.06902   5
   4   4  -6 147.393 4.99686   1
  -4  -4   6 151.554 4.90520   2
  -4  -4   6 154.093 5.02055   5
   3   4  -6 4.09531 1.20644   1
  -3  -4   6 3.64769 1.11883   2
  -3  -4   6 3.32043 1.12321   5
   2   4  -6 111.586 3.80567   1
  -2  -4   6 111.226 3.79383   5
  -2  -4   6 108.913 3.51219   2
   1   4  -6 206.779 5.56321   1
  -1  -4   6 220.350 5.71556   5
  -1  -4   6 216.091 5.35998   2
   0   4  -6 4.43744 0.62984   3
   0  -4   6 4.68398 0.90640   5
   0  -4   6 3.68633 0.92609   1
   0  -4   6 5.00478 0.80429   2
  -1   4  -6 193.977 4.50678   3
   1  -4   6 183.464 4.92010   1
   1  -4   6 185.449 4.85692   5
   1  -4   6 182.077 4.34540   2
  -2   4  -6 4.84826 0.92516   3
   2  -4   6 4.12764 0.79535   5
   2  -4   6 5.38381 0.62095   2
   2  -4   6 4.74925 1.01532   1
  -3   4  -6 3.81318 0.98416   3
   3  -4   6 3.05915 0.67529   5
   3  -4   6 4.16641 1.06165   1
  -4   4  -6 25.2392 1.73955   3
  -4   4  -6 21.3045 1.66641   4
   4  -4   6 25.6203 1.99510   1
  -5   4  -6 10.9556 1.60446   3
  -5   4  -6 8.74441 1.47117   4
   5  -4   6 10.1716 1.62960   1
  -6   4  -6 -0.1391 0.84729   4
  -6   4  -6 -0.5213 1.14457   3
   6  -4   6 -1.7772 1.12428   1
  -7   4  -6 4.58919 1.70365   3
  -7   4  -6 3.82747 1.67586   4
   7  -4   6 1.82269 1.57174   1
  -8   4  -6 8.20674 2.29242   4
  -8   4  -6 0.89975 1.28543   3
   8  -4   6 6.13421 1.80702   1
   7   3  -6 26.1374 3.04306   1
  -7  -3   6 24.4016 2.66366   2
   6   3  -6 31.6513 3.01119   1
  -6  -3   6 38.2124 2.75114   2
   5   3  -6 3.51179 1.43357   1
  -5  -3   6 2.84214 1.19023   2
  -5  -3   6 3.49170 1.15887   5
   4   3  -6 175.381 5.34202   1
  -4  -3   6 162.999 4.97605   2
  -4  -3   6 175.321 5.15900   5
  -4  -3   6 173.810 4.63060   4
   3   3  -6 0.00582 0.84701   1
  -3  -3   6 1.55729 0.63785   4
  -3  -3   6 1.21131 0.68714   5
  -3  -3   6 0.30328 0.56574   2
   2   3  -6 10.5380 1.18859   1
  -2  -3   6 11.8292 1.27538   5
  -2  -3   6 10.4622 1.18740   2
  -2  -3   6 10.6245 0.79161   4
   1   3  -6 53.0360 1.35692   3
   1   3  -6 55.8450 2.17653   1
  -1  -3   6 55.5093 1.54142   4
  -1  -3   6 55.4204 2.04453   2
  -1  -3   6 50.9564 2.07852   5
   0   3  -6 21.3144 1.00101   3
   0  -3   6 22.4877 0.87532   4
   0  -3   6 22.5014 1.36100   1
   0  -3   6 21.0188 1.29955   5
   0  -3   6 21.5032 1.17698   2
  -1   3  -6 36.2047 1.46246   3
   1  -3   6 35.2092 1.63882   1
   1  -3   6 36.0698 1.35693   2
   1  -3   6 35.0898 1.54032   5
  -2   3  -6 129.529 3.47260   3
   2  -3   6 124.372 3.29444   5
   2  -3   6 125.964 2.92420   2
   2  -3   6 134.633 3.69982   1
  -3   3  -6 12.6136 1.19992   3
   3  -3   6 13.3705 0.88750   5
   3  -3   6 12.4102 1.32654   1
  -4   3  -6 2.29344 0.97526   3
   4  -3   6 2.99041 1.01215   1
  -5   3  -6 1.95898 0.88348   3
  -5   3  -6 1.38528 0.82183   4
   5  -3   6 0.38875 1.08050   1
  -6   3  -6 -1.2084 1.07334   3
  -6   3  -6 0.70446 1.21150   4
   6  -3   6 -0.5906 0.81864   1
  -7   3  -6 39.8029 3.15866   4
  -7   3  -6 39.6953 3.00689   3
   7  -3   6 45.9969 3.31950   1
  -8   3  -6 2.21237 1.92613   4
  -8   3  -6 -0.7050 1.60821   3
   8  -3   6 2.75598 1.96298   1
   8   2  -6 1.07323 1.60770   1
   7   2  -6 12.2317 2.38826   1
  -7  -2   6 15.5237 2.08689   4
  -7  -2   6 9.48157 1.77004   2
   6   2  -6 52.7885 3.31581   1
  -6  -2   6 47.4468 2.76562   2
  -6  -2   6 53.7768 2.84354   4
   5   2  -6 17.6002 2.08305   1
  -5  -2   6 19.6989 1.88076   5
  -5  -2   6 19.3966 1.76088   2
  -5  -2   6 25.0818 1.81884   4
   4   2  -6 6.60926 1.27335   1
  -4  -2   6 7.71811 1.20689   5
  -4  -2   6 7.14455 1.17517   2
  -4  -2   6 6.78200 1.05267   4
   3   2  -6 75.4060 2.79260   1
  -3  -2   6 75.4165 2.66907   5
  -3  -2   6 70.1216 2.35112   4
  -3  -2   6 72.2154 2.63685   2
   2   2  -6 352.300 8.00660   1
  -2  -2   6 364.812 7.86102   2
  -2  -2   6 364.096 7.57961   4
  -2  -2   6 361.440 8.22364   5
   1   2  -6 14.8825 1.05500   1
  -1  -2   6 12.0084 0.87772   2
  -1  -2   6 13.0483 0.57596   3
  -1  -2   6 14.4261 0.79098   4
  -1  -2   6 14.0401 1.08519   5
   0  -2   6 11.4997 0.76125   4
   0  -2   6 11.6264 0.98450   1
   0  -2   6 11.5501 0.68196   3
   0  -2   6 11.4283 0.74990   2
   0  -2   6 10.8220 0.90434   5
   1  -2   6 110.712 2.66830   2
   1  -2   6 108.544 2.85423   5
   1  -2   6 108.204 2.79133   3
   1  -2   6 105.822 2.90637   1
  -2   2  -6 30.8382 1.12143   2
   2  -2   6 28.1768 1.37256   1
   2  -2   6 29.3865 1.13839   5
   2  -2   6 32.2023 1.47666   3
  -3   2  -6 494.462 9.35253   2
   3  -2   6 475.796 10.1043   3
   3  -2   6 471.382 9.59300   5
   3  -2   6 483.507 10.3703   1
   4  -2   6 7.96057 1.24340   1
  -5   2  -6 29.8351 1.94507   3
   5  -2   6 30.9134 2.21853   1
  -6   2  -6 33.3293 2.54823   4
  -6   2  -6 33.2849 2.23283   3
   6  -2   6 33.6854 2.61235   1
  -7   2  -6 24.5321 2.73202   4
  -7   2  -6 28.9393 2.72694   3
  -8   2  -6 0.45463 1.55800   3
  -8   2  -6 -0.1217 1.78465   4
   8  -2   6 -1.8973 1.59681   1
   8   1  -6 0.60909 1.89108   1
  -8  -1   6 1.01370 1.64696   4
   7   1  -6 -1.0403 1.08712   1
  -7  -1   6 0.25669 1.10122   2
  -7  -1   6 1.48190 1.28508   4
   6   1  -6 41.7832 2.91933   1
  -6  -1   6 41.8448 2.56125   4
  -6  -1   6 43.1242 2.44550   2
   5   1  -6 18.0868 1.94491   1
  -5  -1   6 24.5811 1.92011   5
  -5  -1   6 18.5571 1.69207   4
  -5  -1   6 18.4491 1.65318   2
   4   1  -6 251.271 6.39733   1
  -4  -1   6 248.204 6.05173   2
  -4  -1   6 242.383 6.07793   4
  -4  -1   6 250.476 6.30422   5
   3   1  -6 240.724 5.85668   1
  -3  -1   6 245.459 5.71045   4
  -3  -1   6 238.521 5.68594   2
  -3  -1   6 236.387 5.93094   5
  -3  -1   6 242.988 4.74635   3
   2   1  -6 265.365 6.04389   1
  -2  -1   6 277.265 5.96366   4
  -2  -1   6 279.515 6.02635   2
  -2  -1   6 265.719 6.29472   5
  -2  -1   6 253.264 5.19285   3
   1   1  -6 547.309 10.9302   1
  -1  -1   6 549.990 10.3303   3
  -1  -1   6 535.773 10.9222   4
  -1  -1   6 547.786 10.8725   2
  -1  -1   6 545.923 11.4691   5
   0  -1   6 339.395 6.93827   2
   0  -1   6 342.287 7.04689   4
   0  -1   6 328.735 7.25659   5
   0  -1   6 331.552 6.91565   1
   0  -1   6 333.705 6.73711   3
  -1   1  -6 276.560 5.78616   2
   1  -1   6 278.621 5.88108   3
   1  -1   6 269.885 5.85804   1
   1  -1   6 280.325 5.98045   5
   1  -1   6 273.044 6.07100   4
  -2   1  -6 65.6831 1.95275   2
   2  -1   6 68.4055 2.14002   1
   2  -1   6 67.1389 2.18580   3
  -3   1  -6 26.7579 1.23256   2
   3  -1   6 29.8726 1.64372   3
   3  -1   6 30.7913 1.59955   1
  -4   1  -6 26.6083 1.31596   2
   4  -1   6 27.0444 1.77215   3
   4  -1   6 28.6776 1.68514   1
   5  -1   6 7.69579 1.36976   1
   5  -1   6 5.18531 1.21600   3
  -6   1  -6 4.69560 1.17003   3
  -6   1  -6 5.41515 1.55432   4
   6  -1   6 7.29015 1.57515   1
  -7   1  -6 35.1885 3.22710   4
  -7   1  -6 36.2013 2.79398   3
   7  -1   6 40.4806 3.12676   1
  -8   1  -6 1.05780 1.65714   3
  -8   1  -6 -1.1383 1.77194   4
   8  -1   6 1.24243 1.90611   1
   8   0  -6 9.37947 1.95752   1
  -8   0   6 10.1375 1.86491   4
   7   0  -6 5.74693 1.72894   1
  -7   0   6 6.20455 1.56908   4
   6   0  -6 1.83253 1.05355   1
  -6   0   6 0.43491 0.91516   4
  -6   0   6 0.04768 0.89271   2
   5   0  -6 65.7859 2.91933   1
  -5   0   6 58.9768 2.44855   2
  -5   0   6 54.7337 2.53048   4
   4   0  -6 23.5218 1.50042   1
  -4   0   6 22.1437 1.54947   4
  -4   0   6 22.5473 1.46717   2
  -4   0   6 22.8327 1.10827   3
   3   0  -6 72.6440 2.39496   1
  -3   0   6 78.1706 2.57640   4
  -3   0   6 71.6135 2.38599   2
  -3   0   6 74.8017 2.02089   3
   2   0  -6 19.7446 1.03210   1
  -2   0   6 20.6257 0.90328   3
  -2   0   6 19.4671 1.12691   2
  -2   0   6 20.1256 1.09168   4
   1   0  -6 10.7467 0.65920   1
  -1   0   6 11.0936 0.72688   3
  -1   0   6 11.7285 0.87844   2
  -1   0   6 10.6960 0.85684   4
   0   0  -6 1811.30 33.8596   2
   0   0   6 1840.18 34.5390   4
   0   0   6 1817.90 33.5295   3
   0   0   6 1802.33 33.9787   1
  -1   0  -6 191.917 4.43288   2
   1   0   6 194.134 4.67179   4
   1   0   6 190.296 4.46967   3
   1   0   6 195.837 4.15774   1
  -2   0  -6 80.3374 2.34748   2
   2   0   6 76.3812 2.50761   3
   2   0   6 76.3943 2.27309   1
  -3   0  -6 2.65045 0.63656   2
   3   0   6 4.11410 0.93128   3
   3   0   6 3.34918 0.77026   1
  -4   0  -6 8.37689 0.97404   2
   4   0   6 6.16497 1.12986   1
   4   0   6 3.41592 1.03883   3
   5   0   6 7.78091 1.43926   1
   5   0   6 7.49839 1.35924   3
   6   0   6 1.38386 1.28416   1
   6   0   6 -0.1794 0.84405   3
  -7   0  -6 10.1095 1.85533   3
  -7   0  -6 9.62608 1.92613   4
   7   0   6 11.3154 2.12782   1
   9  -1  -6 22.7669 3.13259   1
  -9   1   6 21.3136 2.90767   4
   8  -1  -6 12.6940 2.36924   1
  -8   1   6 15.6304 2.43208   4
   7  -1  -6 4.92297 1.62461   1
  -7   1   6 5.94376 1.60358   4
   6  -1  -6 10.1339 1.68884   1
  -6   1   6 9.72376 1.62773   4
  -6   1   6 9.27853 1.27339   2
   5  -1  -6 4.16291 0.96259   1
  -5   1   6 3.09541 1.04313   4
  -5   1   6 3.88960 0.80126   3
  -5   1   6 3.05168 0.84652   2
   4  -1  -6 5.07643 0.93377   1
  -4   1   6 6.49971 0.85927   3
  -4   1   6 5.46824 0.86654   2
  -4   1   6 5.61599 1.04384   4
   3  -1  -6 337.596 7.25868   1
  -3   1   6 325.885 7.56760   4
  -3   1   6 334.574 7.03291   3
  -3   1   6 336.025 7.25548   2
   2  -1  -6 28.8303 1.13499   1
  -2   1   6 29.7710 1.45472   4
  -2   1   6 30.4701 1.30141   3
  -2   1   6 32.6002 1.36482   2
   1  -1  -6 12.3165 0.94656   2
  -1   1   6 13.5466 0.91887   3
  -1   1   6 13.4801 0.98404   4
   0  -1  -6 263.954 5.86686   2
   0   1   6 263.886 5.79575   3
   0   1   6 259.510 5.92683   4
  -1  -1  -6 244.152 5.53235   2
   1   1   6 241.871 5.51676   3
   1   1   6 236.638 4.93148   1
   1   1   6 236.150 5.63773   4
  -2  -1  -6 419.423 8.77100   2
   2   1   6 406.099 8.78564   3
   2   1   6 402.950 8.48536   1
  -3  -1  -6 104.361 3.17707   2
   3   1   6 101.040 3.12766   1
   3   1   6 99.4861 3.20419   3
  -4  -1  -6 8.58075 1.18365   2
   4   1   6 8.35574 1.27264   1
   4   1   6 6.29842 1.06695   3
  -5  -1  -6 10.6879 1.35584   2
   5   1   6 14.1945 1.66807   3
   5   1   6 14.3222 1.72812   1
   6   1   6 -0.1410 1.23910   1
   6   1   6 0.03874 1.20162   3
  -7  -1  -6 10.8421 2.10532   4
   9  -2  -6 1.53508 2.29667   1
  -9   2   6 2.74700 1.88579   4
   8  -2  -6 0.91852 1.53606   1
  -8   2   6 1.25326 1.19820   4
   7  -2  -6 13.6846 2.04780   1
  -7   2   6 15.3988 1.95619   4
   6  -2  -6 23.1916 2.16302   1
  -6   2   6 19.3600 1.97930   4
  -6   2   6 24.0171 1.72263   3
   5  -2  -6 44.4715 2.25022   1
  -5   2   6 38.8234 1.95741   3
  -5   2   6 34.6196 2.20016   4
  -5   2   6 40.0522 1.87806   2
   4  -2  -6 42.5949 1.91492   1
  -4   2   6 42.1533 2.06543   4
  -4   2   6 43.9948 1.91686   3
  -4   2   6 42.2934 1.87503   2
   3  -2  -6 100.667 2.78548   1
  -3   2   6 100.723 2.99572   3
  -3   2   6 100.798 3.16424   4
   2  -2  -6 930.370 17.6313   1
   2  -2  -6 916.597 17.9758   2
  -2   2   6 920.776 18.4231   4
  -2   2   6 925.678 17.8914   3
   1  -2  -6 5.36792 0.84163   2
  -1   2   6 6.60651 0.88993   4
  -1   2   6 7.12774 0.90561   3
   0  -2  -6 1785.86 33.5395   2
   0   2   6 1778.47 34.0408   4
   0   2   6 1757.68 33.2225   3
  -1  -2  -6 422.712 9.31484   2
   1   2   6 436.969 9.27346   3
   1   2   6 435.895 8.54759   1
   1   2   6 436.466 9.44387   4
  -2  -2  -6 0.09003 0.68085   2
   2   2   6 0.91783 0.54175   1
   2   2   6 0.68346 0.56512   3
  -3  -2  -6 235.513 6.04310   2
   3   2   6 244.704 6.12005   3
   3   2   6 243.825 5.86917   1
  -4  -2  -6 66.0450 2.86858   2
   4   2   6 68.7061 2.92989   3
  -5  -2  -6 6.00222 1.41237   2
   5   2   6 7.11763 1.42751   3
  -7  -2  -6 -1.0389 1.73019   4
   9  -3  -6 0.44796 1.99348   1
  -9   3   6 0.54479 1.74889   4
   8  -3  -6 1.39686 1.67565   1
  -8   3   6 0.42920 1.53516   4
   7  -3  -6 3.63188 1.45376   1
  -7   3   6 3.92725 1.25235   4
  -7   3   6 3.39191 1.20920   3
   6  -3  -6 3.17701 1.21553   1
  -6   3   6 0.93318 0.85328   4
  -6   3   6 2.08980 1.01835   3
   5  -3  -6 191.093 5.22761   1
   5  -3  -6 187.605 4.83915   2
  -5   3   6 186.362 5.55589   4
  -5   3   6 194.338 5.21762   3
   4  -3  -6 1.02154 0.67534   1
   4  -3  -6 -0.2817 0.61534   2
  -4   3   6 0.93570 0.59849   3
  -4   3   6 0.23308 0.75617   4
   3  -3  -6 253.119 5.71290   1
   3  -3  -6 257.328 6.04353   2
  -3   3   6 262.817 6.23566   3
  -3   3   6 260.900 6.34923   4
   2  -3  -6 126.247 3.59929   2
   2  -3  -6 124.220 2.89592   1
  -2   3   6 127.054 3.68731   3
  -2   3   6 130.371 3.72158   4
   1  -3  -6 1.07575 0.66654   2
  -1   3   6 0.83606 0.59772   4
  -1   3   6 0.39826 0.59461   3
   0  -3  -6 126.941 3.81010   2
   0   3   6 131.488 3.75432   3
   0   3   6 131.459 3.71472   4
  -1  -3  -6 -0.5996 0.66160   2
   1   3   6 -0.5000 0.63118   4
   1   3   6 1.50449 0.81875   3
  -2  -3  -6 61.1815 2.68470   2
   2   3   6 63.8448 2.69200   3
  -3  -3  -6 58.3920 2.73547   2
   3   3   6 47.7383 2.53591   3
  -4  -3  -6 21.5746 2.06904   2
   4   3   6 22.0017 1.93422   3
  -5  -3  -6 24.1100 2.37322   2
  -6  -3  -6 28.0888 2.96329   4
   9  -4  -6 -1.4665 1.87727   1
  -9   4   6 2.62575 1.53515   4
   8  -4  -6 9.40109 2.09009   1
  -8   4   6 9.25467 2.10241   4
   7  -4  -6 3.62146 1.55263   1
  -7   4   6 5.51330 1.44916   4
  -7   4   6 3.51161 1.36143   3
   6  -4  -6 3.21013 1.24252   1
  -6   4   6 3.86422 1.20033   3
  -6   4   6 3.55173 1.35179   4
   5  -4  -6 19.8481 1.71980   1
  -5   4   6 22.2956 1.78380   4
  -5   4   6 19.9489 1.92293   3
   4  -4  -6 6.52098 1.05276   1
   4  -4  -6 7.23499 1.06218   2
  -4   4   6 10.3734 1.35012   4
  -4   4   6 7.20927 1.30488   3
   3  -4  -6 10.3799 1.20589   2
  -3   4   6 11.3436 1.43518   3
  -3   4   6 12.0639 1.40432   4
   2  -4  -6 1.90723 0.66864   2
  -2   4   6 1.71976 0.77728   4
  -2   4   6 0.57879 0.63039   3
   1  -4  -6 20.3069 1.59839   2
  -1   4   6 18.1351 1.60954   3
  -1   4   6 19.9558 1.41523   4
   0  -4  -6 56.4770 2.56132   2
   0   4   6 55.1562 2.28629   4
   0   4   6 56.9542 2.51863   3
  -1  -4  -6 25.2981 1.95113   2
   1   4   6 28.8125 1.78543   4
   1   4   6 27.8198 1.96226   3
  -2  -4  -6 3.55155 1.19330   2
   2   4   6 2.94197 1.13985   3
  -3  -4  -6 68.1140 3.32661   2
   3   4   6 71.1767 3.12697   3
  -4  -4  -6 61.6567 3.36335   2
   4   4   6 58.3435 3.08718   3
  -5  -4  -6 0.71933 1.33772   2
   8  -5  -6 -1.0465 1.45585   1
  -8   5   6 0.31757 1.69662   4
  -8   5   6 0.40327 1.42811   3
   7  -5  -6 0.53784 1.44217   1
  -7   5   6 2.24499 1.58566   4
  -7   5   6 1.24463 1.32593   3
  -6   5   6 1.39744 1.32480   4
  -6   5   6 0.04381 1.17029   3
  -5   5   6 32.1337 2.44324   3
  -5   5   6 30.2305 2.35400   4
   4  -5  -6 8.79297 1.22665   2
  -4   5   6 11.5709 1.56924   4
  -4   5   6 11.9832 1.65358   3
   3  -5  -6 74.1393 2.87393   2
  -3   5   6 68.2079 2.94217   3
  -3   5   6 70.2137 2.89146   4
   2  -5  -6 101.959 3.56592   2
  -2   5   6 104.495 3.43127   4
  -2   5   6 96.6251 3.53560   3
   1  -5  -6 12.3927 1.54884   2
  -1   5   6 12.7108 1.47478   3
  -1   5   6 11.7859 1.42561   4
   0  -5  -6 -1.7775 0.79396   2
   0   5   6 0.46759 0.72545   4
   0   5   6 -0.3953 0.89515   3
  -1  -5  -6 40.7389 2.57774   2
   1   5   6 40.8297 2.28234   3
  -2  -5  -6 132.751 4.75814   2
   2   5   6 133.237 4.55382   3
  -3  -5  -6 -2.2602 1.17557   2
   3   5   6 1.15152 1.23956   3
  -4  -5  -6 1.24052 1.16900   2
  -8   6   6 18.8038 2.61068   3
  -8   6   6 19.4726 2.87124   4
  -7   6   6 5.12878 1.77433   3
  -7   6   6 4.07504 1.81301   4
  -6   6   6 57.6897 3.39742   4
  -6   6   6 53.8277 3.35290   3
  -5   6   6 32.0020 2.44710   4
  -5   6   6 27.9508 2.61727   3
   4  -6  -6 9.21400 1.42067   2
  -4   6   6 15.5954 1.84756   3
  -4   6   6 11.7919 1.67901   4
   3  -6  -6 7.18639 1.37293   2
  -3   6   6 8.12719 1.55074   3
  -3   6   6 7.63231 1.29997   4
   2  -6  -6 34.2107 2.28434   2
  -2   6   6 35.2806 2.45092   3
  -2   6   6 33.6804 2.03122   4
   1  -6  -6 20.4817 2.02163   2
  -1   6   6 24.7533 1.93370   3
   0  -6  -6 9.45253 1.65038   2
   0   6   6 8.74353 1.42031   3
  -1  -6  -6 5.75153 1.56060   2
   1   6   6 8.46953 1.62040   3
  -2  -6  -6 2.64945 1.53777   2
   2   6   6 4.34836 1.51373   3
  -3  -6  -6 11.0630 2.20200   2
  -7   7   6 -0.0246 1.22131   3
  -7   7   6 0.51131 1.68014   4
  -6   7   6 19.5608 2.38807   4
  -6   7   6 21.2141 2.68592   3
  -5   7   6 2.34688 1.59443   3
  -4   7   6 3.86364 1.35377   3
   3  -7  -6 3.14655 1.24090   2
  -3   7   6 6.57096 1.47478   3
   2  -7  -6 7.69872 1.57519   2
  -2   7   6 8.74786 1.58178   3
   1  -7  -6 19.0462 2.27124   2
  -1   7   6 20.9796 2.32990   3
   0  -7  -6 45.4867 3.15713   2
   0   7   6 47.3139 3.04604   3
  -1  -7  -6 12.0131 2.20678   2
   1   7   6 14.0468 2.07219   3
  -2  -7  -6 26.1693 2.88805   2
  -6   8   6 -0.0240 1.69467   3
  -5   8   6 1.49179 1.64039   3
  -4   8   6 1.88801 1.27489   3
   3  -8  -6 1.29837 1.50165   2
  -3   8   6 -0.3194 1.03629   3
   2  -8  -6 17.2046 2.23914   2
  -2   8   6 16.2527 2.31529   3
   1  -8  -6 0.53980 1.60005   2
  -1   8   6 2.86319 1.63221   3
   0  -8  -6 58.4651 3.94864   2
   0   8   6 57.3107 3.61276   3
  -1  -8  -6 14.1160 2.30061   2
  -4   9   6 0.30061 1.32540   3
  -3   9   6 15.2956 2.29188   3
   2  -9  -6 0.03316 1.93195   2
  -2   9   6 1.35744 1.80919   3
  -1  10  -7 1.07470 1.85694   1
   1 -10   7 0.91812 1.84863   5
  -2  10  -7 1.31810 1.98812   1
   2 -10   7 2.00829 1.51250   5
   3 -10   7 0.46873 1.69046   5
   3 -10   7 1.00160 1.85986   1
   4 -10   7 2.87574 1.90944   5
   4 -10   7 1.55766 2.10916   1
   1   9  -7 17.8326 2.74617   1
  -1  -9   7 11.6446 2.02596   2
  -1  -9   7 13.4553 2.26247   5
   0   9  -7 4.94449 1.87374   1
   0  -9   7 5.10802 2.03395   5
   0  -9   7 4.21815 1.77031   2
  -1   9  -7 7.52872 2.08388   1
   1  -9   7 4.76101 1.87186   5
   2  -9   7 -0.5330 1.51849   1
   2  -9   7 0.41750 1.51335   5
   3  -9   7 12.3827 2.32464   1
   3  -9   7 13.3279 2.16254   5
  -4   9  -7 19.5132 2.39560   3
   4  -9   7 17.3397 2.32637   5
   4  -9   7 20.3239 2.76203   1
  -5   9  -7 4.33287 1.84392   3
   5  -9   7 5.26537 2.11331   1
  -6   9  -7 4.00646 1.97850   3
   6  -9   7 6.33782 1.99390   1
   3   8  -7 0.79039 1.75491   1
  -3  -8   7 -0.4584 1.60527   5
  -3  -8   7 0.35695 1.68333   2
   2   8  -7 20.9486 2.77889   1
  -2  -8   7 24.3308 2.83448   5
  -2  -8   7 26.4744 2.80472   2
   1   8  -7 11.4318 2.16353   1
  -1  -8   7 11.0650 1.93044   2
  -1  -8   7 14.5136 2.27276   5
   0   8  -7 62.6475 3.57768   1
   0  -8   7 59.1332 3.63508   5
   0  -8   7 62.8669 3.21518   2
  -1   8  -7 0.47653 1.02011   1
   1  -8   7 -0.0081 1.26687   5
   2  -8   7 9.02191 1.63669   5
   2  -8   7 8.03947 1.88146   1
  -3   8  -7 1.16817 1.14789   3
   3  -8   7 3.55352 1.34505   1
   3  -8   7 4.26330 1.45231   5
  -4   8  -7 16.3016 2.13718   3
   4  -8   7 23.0395 2.47104   1
  -5   8  -7 11.6598 2.01515   3
   5  -8   7 10.1471 2.22216   1
  -6   8  -7 6.43445 1.94102   3
   6  -8   7 0.07044 1.91350   1
  -7   8  -7 2.23509 1.75504   3
   7  -8   7 -0.3874 2.03061   1
   4   7  -7 3.30594 1.90480   1
  -4  -7   7 3.60771 1.89825   2
  -4  -7   7 4.55013 1.80765   5
   3   7  -7 3.90410 1.71788   1
  -3  -7   7 -0.5956 1.41697   2
  -3  -7   7 0.21259 1.05201   5
   2   7  -7 25.3485 2.65963   1
  -2  -7   7 21.2532 2.49944   5
  -2  -7   7 29.1253 2.61096   2
   1   7  -7 63.7189 3.41369   1
  -1  -7   7 57.1783 3.04032   2
  -1  -7   7 58.6077 3.17856   5
   0   7  -7 0.31219 1.16054   1
   0  -7   7 -0.9901 0.89571   2
   0  -7   7 -0.3261 0.84740   5
   1  -7   7 0.90599 1.19003   5
   1  -7   7 2.63782 1.26390   1
   1  -7   7 2.47550 1.02690   2
  -2   7  -7 6.06723 1.23360   3
   2  -7   7 6.07152 1.40068   5
   2  -7   7 5.11475 1.47848   1
  -3   7  -7 -0.6892 0.68309   3
   3  -7   7 -0.7929 0.93084   5
   3  -7   7 0.61606 1.22697   1
  -4   7  -7 1.86532 1.26076   3
   4  -7   7 0.69835 1.33340   1
  -5   7  -7 3.41837 1.55947   3
   5  -7   7 2.30238 1.28922   1
  -6   7  -7 5.23964 1.48213   3
   6  -7   7 4.10056 1.92306   1
  -7   7  -7 2.94621 1.41120   3
   7  -7   7 -2.2621 1.72687   1
   5   6  -7 0.55966 1.30557   1
  -5  -6   7 1.72972 1.79874   5
  -5  -6   7 1.08541 1.69439   2
   4   6  -7 1.26101 1.54527   1
  -4  -6   7 3.44014 1.59161   5
  -4  -6   7 3.23597 1.63063   2
   3   6  -7 24.6252 2.58487   1
  -3  -6   7 22.5194 2.44378   5
  -3  -6   7 22.1972 2.34292   2
   2   6  -7 1.40612 1.19806   1
  -2  -6   7 0.61742 0.90987   5
  -2  -6   7 -1.1681 1.00510   2
   1   6  -7 42.1674 2.61746   1
  -1  -6   7 35.8401 2.51136   5
  -1  -6   7 36.7750 2.35286   2
   0   6  -7 40.3695 2.51285   1
   0  -6   7 41.7737 2.24165   2
   0  -6   7 39.3827 2.50611   5
  -1   6  -7 11.8163 1.27186   3
   1  -6   7 12.1665 1.49430   5
   1  -6   7 12.7257 1.34337   2
   1  -6   7 12.8744 1.69335   1
  -2   6  -7 0.38188 0.84309   3
   2  -6   7 -0.6156 0.59048   5
   2  -6   7 0.50996 1.04592   1
  -3   6  -7 9.03874 1.47408   3
   3  -6   7 6.77657 1.22684   5
   3  -6   7 7.33054 1.49531   1
  -4   6  -7 21.5379 2.01208   3
   4  -6   7 23.2157 2.28769   1
  -5   6  -7 17.6765 1.84896   4
  -5   6  -7 17.3823 2.16333   3
   5  -6   7 17.5581 2.27608   1
  -6   6  -7 21.8656 2.30401   4
  -6   6  -7 17.9189 2.38173   3
   6  -6   7 21.3765 2.66045   1
  -7   6  -7 14.0145 2.10513   4
  -7   6  -7 13.9134 2.32373   3
   7  -6   7 18.5577 2.54337   1
  -8   6  -7 3.00374 2.01165   3
  -8   6  -7 4.15635 2.26273   4
   8  -6   7 7.66309 2.42062   1
   6   5  -7 0.08436 1.81922   1
  -6  -5   7 -2.7795 1.42190   2
   5   5  -7 17.7846 2.49821   1
  -5  -5   7 10.9789 2.01237   5
  -5  -5   7 10.4339 1.99319   2
   4   5  -7 6.12133 1.68237   1
  -4  -5   7 3.72952 1.21068   2
  -4  -5   7 2.66774 1.41453   5
   3   5  -7 -0.0621 1.13497   1
  -3  -5   7 -0.5745 0.97200   2
  -3  -5   7 -1.0996 1.06142   5
   2   5  -7 1.08930 1.11424   1
  -2  -5   7 0.37637 0.75020   2
  -2  -5   7 -1.3464 0.92729   5
   1   5  -7 86.3675 3.38955   1
  -1  -5   7 83.6210 3.37614   5
  -1  -5   7 79.7454 3.06151   2
   0   5  -7 2.55796 0.66706   3
   0  -5   7 3.08042 0.84944   2
   0  -5   7 1.89215 0.80649   1
   0  -5   7 1.92022 0.93135   5
  -1   5  -7 36.2729 1.77135   3
   1  -5   7 32.7169 1.70834   2
   1  -5   7 34.4129 1.97035   1
   1  -5   7 38.8702 2.07621   5
  -2   5  -7 0.88485 0.78084   3
   2  -5   7 -0.2046 0.50170   2
   2  -5   7 0.65449 0.95425   1
   2  -5   7 -0.9948 0.67154   5
  -3   5  -7 69.0014 2.48400   4
  -3   5  -7 68.8963 2.75203   3
   3  -5   7 64.4120 3.00697   1
   3  -5   7 68.6718 2.65278   5
  -4   5  -7 16.1350 1.69942   3
  -4   5  -7 16.0847 1.59624   4
   4  -5   7 15.3563 1.75852   1
  -5   5  -7 102.797 3.85797   4
  -5   5  -7 100.302 3.89720   3
   5  -5   7 105.330 4.26197   1
  -6   5  -7 1.55790 1.45964   3
  -6   5  -7 2.29966 1.39547   4
   6  -5   7 2.75854 1.53786   1
  -7   5  -7 56.9472 3.31746   4
  -7   5  -7 51.8006 3.57629   3
   7  -5   7 61.8455 3.85748   1
  -8   5  -7 19.7770 2.79036   3
  -8   5  -7 16.1056 2.39028   4
   8  -5   7 15.7634 2.62396   1
   7   4  -7 8.36570 2.45651   1
  -7  -4   7 5.13949 2.03343   2
   6   4  -7 0.04186 1.30252   1
  -6  -4   7 -0.1899 1.35522   2
   5   4  -7 26.6760 2.65913   1
  -5  -4   7 27.4012 2.49892   2
  -5  -4   7 23.0338 2.28287   5
   4   4  -7 32.5082 2.50362   1
  -4  -4   7 26.0324 2.27828   2
  -4  -4   7 31.3772 2.39366   5
   3   4  -7 17.7828 1.91626   1
  -3  -4   7 18.6774 1.74682   2
  -3  -4   7 19.1540 1.90639   5
   2   4  -7 20.5913 1.88435   1
  -2  -4   7 20.6299 1.60842   5
  -2  -4   7 21.8395 1.54753   2
   1   4  -7 238.297 6.20959   1
  -1  -4   7 239.566 6.29867   5
  -1  -4   7 250.517 5.97479   2
   0   4  -7 0.85951 0.53115   3
   0  -4   7 1.10697 0.63432   2
   0  -4   7 0.30325 0.68760   5
   0  -4   7 -0.6254 0.71797   1
  -1   4  -7 379.712 8.02084   3
   1  -4   7 381.294 7.94333   2
   1  -4   7 376.905 8.60042   1
   1  -4   7 372.179 8.61138   5
  -2   4  -7 202.211 5.06497   3
   2  -4   7 203.040 4.52793   2
   2  -4   7 211.352 5.18089   5
   2  -4   7 201.496 5.41576   1
  -3   4  -7 0.37973 0.64531   3
   3  -4   7 -1.2853 0.76467   1
   3  -4   7 3.50851 0.76797   5
  -4   4  -7 105.574 3.63744   3
   4  -4   7 105.975 3.76416   1
  -5   4  -7 14.3409 1.78005   4
  -5   4  -7 14.5113 1.89243   3
   5  -4   7 14.3198 1.85613   1
  -6   4  -7 -1.1211 1.17390   4
  -6   4  -7 -0.6375 0.82498   3
   6  -4   7 -1.7193 1.16222   1
  -7   4  -7 10.1448 2.15904   4
  -7   4  -7 9.28684 1.98028   3
   7  -4   7 10.1526 2.13547   1
  -8   4  -7 1.56567 1.46711   4
  -8   4  -7 1.50715 1.43884   3
   8  -4   7 3.16603 1.93262   1
   7   3  -7 72.4327 4.41795   1
  -7  -3   7 76.2780 4.00891   2
   6   3  -7 2.94650 1.45067   1
  -6  -3   7 3.52339 1.49548   2
   5   3  -7 235.509 6.92948   1
  -5  -3   7 246.515 6.74554   2
  -5  -3   7 234.982 6.77321   5
   4   3  -7 111.067 4.24076   1
  -4  -3   7 119.086 4.06780   2
  -4  -3   7 119.103 4.14543   5
  -4  -3   7 129.148 3.73209   4
   3   3  -7 167.800 4.82639   1
  -3  -3   7 145.790 4.02568   4
  -3  -3   7 164.250 4.84872   5
  -3  -3   7 166.883 4.67973   2
   2   3  -7 44.0919 2.17366   1
  -2  -3   7 42.5707 2.04500   2
  -2  -3   7 45.0496 1.61254   4
  -2  -3   7 43.9605 2.07339   5
   1   3  -7 -0.1611 0.29925   3
   1   3  -7 0.44240 0.64777   1
  -1  -3   7 0.36815 0.50581   5
  -1  -3   7 0.37819 0.38311   4
  -1  -3   7 0.47140 0.59590   2
   0   3  -7 1.43038 0.48082   3
   0  -3   7 1.19374 0.67185   1
   0  -3   7 1.27274 0.56297   2
   0  -3   7 2.26584 0.46877   4
   0  -3   7 1.54057 0.55010   5
  -1   3  -7 25.7175 1.28128   3
   1  -3   7 24.0059 1.32954   5
   1  -3   7 23.8756 1.14074   2
   1  -3   7 23.2132 1.32949   1
  -2   3  -7 0.75892 0.63914   3
   2  -3   7 1.79717 0.76660   1
   2  -3   7 0.39982 0.38107   2
   2  -3   7 1.00601 0.54037   5
  -3   3  -7 6.61037 0.97968   3
   3  -3   7 3.53751 0.61398   5
   3  -3   7 5.83806 1.06997   1
  -4   3  -7 1.97203 0.79251   3
   4  -3   7 1.03928 0.90094   1
  -5   3  -7 1.52350 1.13265   3
   5  -3   7 1.36660 0.87607   1
  -6   3  -7 7.15380 1.42622   4
  -6   3  -7 6.44182 1.55225   3
   6  -3   7 6.29574 1.65303   1
  -7   3  -7 4.12391 1.67585   3
  -7   3  -7 4.42123 1.74530   4
   7  -3   7 6.92546 1.90759   1
  -8   3  -7 0.89727 1.77222   3
  -8   3  -7 0.97558 1.90882   4
   8  -3   7 5.33456 2.15463   1
   8   2  -7 0.82354 1.99412   1
   7   2  -7 18.2299 2.63718   1
  -7  -2   7 17.9809 2.17948   2
  -7  -2   7 24.9947 2.50996   4
   6   2  -7 4.81590 1.63389   1
  -6  -2   7 7.25466 1.44148   4
  -6  -2   7 3.80778 1.32121   2
  -6  -2   7 4.80606 1.40920   5
   5   2  -7 13.4732 1.74533   1
  -5  -2   7 12.9746 1.67390   5
  -5  -2   7 12.6048 1.60874   2
  -5  -2   7 14.9385 1.58724   4
   4   2  -7 5.08697 1.22483   1
  -4  -2   7 6.92318 1.19733   2
  -4  -2   7 3.97427 1.10210   5
  -4  -2   7 6.67649 1.05883   4
   3   2  -7 92.9978 3.10861   1
  -3  -2   7 86.4045 2.93377   2
  -3  -2   7 86.8648 3.12056   5
  -3  -2   7 84.8932 2.73899   4
   2   2  -7 127.302 3.54039   1
  -2  -2   7 117.761 3.45084   2
  -2  -2   7 118.693 3.16443   4
  -2  -2   7 119.329 3.62530   5
   1   2  -7 62.1747 2.13628   1
  -1  -2   7 59.8867 1.55678   3
  -1  -2   7 59.6313 2.22732   5
  -1  -2   7 59.5627 2.04110   2
  -1  -2   7 58.2375 1.85471   4
   0  -2   7 689.914 12.9673   3
   0  -2   7 677.524 13.3153   2
   0  -2   7 674.930 13.6451   1
   0  -2   7 678.638 13.4100   4
   0  -2   7 671.467 14.0689   5
   1  -2   7 602.543 12.3807   5
   1  -2   7 600.053 11.7896   3
   1  -2   7 608.163 11.7459   2
   1  -2   7 584.953 12.1432   1
   1  -2   7 595.498 12.0878   4
  -2   2  -7 928.969 17.6119   2
   2  -2   7 929.890 17.9809   3
   2  -2   7 921.909 18.4722   5
   2  -2   7 929.103 18.4175   1
  -3   2  -7 4.73628 0.61566   2
   3  -2   7 5.77040 0.96783   1
   3  -2   7 3.65268 0.75235   3
   4  -2   7 68.3613 2.78946   1
   4  -2   7 59.9223 2.53242   3
  -5   2  -7 2.67614 1.18761   3
   5  -2   7 4.50095 1.22950   1
  -6   2  -7 21.2199 2.11642   3
  -6   2  -7 17.6451 2.25880   4
   6  -2   7 19.4903 2.24662   1
  -7   2  -7 2.56350 1.65583   4
  -7   2  -7 -0.9287 1.39121   3
   7  -2   7 0.19692 1.42601   1
  -8   2  -7 1.02513 1.88371   4
  -8   2  -7 1.84256 1.42788   3
   8  -2   7 3.59953 2.02519   1
   8   1  -7 15.3142 2.64063   1
  -8  -1   7 12.0642 2.20149   4
   7   1  -7 2.51736 1.71772   1
  -7  -1   7 8.28810 1.74943   4
  -7  -1   7 3.62883 1.32322   2
   6   1  -7 8.90738 1.80913   1
  -6  -1   7 7.37674 1.47395   4
  -6  -1   7 5.29343 1.28143   2
   5   1  -7 249.705 6.93842   1
  -5  -1   7 254.637 6.53966   2
  -5  -1   7 268.009 6.89353   5
  -5  -1   7 254.311 6.64997   4
   4   1  -7 113.383 3.74020   1
  -4  -1   7 110.592 3.52123   4
  -4  -1   7 112.527 3.47131   2
  -4  -1   7 102.788 3.58144   5
   3   1  -7 104.406 3.24650   1
  -3  -1   7 106.274 3.12754   4
  -3  -1   7 101.155 3.30945   5
  -3  -1   7 96.0671 2.30286   3
  -3  -1   7 107.343 3.20694   2
   2   1  -7 667.509 13.5012   1
  -2  -1   7 674.811 14.1085   5
  -2  -1   7 676.653 13.3872   2
  -2  -1   7 674.575 13.4584   4
  -2  -1   7 636.722 12.4795   3
   1   1  -7 969.169 18.9779   1
  -1  -1   7 999.749 18.8775   2
  -1  -1   7 977.546 19.0754   4
  -1  -1   7 967.689 18.2331   3
  -1  -1   7 976.401 19.8763   5
   0  -1   7 9.94865 0.82576   3
   0  -1   7 8.27546 0.81468   4
   0  -1   7 9.00598 0.87973   5
   0  -1   7 9.18984 0.72717   1
   0  -1   7 9.06038 0.85267   2
  -1   1  -7 42.4708 1.54629   2
   1  -1   7 41.3435 1.56802   3
   1  -1   7 42.2131 1.48744   1
   1  -1   7 39.0385 1.61913   4
  -2   1  -7 286.688 6.08229   2
   2  -1   7 283.105 6.35354   3
   2  -1   7 273.851 6.21877   1
  -3   1  -7 47.2364 1.69345   2
   3  -1   7 43.1003 1.95308   1
   3  -1   7 45.4983 2.08390   3
   4  -1   7 80.8055 3.02508   1
   4  -1   7 78.1217 3.02441   3
   5  -1   7 0.22610 0.91438   1
   5  -1   7 -0.0152 0.95515   3
   6  -1   7 5.37229 1.50588   1
  -7   1  -7 4.75349 1.70198   3
  -7   1  -7 4.18215 1.79266   4
   7  -1   7 5.07385 1.80886   1
  -8   1  -7 0.16568 1.94484   4
  -8   1  -7 0.65641 1.68898   3
   8  -1   7 0.61841 1.83431   1
   8   0  -7 -0.9389 1.67312   1
  -8   0   7 -0.5608 1.07092   4
   7   0  -7 2.34629 1.27629   1
  -7   0   7 1.11958 1.05341   4
   6   0  -7 100.912 4.08523   1
  -6   0   7 92.5127 3.86273   4
   5   0  -7 18.8740 1.87134   1
  -5   0   7 20.7705 1.62511   4
  -5   0   7 22.4160 1.80082   2
   4   0  -7 1.01203 0.81224   1
  -4   0   7 2.86366 0.58363   3
  -4   0   7 2.61338 0.83668   4
  -4   0   7 1.90160 0.78716   2
   3   0  -7 0.30940 0.55829   1
  -3   0   7 0.80312 0.39124   3
  -3   0   7 0.44418 0.62498   4
  -3   0   7 0.70917 0.56457   2
   2   0  -7 4.64407 0.69387   1
  -2   0   7 5.59157 0.84018   4
  -2   0   7 3.26743 0.52570   3
  -2   0   7 4.96197 0.71676   2
   1   0  -7 319.611 6.55645   1
  -1   0   7 317.997 7.05297   4
  -1   0   7 324.350 6.95209   2
  -1   0   7 319.754 6.66725   3
   0   0  -7 152.687 3.75266   2
   0   0   7 147.837 3.25800   1
   0   0   7 147.348 3.82426   4
   0   0   7 146.820 3.62662   3
  -1   0  -7 477.552 9.68489   2
   1   0   7 464.768 9.34082   1
   1   0   7 475.416 9.69144   3
   1   0   7 466.238 10.0028   4
  -2   0  -7 43.6754 1.74305   2
   2   0   7 43.7091 1.83565   3
   2   0   7 42.2474 1.63390   1
  -3   0  -7 9.30211 1.01826   2
   3   0   7 9.39791 1.07937   1
   3   0   7 8.62389 1.18495   3
  -4   0  -7 4.40647 0.86109   2
   4   0   7 4.36829 1.03008   1
   4   0   7 3.56216 1.08525   3
   5   0   7 1.17006 1.01833   1
   5   0   7 -1.4080 0.91278   3
   6   0   7 1.36847 1.31708   1
   6   0   7 -0.6401 0.85001   3
  -7   0  -7 1.33058 1.49309   3
  -7   0  -7 2.25222 1.42393   4
   7   0   7 3.55423 1.72319   1
   8  -1  -7 -0.7946 1.56806   1
  -8   1   7 0.00240 1.46854   4
   7  -1  -7 12.8043 2.07273   1
  -7   1   7 10.7758 1.76015   4
   6  -1  -7 -0.7948 1.10743   1
  -6   1   7 -0.3815 1.02805   4
  -6   1   7 -0.1722 0.83738   2
   5  -1  -7 147.991 4.51938   1
  -5   1   7 146.438 4.18770   2
  -5   1   7 145.197 4.63006   4
  -5   1   7 145.974 3.92930   3
   4  -1  -7 47.7275 2.07139   1
  -4   1   7 43.8973 2.22064   4
  -4   1   7 40.1886 1.71421   3
  -4   1   7 46.4398 2.01916   2
   3  -1  -7 10.7676 0.97688   1
  -3   1   7 7.68361 1.07835   4
  -3   1   7 9.16912 0.92526   3
  -3   1   7 9.04342 1.01277   2
   2  -1  -7 69.5128 1.93907   1
  -2   1   7 73.4453 2.24039   3
  -2   1   7 70.1072 2.34744   2
  -2   1   7 67.1513 2.42150   4
   1  -1  -7 4.45784 0.70576   2
  -1   1   7 4.89872 0.73147   3
  -1   1   7 5.69294 0.83581   4
   0  -1  -7 596.704 11.9435   2
   0   1   7 576.647 11.8059   3
   0   1   7 585.674 12.1352   4
  -1  -1  -7 177.838 4.49218   2
   1   1   7 177.579 4.63922   4
   1   1   7 179.370 4.48911   3
   1   1   7 173.199 3.76341   1
  -2  -1  -7 260.922 6.18013   2
   2   1   7 264.451 6.30107   3
   2   1   7 266.561 5.81827   1
  -3  -1  -7 486.033 10.3819   2
   3   1   7 483.598 10.5207   3
   3   1   7 478.774 10.2952   1
  -4  -1  -7 8.27963 1.26756   2
   4   1   7 6.67372 1.20489   1
   4   1   7 6.84492 1.32062   3
   5   1   7 83.2141 3.44826   3
   5   1   7 72.9445 3.27104   1
   6   1   7 -0.4551 1.23379   3
  -7  -1  -7 7.64969 2.15855   4
   9  -2  -7 -1.3715 1.89031   1
  -9   2   7 -0.4054 1.20494   4
   8  -2  -7 10.0903 2.22194   1
  -8   2   7 8.05818 1.70463   4
   7  -2  -7 2.86279 1.41315   1
  -7   2   7 0.21837 1.24090   4
   6  -2  -7 27.3937 2.16005   1
  -6   2   7 22.8697 1.95963   2
  -6   2   7 25.2841 2.34024   4
  -6   2   7 25.8299 1.75635   3
   5  -2  -7 239.797 6.14528   1
  -5   2   7 231.366 5.82033   3
   4  -2  -7 51.1368 2.09054   1
  -4   2   7 47.7144 2.26587   4
  -4   2   7 46.1739 2.05239   2
  -4   2   7 51.0939 2.12736   3
   3  -2  -7 1049.37 20.3934   2
   3  -2  -7 1032.94 20.2679   1
  -3   2   7 1046.28 20.2367   3
  -3   2   7 1051.67 21.0107   4
   2  -2  -7 1.23591 0.61738   2
   2  -2  -7 0.96484 0.35392   1
  -2   2   7 0.42665 0.47767   4
  -2   2   7 -0.1099 0.51490   3
   1  -2  -7 327.137 7.33995   2
  -1   2   7 330.821 7.47203   4
  -1   2   7 325.129 7.26231   3
   0  -2  -7 4.78954 0.77191   2
   0   2   7 3.29988 0.71816   4
   0   2   7 4.21831 0.84238   3
  -1  -2  -7 168.370 4.58268   2
   1   2   7 175.032 4.64972   3
   1   2   7 175.774 4.68207   4
  -2  -2  -7 5.07569 0.94264   2
   2   2   7 3.34124 0.97557   3
  -3  -2  -7 107.326 3.62821   2
   3   2   7 102.490 3.60798   3
  -4  -2  -7 0.45381 0.92691   2
   4   2   7 1.81980 1.12216   3
  -5  -2  -7 6.78992 1.39305   2
   5   2   7 5.22897 1.44852   3
   6   2   7 5.58900 1.79958   3
   9  -3  -7 1.87490 2.07342   1
  -9   3   7 2.90181 1.90214   4
   8  -3  -7 5.65532 1.93455   1
  -8   3   7 9.20222 2.03565   4
   7  -3  -7 1.49086 1.39677   1
  -7   3   7 -0.6981 0.83414   4
   6  -3  -7 0.08905 0.98185   1
  -6   3   7 2.01000 0.99815   3
  -6   3   7 0.66080 1.08814   4
   5  -3  -7 2.52601 0.96408   1
   5  -3  -7 -0.6209 0.71248   2
  -5   3   7 1.33096 0.88626   3
  -5   3   7 1.73222 0.87361   4
   4  -3  -7 -0.0440 0.69101   2
   4  -3  -7 0.83181 0.63140   1
  -4   3   7 0.37333 0.81677   4
  -4   3   7 1.14399 0.80872   3
   3  -3  -7 82.2470 2.38943   1
   3  -3  -7 85.3456 2.89390   2
  -3   3   7 86.1604 3.08867   4
  -3   3   7 83.6534 2.97510   3
   2  -3  -7 2.15370 0.74877   2
  -2   3   7 2.90866 0.87564   4
  -2   3   7 3.31468 0.76426   3
   1  -3  -7 0.82317 0.69754   2
  -1   3   7 0.56905 0.68150   3
  -1   3   7 1.07962 0.56131   4
   0  -3  -7 3.33254 0.93105   2
   0   3   7 4.00431 0.92481   3
   0   3   7 4.94522 0.94519   4
  -1  -3  -7 17.1946 1.63685   2
   1   3   7 19.6591 1.54726   4
   1   3   7 16.6797 1.62406   3
  -2  -3  -7 0.44617 0.92123   2
   2   3   7 0.57255 0.91628   3
  -3  -3  -7 223.880 6.18201   2
   3   3   7 230.301 6.21039   3
  -4  -3  -7 4.85361 1.36768   2
   4   3   7 6.74360 1.46633   3
  -5  -3  -7 19.7191 2.20656   2
   5   3   7 19.2312 2.19039   3
   8  -4  -7 3.31019 1.86634   1
  -8   4   7 6.62904 1.72177   4
   7  -4  -7 -0.8826 1.23473   1
  -7   4   7 0.05026 1.13953   3
  -7   4   7 0.39531 0.99895   4
   6  -4  -7 -0.0072 0.98947   1
  -6   4   7 1.45127 1.07359   3
  -6   4   7 2.40458 1.27810   4
   5  -4  -7 8.13368 1.27739   2
  -5   4   7 8.20926 1.44704   3
  -5   4   7 8.63071 1.54166   4
   4  -4  -7 96.9196 3.30464   2
  -4   4   7 91.7720 3.48324   3
  -4   4   7 92.1561 3.54005   4
   3  -4  -7 75.9221 2.97236   2
  -3   4   7 74.1690 2.86296   4
  -3   4   7 68.8441 2.83478   3
   2  -4  -7 81.7055 3.01557   2
  -2   4   7 80.4855 2.97801   4
  -2   4   7 77.0013 3.04811   3
   1  -4  -7 2.36255 0.79668   2
  -1   4   7 1.33909 0.80456   4
  -1   4   7 0.84620 0.87706   3
   0  -4  -7 108.357 3.78673   2
   0   4   7 112.481 3.54362   4
   0   4   7 110.204 3.68567   3
  -1  -4  -7 0.95301 0.98465   2
   1   4   7 1.57068 1.04508   3
   1   4   7 3.59123 1.01383   4
  -2  -4  -7 56.4086 2.94107   2
   2   4   7 57.6086 2.71455   3
  -3  -4  -7 72.7326 3.45304   2
   3   4   7 64.3615 3.17791   3
  -4  -4  -7 4.69255 1.58724   2
   4   4   7 1.28323 1.35317   3
  -5  -4  -7 4.37469 1.67698   2
  -8   5   7 9.32447 2.27127   4
  -8   5   7 8.97304 1.94315   3
  -7   5   7 1.64000 1.42743   3
  -7   5   7 1.51001 1.57637   4
  -6   5   7 31.2179 2.81820   4
  -6   5   7 30.2604 2.27338   3
  -5   5   7 94.7936 3.92232   4
  -5   5   7 94.9720 3.77345   3
   4  -5  -7 27.7774 1.94383   2
  -4   5   7 26.4590 2.30141   3
  -4   5   7 30.2300 2.20532   4
   3  -5  -7 9.42704 1.35571   2
  -3   5   7 10.1682 1.44680   3
  -3   5   7 10.0413 1.43283   4
   2  -5  -7 -1.2609 0.82065   2
  -2   5   7 -1.4435 0.66607   4
  -2   5   7 0.51012 0.70442   3
   1  -5  -7 18.0094 1.87177   2
  -1   5   7 19.9965 1.61077   4
  -1   5   7 19.1012 1.82815   3
   0  -5  -7 7.56930 1.42225   2
   0   5   7 7.69390 1.29208   3
   0   5   7 6.77732 1.20517   4
  -1  -5  -7 12.5970 1.77367   2
   1   5   7 11.4270 1.58109   3
  -2  -5  -7 11.1774 1.69229   2
   2   5   7 11.2382 1.75983   3
  -3  -5  -7 -2.1635 1.21267   2
   3   5   7 -0.2420 1.22675   3
  -4  -5  -7 3.64863 1.70721   2
  -8   6   7 2.28724 2.01726   4
  -8   6   7 1.09632 1.74844   3
  -7   6   7 10.6695 2.10741   3
  -7   6   7 10.8317 2.23800   4
  -6   6   7 -0.0438 1.28274   3
  -6   6   7 -0.2752 1.30071   4
  -5   6   7 4.55166 1.47691   4
  -5   6   7 7.28561 1.74297   3
   4  -6  -7 38.8555 2.37350   2
  -4   6   7 39.6154 2.55881   4
  -4   6   7 39.6165 2.77249   3
   3  -6  -7 0.75284 1.06856   2
  -3   6   7 1.46575 1.20926   3
  -3   6   7 -0.5814 0.82857   4
   2  -6  -7 3.18942 0.99308   2
  -2   6   7 1.69879 1.24461   3
  -2   6   7 3.75021 1.08339   4
   1  -6  -7 1.15563 1.17832   2
  -1   6   7 -1.0273 0.97610   3
   0  -6  -7 -1.0341 1.04265   2
   0   6   7 -0.7230 1.10390   3
  -1  -6  -7 42.4307 3.08693   2
   1   6   7 56.6518 3.17507   3
  -2  -6  -7 2.70207 1.57053   2
   2   6   7 1.44800 1.45946   3
  -3  -6  -7 27.3471 3.02808   2
  -7   7   7 9.81214 1.97682   3
  -7   7   7 13.1602 2.43243   4
  -6   7   7 3.71691 1.77399   3
  -6   7   7 -1.7098 1.30331   4
  -5   7   7 23.5097 2.77406   3
  -4   7   7 5.22333 1.43894   3
   3  -7  -7 14.1455 2.05092   2
  -3   7   7 14.6352 1.94903   3
   2  -7  -7 42.1438 2.82898   2
  -2   7   7 36.7484 2.85773   3
   1  -7  -7 0.36724 1.35923   2
  -1   7   7 1.92512 1.38771   3
   0  -7  -7 -0.6749 1.43197   2
   0   7   7 -0.2957 1.35680   3
  -1  -7  -7 0.91731 1.58819   2
   1   7   7 0.64221 1.42342   3
  -2  -7  -7 -0.9790 1.64423   2
  -6   8   7 8.30960 2.37782   3
  -5   8   7 4.03293 1.94736   3
  -4   8   7 71.0141 4.09681   3
   3  -8  -7 44.8452 3.31472   2
  -3   8   7 44.3026 3.39566   3
   2  -8  -7 9.96034 1.98546   2
  -2   8   7 12.9630 2.27498   3
   1  -8  -7 108.782 4.87679   2
  -1   8   7 96.7142 4.39672   3
   0  -8  -7 3.91466 1.96008   2
   0   8   7 4.56280 1.92262   3
  -1  10  -8 5.85284 2.25145   1
   1 -10   8 0.00304 1.88384   5
  -2  10  -8 5.55149 2.21845   1
   2 -10   8 3.63697 2.08922   5
   3 -10   8 4.89302 2.19333   1
   3 -10   8 7.22723 2.19206   5
   1   9  -8 2.25282 2.00766   1
  -1  -9   8 0.53960 1.63262   2
  -1  -9   8 1.12725 1.84062   5
   0   9  -8 0.33161 1.21190   1
   0  -9   8 -1.3504 1.29923   2
   0  -9   8 0.38620 1.62491   5
  -1   9  -8 12.5399 2.28867   1
   1  -9   8 13.6065 2.35061   5
   2  -9   8 2.52789 1.78221   1
   2  -9   8 1.90794 1.61450   5
   3  -9   8 54.2209 3.60177   5
   3  -9   8 56.2647 3.88601   1
  -4   9  -8 5.39970 1.67943   3
   4  -9   8 6.45504 2.20913   1
  -5   9  -8 5.64363 1.96067   3
   5  -9   8 6.92354 2.23333   1
   3   8  -8 16.2393 2.73499   1
  -3  -8   8 13.2083 2.47180   5
  -3  -8   8 11.1842 2.33253   2
   2   8  -8 2.72893 1.74367   1
  -2  -8   8 3.78247 1.91870   5
  -2  -8   8 3.82374 1.43624   2
   1   8  -8 2.02636 1.25025   1
  -1  -8   8 1.60885 1.38210   2
  -1  -8   8 1.54011 1.62173   5
   0   8  -8 3.89530 1.33066   1
   0  -8   8 1.75348 1.56396   5
   0  -8   8 4.23031 1.42051   2
   1  -8   8 0.48064 1.37684   5
   2  -8   8 1.53948 1.38130   5
   2  -8   8 -1.0447 1.34380   1
  -3   8  -8 11.6412 1.77980   3
   3  -8   8 12.7739 1.92333   5
   3  -8   8 14.1431 2.23032   1
  -4   8  -8 3.87473 1.50770   3
   4  -8   8 1.41717 1.64383   1
  -5   8  -8 3.97443 1.64801   3
   5  -8   8 6.93751 2.03854   1
  -6   8  -8 0.57355 1.63305   3
   6  -8   8 0.00318 1.82828   1
   4   7  -8 5.38190 2.02433   1
  -4  -7   8 1.54342 1.77799   2
  -4  -7   8 1.62680 1.77712   5
   3   7  -8 5.57379 1.85972   1
  -3  -7   8 2.04242 1.61156   2
  -3  -7   8 4.12019 1.76667   5
   2   7  -8 16.0615 2.30065   1
  -2  -7   8 13.0425 1.96703   5
  -2  -7   8 15.5725 2.10849   2
   1   7  -8 152.457 5.47371   1
  -1  -7   8 166.186 5.24734   2
  -1  -7   8 144.644 5.33430   5
   0   7  -8 3.80331 1.23444   1
   0  -7   8 1.94763 1.08405   5
   0  -7   8 1.13645 1.06160   2
   1  -7   8 7.48868 1.62536   1
   1  -7   8 5.42544 1.24734   2
   1  -7   8 9.09284 1.67825   5
  -2   7  -8 0.20700 0.88442   3
   2  -7   8 0.41725 1.08756   5
   2  -7   8 -1.0443 0.73908   1
  -3   7  -8 -1.2889 0.93066   3
   3  -7   8 -0.2508 0.88625   1
   3  -7   8 1.40589 1.08879   5
  -4   7  -8 -0.7535 0.80810   3
   4  -7   8 -0.7597 0.95034   1
  -5   7  -8 29.3463 2.63227   3
   5  -7   8 31.7690 3.04106   1
  -6   7  -8 5.49937 1.87895   3
   6  -7   8 10.1859 2.28179   1
  -7   7  -8 -0.5488 1.57378   3
   7  -7   8 -0.5591 1.42712   1
   5   6  -8 0.50762 1.73697   1
  -5  -6   8 -0.2516 1.56111   5
  -5  -6   8 -0.7259 1.57365   2
   4   6  -8 14.9049 2.17331   1
  -4  -6   8 12.3119 1.94175   2
  -4  -6   8 12.0666 2.11556   5
   3   6  -8 -0.3567 1.00939   1
  -3  -6   8 0.69420 1.37774   5
  -3  -6   8 -0.0525 1.26114   2
   2   6  -8 9.80865 1.78245   1
  -2  -6   8 8.18494 1.51876   5
  -2  -6   8 7.34324 1.35547   2
   1   6  -8 15.6918 1.81962   1
  -1  -6   8 15.8614 1.82740   5
  -1  -6   8 13.0272 1.70474   2
   0   6  -8 2.81321 1.03578   1
   0  -6   8 2.57670 1.02772   5
   0  -6   8 1.16020 0.93053   2
  -1   6  -8 5.71445 1.03564   3
   1  -6   8 8.85497 1.57045   1
   1  -6   8 8.34439 1.17874   2
   1  -6   8 5.75947 1.33276   5
  -2   6  -8 0.94005 0.96523   3
   2  -6   8 2.11564 0.98798   1
   2  -6   8 2.39038 1.02067   5
  -3   6  -8 29.8976 2.20434   3
   3  -6   8 31.9662 2.41678   1
   3  -6   8 36.6783 2.28128   5
  -4   6  -8 19.1124 2.10413   3
   4  -6   8 19.1952 2.21461   1
  -5   6  -8 153.013 5.13728   3
   5  -6   8 148.770 5.33312   1
  -6   6  -8 6.79054 1.58660   3
  -6   6  -8 6.66458 1.65531   4
   6  -6   8 6.33136 1.91379   1
  -7   6  -8 10.4786 2.28340   3
  -7   6  -8 15.9657 2.41720   4
   7  -6   8 5.48435 2.15852   1
   6   5  -8 -1.0899 1.84692   1
  -6  -5   8 -1.2430 1.60633   2
   5   5  -8 0.10176 1.55995   1
  -5  -5   8 -0.6457 1.32765   5
  -5  -5   8 -0.4205 1.02719   2
   4   5  -8 -0.0436 0.95901   1
  -4  -5   8 -0.4547 1.22430   5
  -4  -5   8 1.28203 1.05212   2
   3   5  -8 3.90617 1.20801   1
  -3  -5   8 1.82805 1.15998   2
  -3  -5   8 2.02679 1.29468   5
   2   5  -8 0.94688 1.14915   1
  -2  -5   8 0.16282 1.01872   5
  -2  -5   8 -0.4901 0.95846   2
   1   5  -8 40.9578 2.27764   1
  -1  -5   8 42.4314 2.27721   2
  -1  -5   8 38.5817 2.43417   5
   0  -5   8 8.23817 1.24328   5
   0  -5   8 8.02305 1.17100   2
   0  -5   8 7.92181 1.23774   1
  -1   5  -8 15.6564 1.41117   3
   1  -5   8 17.3167 1.41731   2
   1  -5   8 17.8852 1.81645   1
   1  -5   8 19.3169 1.49320   5
  -2   5  -8 1.46038 0.92638   3
   2  -5   8 1.06889 0.81866   5
   2  -5   8 1.34480 0.82789   1
   2  -5   8 1.77088 0.64990   2
  -3   5  -8 117.680 3.85337   3
   3  -5   8 119.419 3.71480   5
   3  -5   8 116.694 4.18516   1
  -4   5  -8 8.40529 1.28637   4
  -4   5  -8 4.83855 1.37097   3
   4  -5   8 4.63393 1.22501   1
  -5   5  -8 88.3160 3.88046   3
  -5   5  -8 85.4037 3.59721   4
   5  -5   8 91.1642 4.02553   1
  -6   5  -8 20.9105 2.41986   4
  -6   5  -8 19.7449 2.37119   3
   6  -5   8 23.4428 2.60760   1
  -7   5  -8 22.3919 2.74261   3
  -7   5  -8 17.2137 2.59479   4
   7  -5   8 19.7900 2.70229   1
  -8   5  -8 19.6262 3.00126   4
  -8   5  -8 19.1413 2.87116   3
   8  -5   8 18.4409 2.64768   1
   7   4  -8 6.51105 1.97001   1
  -7  -4   8 11.3999 2.37945   2
   6   4  -8 7.56826 2.16645   1
  -6  -4   8 5.34819 1.79272   2
   5   4  -8 125.600 5.02581   1
  -5  -4   8 125.659 4.81813   5
  -5  -4   8 131.562 4.90065   2
   4   4  -8 58.5619 3.23445   1
  -4  -4   8 57.2972 3.02035   2
  -4  -4   8 62.7379 3.22139   5
   3   4  -8 201.582 6.14188   1
  -3  -4   8 219.220 6.28561   5
  -3  -4   8 220.447 6.01172   2
   2   4  -8 242.651 6.38006   1
  -2  -4   8 223.471 5.93644   2
  -2  -4   8 225.355 6.34593   5
   1   4  -8 0.29241 0.81173   1
  -1  -4   8 1.08793 0.80154   2
  -1  -4   8 -0.2372 0.82491   5
   0   4  -8 53.6096 1.85789   3
   0  -4   8 54.6724 2.40529   5
   0  -4   8 53.8146 2.14365   2
   0  -4   8 51.0409 1.64843   4
   0  -4   8 57.7001 2.48206   1
  -1   4  -8 11.5930 1.10869   3
   1  -4   8 11.3007 1.36979   1
   1  -4   8 11.9933 1.04459   2
   1  -4   8 12.0931 1.28280   5
  -2   4  -8 41.2401 1.98666   3
   2  -4   8 38.2338 1.52429   2
   2  -4   8 39.5375 1.91276   5
   2  -4   8 40.9127 2.16561   1
  -3   4  -8 6.77579 1.06924   3
   3  -4   8 7.46101 0.95388   5
   3  -4   8 6.88627 1.41600   1
  -4   4  -8 48.5636 2.63940   3
   4  -4   8 55.7749 2.82936   1
  -5   4  -8 2.31929 0.97291   4
  -5   4  -8 1.31606 1.16013   3
   5  -4   8 1.88043 1.03501   1
  -6   4  -8 1.33326 1.41967   3
  -6   4  -8 2.59894 1.49114   4
   6  -4   8 2.88265 1.23447   1
  -7   4  -8 1.34100 1.72969   4
  -7   4  -8 0.99114 1.26138   3
   7  -4   8 1.76852 1.61155   1
  -8   4  -8 0.66620 1.90020   4
  -8   4  -8 -0.1777 1.37516   3
   8  -4   8 -0.5016 1.76579   1
   7   3  -8 13.3767 2.43848   1
  -7  -3   8 11.2828 2.10022   2
   6   3  -8 1.25822 1.66896   1
  -6  -3   8 -0.2249 1.29914   2
  -6  -3   8 1.64905 1.37396   5
   5   3  -8 93.9021 4.12466   1
  -5  -3   8 89.6234 3.80179   2
  -5  -3   8 91.8772 3.88953   5
   4   3  -8 8.32432 1.59312   1
  -4  -3   8 13.9590 1.73987   5
  -4  -3   8 13.2425 1.39498   4
  -4  -3   8 12.6067 1.62191   2
   3   3  -8 18.0919 1.80230   1
  -3  -3   8 18.3864 1.73647   2
  -3  -3   8 19.6653 1.84018   5
  -3  -3   8 17.4815 1.22286   4
   2   3  -8 297.700 7.24971   1
  -2  -3   8 296.678 7.45305   5
  -2  -3   8 297.054 6.53712   4
  -2  -3   8 302.083 7.10157   2
   1   3  -8 172.108 3.74187   3
   1   3  -8 174.657 4.67487   1
  -1  -3   8 179.219 4.58206   2
  -1  -3   8 177.426 4.11059   4
  -1  -3   8 173.472 4.81099   5
   0   3  -8 1.75785 0.49256   3
   0  -3   8 0.65266 0.56198   2
   0  -3   8 1.58864 0.52509   4
   0  -3   8 1.10451 0.55570   1
   0  -3   8 2.26812 0.74716   5
   1  -3   8 1.31745 0.64750   5
   1  -3   8 1.84273 0.54732   2
   1  -3   8 1.08669 0.56091   1
   2  -3   8 194.237 4.75061   5
   2  -3   8 195.641 4.41637   2
   2  -3   8 192.293 5.02380   1
  -3   3  -8 3.35240 0.96000   3
   3  -3   8 0.92042 0.85359   1
  -4   3  -8 12.6615 1.57973   3
   4  -3   8 13.0493 1.59620   1
  -5   3  -8 0.62950 1.07648   3
   5  -3   8 0.51291 1.06476   1
  -6   3  -8 0.69533 1.36349   4
  -6   3  -8 2.63056 1.13225   3
   6  -3   8 3.58440 1.48847   1
  -7   3  -8 7.09648 2.07015   4
  -7   3  -8 9.82550 1.96355   3
   7  -3   8 9.36015 1.96852   1
  -8   3  -8 -0.0456 1.96648   4
  -8   3  -8 -2.1949 1.70960   3
   8  -3   8 -0.2336 1.79036   1
   8   2  -8 -0.0450 1.90379   1
   7   2  -8 5.07470 1.97553   1
  -7  -2   8 3.29094 1.56245   2
   6   2  -8 21.9446 2.54692   1
  -6  -2   8 19.6590 2.19047   2
  -6  -2   8 23.0280 2.17091   4
  -6  -2   8 26.4068 2.41298   5
   5   2  -8 48.9124 2.93803   1
  -5  -2   8 47.0927 2.42738   4
  -5  -2   8 42.6621 2.56112   2
  -5  -2   8 47.6609 2.72126   5
   4   2  -8 62.9266 2.88599   1
  -4  -2   8 58.0054 2.67260   2
  -4  -2   8 61.9625 2.72667   5
  -4  -2   8 59.6396 2.50016   4
   3   2  -8 9.45375 1.27821   1
  -3  -2   8 7.83058 1.17591   5
  -3  -2   8 8.41167 1.18821   2
  -3  -2   8 9.65210 1.10398   4
   2   2  -8 55.5818 2.25488   1
  -2  -2   8 54.5418 2.15073   2
  -2  -2   8 54.3860 1.99239   4
  -2  -2   8 63.0455 2.39875   5
  -2  -2   8 52.8909 1.37172   3
   1   2  -8 176.755 4.46089   1
  -1  -2   8 178.264 3.81609   3
  -1  -2   8 178.639 4.25156   4
  -1  -2   8 170.320 4.41247   2
  -1  -2   8 176.174 4.70687   5
   0  -2   8 1152.67 21.9539   2
   0  -2   8 1151.89 22.3857   1
   0  -2   8 1144.93 23.1646   5
   0  -2   8 1129.86 22.2066   4
   0  -2   8 1154.31 21.5006   3
   1  -2   8 692.297 14.0132   4
   1  -2   8 700.457 14.0078   1
   1  -2   8 686.496 13.5827   3
   1  -2   8 702.387 14.3362   5
   1  -2   8 681.087 13.5839   2
  -2   2  -8 104.562 2.78048   2
   2  -2   8 103.031 2.82512   5
   2  -2   8 104.316 3.12489   1
   2  -2   8 103.450 3.13712   3
  -3   2  -8 28.1668 1.31464   2
   3  -2   8 32.0027 1.76276   1
   3  -2   8 28.2091 1.76418   3
   4  -2   8 16.8208 1.56354   3
   4  -2   8 12.3480 1.48093   1
   5  -2   8 5.09755 1.28606   1
  -6   2  -8 2.29349 1.09449   3
   6  -2   8 3.02695 1.39756   1
  -7   2  -8 24.0152 2.86272   4
  -7   2  -8 23.7122 2.65093   3
   7  -2   8 23.2704 2.71105   1
  -8   2  -8 -0.6657 1.93969   4
  -8   2  -8 -0.8398 1.61371   3
   8  -2   8 1.34775 1.89339   1
   8   1  -8 4.96143 2.20999   1
  -8  -1   8 6.18995 1.84981   4
   7   1  -8 -1.3241 1.50988   1
  -7  -1   8 -0.3332 1.13484   2
  -7  -1   8 -1.3589 1.07407   4
   6   1  -8 1.12055 1.31966   1
  -6  -1   8 2.49455 1.19098   4
  -6  -1   8 0.52755 0.99106   2
   5   1  -8 45.0043 2.66417   1
  -5  -1   8 39.1554 2.19193   4
  -5  -1   8 42.8558 2.36299   2
  -5  -1   8 39.4087 2.43745   5
   4   1  -8 11.3636 1.35104   1
  -4  -1   8 10.9539 1.40850   5
  -4  -1   8 13.3722 1.44791   2
  -4  -1   8 14.5332 1.49808   4
   3   1  -8 122.009 3.65077   1
  -3  -1   8 121.139 3.58246   4
  -3  -1   8 120.783 2.82137   3
  -3  -1   8 126.641 3.69840   2
  -3  -1   8 123.452 3.87749   5
   2   1  -8 289.592 6.51809   1
  -2  -1   8 287.717 6.56941   2
  -2  -1   8 287.098 6.54306   4
  -2  -1   8 278.506 6.87508   5
  -2  -1   8 284.965 5.81298   3
   1   1  -8 243.641 5.47213   1
  -1  -1   8 246.669 5.97509   5
  -1  -1   8 241.990 5.62566   4
  -1  -1   8 248.444 5.22271   3
  -1  -1   8 239.944 5.63756   2
   0  -1   8 1211.55 23.2310   2
   0  -1   8 1234.84 23.6871   4
   0  -1   8 1197.61 23.3496   1
   0  -1   8 1229.79 22.8833   3
   0  -1   8 1211.66 24.4285   5
  -1   1  -8 5.52045 0.75047   2
   1  -1   8 5.54744 0.86398   4
   1  -1   8 4.75378 0.65832   1
   1  -1   8 5.90758 0.83580   3
  -2   1  -8 5.53602 0.76955   2
   2  -1   8 7.01563 0.85347   1
   2  -1   8 7.46918 0.94332   3
  -3   1  -8 33.1546 1.54913   2
   3  -1   8 30.5299 1.74288   1
   3  -1   8 29.8503 1.83305   3
   4  -1   8 0.36565 0.90765   3
   4  -1   8 0.03757 0.77087   1
   5  -1   8 3.82991 1.29133   3
   5  -1   8 5.39359 1.33756   1
   6  -1   8 7.41214 1.69744   1
   6  -1   8 5.23273 1.58540   3
  -7   1  -8 13.4108 2.34512   4
  -7   1  -8 12.4504 1.92615   3
   7  -1   8 17.1740 2.42585   1
   8   0  -8 1.23036 1.49644   1
  -8   0   8 4.83537 1.80693   4
   7   0  -8 -1.6133 1.37248   1
  -7   0   8 0.19635 1.12897   2
  -7   0   8 1.17658 1.29265   4
   6   0  -8 -0.6700 1.16823   1
  -6   0   8 1.48077 1.13246   4
  -6   0   8 0.93497 0.93906   2
   5   0  -8 32.6418 2.23973   1
  -5   0   8 35.6983 2.10252   4
  -5   0   8 37.1972 1.97580   2
   4   0  -8 21.5466 1.65321   1
  -4   0   8 23.8252 1.21982   3
  -4   0   8 22.6253 1.61841   2
  -4   0   8 22.5600 1.55170   4
   3   0  -8 54.9766 2.07482   1
  -3   0   8 54.5757 1.78238   3
  -3   0   8 52.7938 2.16138   2
  -3   0   8 47.4124 2.15088   4
   2   0  -8 283.760 6.26750   1
  -2   0   8 289.874 6.60700   2
  -2   0   8 287.109 6.12859   3
  -2   0   8 294.107 6.72500   4
   1   0  -8 10.2662 0.71764   1
  -1   0   8 10.8492 0.94564   3
  -1   0   8 11.6657 1.10938   4
  -1   0   8 12.2443 0.95041   2
   0   0  -8 45.4460 1.83938   2
   0   0   8 44.0105 1.76470   3
   0   0   8 46.4470 1.39214   1
   0   0   8 46.8991 1.85682   4
  -1   0  -8 -0.0742 0.51321   2
   1   0   8 0.49660 0.46330   3
   1   0   8 -0.2943 0.35607   1
   1   0   8 -0.1879 0.57436   4
  -2   0  -8 58.7921 2.17349   2
   2   0   8 56.2823 2.23841   3
   2   0   8 58.7344 1.97671   1
  -3   0  -8 9.39459 1.14568   2
   3   0   8 8.51277 1.08705   1
   3   0   8 9.84465 1.20256   3
  -4   0  -8 40.7146 1.96165   2
   4   0   8 41.8283 2.20905   3
   4   0   8 41.0881 2.17094   1
   5   0   8 20.2610 1.96122   1
   5   0   8 13.8879 1.82819   3
   6   0   8 38.1352 2.80419   3
   6   0   8 37.8356 2.95830   1
  -7   0  -8 25.0368 2.86082   4
   8  -1  -8 1.21385 1.73601   1
  -8   1   8 3.49672 1.64436   4
   7  -1  -8 1.52743 1.50514   1
  -7   1   8 1.60354 1.33164   4
   6  -1  -8 3.28898 1.29033   1
  -6   1   8 3.92221 1.09400   2
  -6   1   8 2.32781 1.23973   4
   5  -1  -8 16.9403 1.70920   1
  -5   1   8 15.1576 1.53783   2
  -5   1   8 15.6523 1.77233   4
   4  -1  -8 12.9363 1.32935   1
  -4   1   8 10.5466 1.25697   2
  -4   1   8 11.9273 1.12427   3
  -4   1   8 11.5221 1.41720   4
   3  -1  -8 166.929 4.15676   1
  -3   1   8 165.414 4.64094   4
  -3   1   8 164.795 4.16224   3
  -3   1   8 172.181 4.44956   2
   2  -1  -8 107.988 2.62062   1
  -2   1   8 100.477 3.12316   2
  -2   1   8 105.084 2.98797   3
  -2   1   8 102.225 3.20843   4
   1  -1  -8 99.3641 2.17653   1
   1  -1  -8 95.6497 2.98969   2
  -1   1   8 102.484 2.95280   3
  -1   1   8 94.5333 3.05483   4
   0  -1  -8 202.461 5.07544   2
   0   1   8 214.761 5.26895   4
   0   1   8 201.426 5.01214   3
  -1  -1  -8 13.2510 1.21849   2
   1   1   8 12.8740 1.26259   4
   1   1   8 12.6247 0.72449   1
   1   1   8 14.8044 1.34264   3
  -2  -1  -8 26.0166 1.63962   2
   2   1   8 25.3571 1.70224   3
   2   1   8 23.9722 1.36361   1
  -3  -1  -8 113.211 3.57387   2
   3   1   8 105.296 3.68343   3
  -4  -1  -8 8.42843 1.27914   2
   4   1   8 9.09430 1.34144   3
   5   1   8 43.7927 2.72077   3
  -7  -1  -8 5.81425 1.81783   4
   8  -2  -8 -2.1191 1.48569   1
  -8   2   8 -0.1528 1.07815   4
   7  -2  -8 4.38510 1.56385   1
  -7   2   8 0.37024 1.33055   4
   6  -2  -8 3.41922 1.26017   1
  -6   2   8 4.54534 1.17511   4
  -6   2   8 1.82235 0.93628   2
   5  -2  -8 6.57072 1.27180   1
  -5   2   8 4.92341 1.06328   2
  -5   2   8 5.76133 1.17863   4
  -5   2   8 6.09225 1.08890   3
   4  -2  -8 112.166 3.37547   1
  -4   2   8 113.741 3.46442   3
  -4   2   8 113.900 3.54694   2
  -4   2   8 112.319 3.83747   4
   3  -2  -8 116.031 3.13583   1
   3  -2  -8 123.837 3.60503   2
  -3   2   8 123.841 3.60346   3
  -3   2   8 125.620 3.89736   4
   2  -2  -8 -0.4535 0.61134   2
  -2   2   8 0.21879 0.60157   3
  -2   2   8 -0.4971 0.64792   4
   1  -2  -8 212.295 5.28701   2
  -1   2   8 198.501 5.25323   4
  -1   2   8 207.710 5.16580   3
   0  -2  -8 599.131 12.6443   2
   0   2   8 616.536 12.8452   4
   0   2   8 594.622 12.5077   3
  -1  -2  -8 15.1086 1.46951   2
   1   2   8 13.0546 1.38967   3
   1   2   8 14.2785 1.47180   4
  -2  -2  -8 47.0188 2.34963   2
   2   2   8 48.4807 2.26839   3
  -3  -2  -8 14.9590 1.61153   2
   3   2   8 15.8064 1.62795   3
  -4  -2  -8 -2.2590 0.84001   2
   4   2   8 0.39713 1.14478   3
  -5  -2  -8 12.7611 1.75976   2
   5   2   8 15.0654 2.04764   3
   6   2   8 -1.3866 1.42730   3
   8  -3  -8 17.0498 2.49350   1
  -8   3   8 17.0642 2.54521   4
   7  -3  -8 111.604 4.44837   1
  -7   3   8 101.569 4.40092   4
   6  -3  -8 122.851 4.28914   1
  -6   3   8 121.016 4.13837   3
  -6   3   8 130.168 4.79591   4
   5  -3  -8 5.57567 1.18562   2
   5  -3  -8 5.51664 1.21986   1
  -5   3   8 4.75561 1.29062   4
  -5   3   8 4.54755 1.12042   3
   4  -3  -8 292.223 7.08461   2
  -4   3   8 296.730 7.54905   4
  -4   3   8 305.357 7.27810   3
   3  -3  -8 67.4312 2.63867   2
  -3   3   8 62.1412 2.61781   4
  -3   3   8 61.5364 2.51814   3
   2  -3  -8 132.852 4.04109   2
  -2   3   8 142.107 4.18482   4
  -2   3   8 133.160 4.04472   3
   1  -3  -8 8.23850 1.11249   2
  -1   3   8 7.23951 1.04424   3
  -1   3   8 7.61826 1.15469   4
   0  -3  -8 -0.0031 0.73724   2
   0   3   8 0.36616 0.62370   3
   0   3   8 2.04116 0.85384   4
  -1  -3  -8 42.1014 2.29868   2
   1   3   8 41.3593 2.29728   3
   1   3   8 41.7978 2.12761   4
  -2  -3  -8 67.1071 3.00121   2
   2   3   8 62.1056 2.76353   3
  -3  -3  -8 13.6925 1.75855   2
   3   3   8 11.6340 1.57449   3
  -4  -3  -8 -1.2342 1.08505   2
   4   3   8 0.01965 0.86812   3
  -5  -3  -8 7.83589 1.79178   2
   5   3   8 11.3035 2.00008   3
  -8   4   8 1.71417 1.37614   4
  -7   4   8 1.82295 1.26317   3
  -7   4   8 0.91643 1.15770   4
  -6   4   8 2.18394 1.08706   4
  -6   4   8 1.33543 1.06702   3
   5  -4  -8 4.86481 1.22033   2
  -5   4   8 5.12810 1.27587   3
  -5   4   8 4.68167 1.17063   4
   4  -4  -8 22.5655 1.76514   2
  -4   4   8 24.6725 1.80084   3
  -4   4   8 23.6572 2.13794   4
   3  -4  -8 24.7520 1.83684   2
  -3   4   8 21.6515 1.64581   4
  -3   4   8 23.0135 1.99337   3
   2  -4  -8 148.306 4.53207   2
  -2   4   8 148.387 4.58924   3
  -2   4   8 150.459 4.53867   4
   1  -4  -8 1.63273 0.98086   2
  -1   4   8 -0.3577 0.83094   3
  -1   4   8 1.00212 0.84077   4
   0  -4  -8 76.4315 3.25382   2
   0   4   8 82.1832 3.31528   3
   0   4   8 86.1484 3.18511   4
  -1  -4  -8 18.2237 1.94314   2
   1   4   8 20.5418 1.85691   4
   1   4   8 19.1854 1.94130   3
  -2  -4  -8 120.065 4.43824   2
   2   4   8 124.398 4.38894   3
  -3  -4  -8 57.3871 3.24529   2
   3   4   8 63.1900 3.23805   3
  -4  -4  -8 1.00196 1.44443   2
   4   4   8 1.79986 1.46030   3
  -5  -4  -8 -2.1090 1.32992   2
  -8   5   8 2.05605 1.41309   4
  -8   5   8 0.41725 1.45228   3
  -7   5   8 -0.4040 0.96252   3
  -7   5   8 0.50510 1.57579   4
  -6   5   8 72.7537 3.76311   4
  -6   5   8 62.4355 3.43611   3
  -5   5   8 10.0014 1.74356   3
  -5   5   8 8.27691 1.66842   4
   4  -5  -8 68.9838 2.98074   2
  -4   5   8 66.5398 3.11488   3
  -4   5   8 69.9661 3.25889   4
   3  -5  -8 11.1624 1.54329   2
  -3   5   8 12.1986 1.71904   3
  -3   5   8 11.4964 1.56783   4
   2  -5  -8 16.4145 1.81839   2
  -2   5   8 16.5356 1.88603   3
  -2   5   8 18.9344 1.83092   4
   1  -5  -8 33.1848 2.30219   2
  -1   5   8 36.7362 2.39249   3
  -1   5   8 36.1641 2.17022   4
   0  -5  -8 77.8485 3.44615   2
   0   5   8 74.9789 3.37985   3
   0   5   8 68.4377 2.98364   4
  -1  -5  -8 34.0218 2.55762   2
   1   5   8 32.2983 2.70220   3
   1   5   8 33.7407 2.21086   4
  -2  -5  -8 0.33426 1.22955   2
   2   5   8 0.27442 1.26146   3
  -3  -5  -8 52.9124 3.45805   2
   3   5   8 46.2504 3.09694   3
  -4  -5  -8 2.44158 1.75679   2
  -7   6   8 0.50670 1.52006   3
  -7   6   8 -0.0613 1.21608   4
  -6   6   8 3.21270 1.58948   4
  -6   6   8 0.23553 1.41428   3
  -5   6   8 9.17345 1.89054   3
  -5   6   8 11.4323 1.89111   4
   4  -6  -8 10.1498 1.57173   2
  -4   6   8 7.69020 1.53327   4
  -4   6   8 12.0550 1.95345   3
   3  -6  -8 18.4780 1.97210   2
  -3   6   8 18.8854 2.18693   3
  -3   6   8 17.4958 1.92563   4
   2  -6  -8 1.27362 1.16323   2
  -2   6   8 0.85333 0.93015   4
  -2   6   8 -0.6885 0.77757   3
   1  -6  -8 1.18029 1.26870   2
  -1   6   8 2.65025 1.31478   3
   0  -6  -8 0.89954 1.30461   2
   0   6   8 1.43810 1.35712   3
  -1  -6  -8 16.9288 2.29151   2
   1   6   8 14.6101 2.15975   3
  -2  -6  -8 -0.3887 1.41303   2
   2   6   8 -0.6260 1.34087   3
  -3  -6  -8 -1.1754 1.16535   2
  -7   7   8 -0.1968 1.30444   4
  -7   7   8 0.19820 1.71499   3
  -6   7   8 1.37438 1.70538   3
  -6   7   8 1.04029 1.60584   4
  -5   7   8 -2.3626 1.36828   3
  -5   7   8 -0.4939 1.27484   4
  -4   7   8 25.2009 2.77244   3
   3  -7  -8 0.03801 1.14980   2
  -3   7   8 1.40649 1.16889   3
   2  -7  -8 57.4606 3.35506   2
  -2   7   8 61.6887 3.57866   3
   1  -7  -8 39.0916 3.06805   2
  -1   7   8 36.8720 3.12110   3
   0  -7  -8 2.10485 1.34290   2
   0   7   8 2.78058 1.62383   3
  -1  -7  -8 82.5095 4.49470   2
   1   7   8 72.2786 3.76960   3
  -5   8   8 2.95712 1.55351   3
  -4   8   8 4.52586 1.92444   3
   3  -8  -8 0.55977 1.49737   2
  -3   8   8 -2.9887 1.40119   3
   2  -8  -8 2.43359 1.74647   2
  -2   8   8 0.66594 1.70148   3
   1  -8  -8 3.93275 1.99245   2
  -1   8   8 3.11386 1.91487   3
  -2  10  -9 8.10289 2.40658   1
   2 -10   9 3.27176 2.11260   5
   3 -10   9 -0.8068 1.69010   5
   3 -10   9 1.91752 2.00892   1
   1   9  -9 7.78328 2.28277   1
  -1  -9   9 6.66876 1.92730   2
  -1  -9   9 5.53691 2.15846   5
   0   9  -9 3.25252 1.90272   1
   0  -9   9 5.88179 1.80699   2
   0  -9   9 4.72907 2.03839   5
  -1   9  -9 1.26725 1.63887   1
   1  -9   9 -3.1652 1.39442   5
   2  -9   9 1.79204 1.61523   5
   2  -9   9 3.94352 1.91127   1
   3  -9   9 4.83282 1.77550   5
   3  -9   9 4.59051 2.09588   1
  -4   9  -9 1.10697 1.53779   3
   4  -9   9 1.75664 1.92665   1
  -5   9  -9 0.69921 1.32747   3
   5  -9   9 3.40211 2.11942   1
   3   8  -9 3.42371 1.66351   1
  -3  -8   9 0.99971 1.88619   2
  -3  -8   9 -0.6472 1.75344   5
   2   8  -9 1.54693 1.77413   1
  -2  -8   9 0.42343 1.20883   2
  -2  -8   9 0.40225 1.68359   5
   1   8  -9 11.2353 2.19457   1
  -1  -8   9 11.8473 2.00777   2
  -1  -8   9 11.1839 2.19617   5
   0   8  -9 10.4146 2.04373   1
   0  -8   9 12.4274 1.84113   2
   0  -8   9 8.49780 2.05086   5
   1  -8   9 5.18828 1.74323   5
   2  -8   9 1.24466 1.44475   5
   2  -8   9 -0.6382 1.02764   1
  -3   8  -9 -0.1799 1.14308   3
   3  -8   9 0.65318 1.29188   5
   3  -8   9 1.47663 1.59643   1
  -4   8  -9 3.78620 1.52128   3
   4  -8   9 -0.3186 1.55764   1
  -5   8  -9 0.86233 1.53186   3
   5  -8   9 2.45530 1.86348   1
  -6   8  -9 3.65757 1.86051   3
   6  -8   9 6.24147 2.32516   1
   4   7  -9 8.96206 2.24434   1
  -4  -7   9 7.52643 2.14074   2
  -4  -7   9 8.20787 2.22510   5
   3   7  -9 4.39102 1.85698   1
  -3  -7   9 6.28725 1.92744   5
  -3  -7   9 4.83326 1.73449   2
   2   7  -9 2.66149 1.57557   1
  -2  -7   9 3.61268 1.52815   2
  -2  -7   9 2.40210 1.54701   5
   1   7  -9 31.6426 2.84069   1
  -1  -7   9 30.4762 2.84400   5
  -1  -7   9 31.9857 2.53416   2
   0   7  -9 65.3874 3.50164   1
   0  -7   9 63.8913 3.02332   2
   0  -7   9 62.8251 3.47954   5
   1  -7   9 3.06836 1.38598   1
   1  -7   9 3.21099 1.21225   2
   1  -7   9 3.65876 1.17732   5
  -2   7  -9 1.24271 0.96401   3
   2  -7   9 0.42876 1.29143   1
   2  -7   9 0.82001 1.16341   5
  -3   7  -9 6.88649 1.47467   3
   3  -7   9 11.0958 1.65694   5
   3  -7   9 7.93214 1.80379   1
  -4   7  -9 0.55596 1.25825   3
   4  -7   9 0.06846 1.39416   1
  -5   7  -9 0.20594 1.49336   3
   5  -7   9 1.61877 1.71480   1
  -6   7  -9 1.08147 1.68842   3
   6  -7   9 -1.4095 1.72292   1
  -7   7  -9 0.60952 1.80695   3
   7  -7   9 -0.4932 2.03383   1
   5   6  -9 1.06293 1.68521   1
  -5  -6   9 -1.9652 1.15330   2
  -5  -6   9 -1.7948 1.55319   5
   4   6  -9 2.85137 1.72722   1
  -4  -6   9 3.50235 1.70097   5
  -4  -6   9 3.05849 1.34899   2
   3   6  -9 3.53836 1.61306   1
  -3  -6   9 6.49768 1.68905   2
  -3  -6   9 4.52603 1.70090   5
   2   6  -9 0.63796 1.30099   1
  -2  -6   9 -0.6538 1.08776   2
  -2  -6   9 0.00902 0.94071   5
   1   6  -9 22.7971 2.21531   1
  -1  -6   9 23.4466 2.21567   5
  -1  -6   9 23.6667 2.15562   2
   0   6  -9 68.4650 3.16738   1
   0  -6   9 68.6814 3.33730   5
   0  -6   9 69.1411 2.94661   2
  -1   6  -9 48.0591 2.34731   3
   1  -6   9 51.1159 2.33467   2
   1  -6   9 49.1349 2.66344   1
   1  -6   9 51.8777 2.81989   5
  -2   6  -9 6.46672 1.25674   3
   2  -6   9 7.88450 1.50689   5
   2  -6   9 3.92519 1.39697   1
  -3   6  -9 136.183 4.41931   3
   3  -6   9 126.084 4.66697   1
   3  -6   9 123.914 4.19638   5
  -4   6  -9 16.0847 2.00423   3
   4  -6   9 15.4247 2.13879   1
  -5   6  -9 45.4949 3.15190   3
   5  -6   9 46.1619 2.98802   1
  -6   6  -9 15.1866 2.15266   4
  -6   6  -9 13.3460 2.24185   3
   6  -6   9 11.3912 2.34104   1
  -7   6  -9 0.88395 1.71769   4
  -7   6  -9 0.27372 1.72892   3
   7  -6   9 0.41466 1.93409   1
   6   5  -9 -0.7868 1.89027   1
  -6  -5   9 -0.6278 1.27905   2
   5   5  -9 8.22835 1.82219   1
  -5  -5   9 9.82099 1.81272   2
  -5  -5   9 7.78368 1.85881   5
   4   5  -9 0.94572 1.45331   1
  -4  -5   9 2.13510 1.45087   5
  -4  -5   9 3.67697 1.49994   2
   3   5  -9 15.2868 2.05044   1
  -3  -5   9 14.8297 1.88159   5
  -3  -5   9 17.1865 1.89457   2
   2   5  -9 1.31739 0.99915   1
  -2  -5   9 0.86550 1.11864   5
  -2  -5   9 0.94917 1.09729   2
   1   5  -9 319.668 8.20178   1
  -1  -5   9 331.289 7.94484   2
  -1  -5   9 327.578 8.41124   5
   0  -5   9 6.59999 1.15624   2
   0  -5   9 5.67857 1.24268   5
  -1   5  -9 228.040 5.45429   3
   1  -5   9 214.805 5.39730   2
   1  -5   9 224.713 6.03601   5
   1  -5   9 217.208 6.12089   1
  -2   5  -9 16.3037 1.60721   3
   2  -5   9 15.8605 1.80930   1
   2  -5   9 19.2439 1.74223   5
  -3   5  -9 245.776 6.49210   3
   3  -5   9 245.786 6.83777   1
   3  -5   9 252.235 6.33903   5
  -4   5  -9 132.793 4.46061   3
   4  -5   9 134.849 4.66934   1
  -5   5  -9 48.8737 3.08553   3
  -5   5  -9 54.2353 2.95433   4
   5  -5   9 49.1319 3.18063   1
  -6   5  -9 51.3494 3.23823   4
  -6   5  -9 40.1573 2.86449   3
   6  -5   9 55.4571 3.59358   1
  -7   5  -9 -0.8061 1.59688   4
  -7   5  -9 -1.3582 1.59723   3
   7  -5   9 -2.4905 1.48602   1
   6   4  -9 4.38989 2.01858   1
  -6  -4   9 10.2529 2.11222   2
  -6  -4   9 8.49098 1.98743   5
   5   4  -9 39.7750 3.06131   1
  -5  -4   9 39.7405 2.98041   5
  -5  -4   9 38.5432 2.94051   2
   4   4  -9 20.4944 2.16902   1
  -4  -4   9 19.3264 1.99273   2
  -4  -4   9 22.2620 2.23956   5
   3   4  -9 311.963 8.20998   1
  -3  -4   9 314.784 7.95582   2
  -3  -4   9 326.104 8.44082   5
   2   4  -9 21.6574 1.93687   1
  -2  -4   9 26.1729 2.07726   5
  -2  -4   9 23.8609 1.70488   2
   1   4  -9 25.8303 1.89675   1
  -1  -4   9 22.0930 1.65615   2
  -1  -4   9 22.9752 1.86903   5
   0   4  -9 121.251 3.20081   3
   0  -4   9 118.797 3.89727   5
   0  -4   9 125.464 3.94622   1
   0  -4   9 123.599 3.54025   2
   0  -4   9 116.219 3.07332   4
  -1   4  -9 93.4627 2.92922   3
   1  -4   9 97.1910 2.90555   2
   1  -4   9 97.8488 3.39702   1
   1  -4   9 97.2700 3.26862   5
  -2   4  -9 22.5379 1.61110   3
   2  -4   9 19.9669 1.77186   1
   2  -4   9 20.4264 1.55821   5
   2  -4   9 21.4152 1.26278   2
  -3   4  -9 13.0360 1.51282   3
   3  -4   9 11.8685 1.42854   1
  -4   4  -9 113.685 4.02779   3
   4  -4   9 128.724 4.41852   1
  -5   4  -9 -0.7548 0.83221   3
   5  -4   9 -0.8372 1.16383   1
  -6   4  -9 11.5309 2.05397   3
  -6   4  -9 10.8880 2.03507   4
   6  -4   9 9.57206 1.96001   1
  -7   4  -9 -1.4514 1.12990   3
  -7   4  -9 0.56681 1.79264   4
   7  -4   9 2.40515 1.70964   1
   7   3  -9 0.58719 1.81418   1
  -7  -3   9 1.55539 1.64687   2
   6   3  -9 5.00370 1.53279   1
  -6  -3   9 5.53313 1.65814   5
  -6  -3   9 5.61164 1.69838   2
   5   3  -9 9.14891 1.68592   1
  -5  -3   9 9.18807 1.77973   5
  -5  -3   9 7.47890 1.53994   2
   4   3  -9 14.6182 1.94103   1
  -4  -3   9 19.4338 2.08261   5
  -4  -3   9 20.4687 1.99836   2
   3   3  -9 15.0458 1.60876   1
  -3  -3   9 17.0661 1.82777   5
  -3  -3   9 14.7803 1.34156   4
  -3  -3   9 12.9798 1.54596   2
   2   3  -9 9.59476 1.33487   1
  -2  -3   9 8.57127 1.31558   5
  -2  -3   9 8.65778 1.00059   4
  -2  -3   9 6.72586 1.13629   2
   1   3  -9 190.122 4.98728   1
  -1  -3   9 179.221 5.09705   5
  -1  -3   9 189.129 4.44174   4
  -1  -3   9 176.785 4.76766   2
   0  -3   9 55.3763 1.81576   3
   0  -3   9 55.8745 2.10941   2
   0  -3   9 54.4659 1.89313   4
   0  -3   9 47.3671 2.17499   1
   0  -3   9 51.6149 2.24953   5
   1  -3   9 23.3558 1.45633   5
   1  -3   9 23.2654 1.24668   3
   1  -3   9 21.3904 1.38654   1
   1  -3   9 23.6265 1.31386   2
   2  -3   9 313.818 7.40838   1
   2  -3   9 308.141 7.12187   5
   2  -3   9 310.868 7.13536   3
   2  -3   9 318.290 6.75189   2
   3  -3   9 7.04530 1.21170   1
   3  -3   9 10.2128 1.35896   3
  -4   3  -9 200.985 5.77363   3
   4  -3   9 200.998 5.66290   1
  -5   3  -9 3.10658 1.07868   3
   5  -3   9 2.23352 1.20967   1
  -6   3  -9 4.01739 1.31545   3
   6  -3   9 4.27120 1.56559   1
  -7   3  -9 4.05551 1.94053   4
  -7   3  -9 4.54261 1.84738   3
   7  -3   9 2.10915 1.67518   1
   7   2  -9 12.2290 2.32505   1
  -7  -2   9 14.1635 2.11716   2
   6   2  -9 15.6594 2.29343   1
  -6  -2   9 15.6454 2.03866   2
  -6  -2   9 17.3732 2.03017   4
  -6  -2   9 16.7047 2.08475   5
   5   2  -9 2.24373 1.30669   1
  -5  -2   9 1.45605 0.92953   2
  -5  -2   9 1.27422 1.24369   5
  -5  -2   9 2.85961 1.07766   4
   4   2  -9 9.71097 1.47226   1
  -4  -2   9 6.69478 1.17862   4
  -4  -2   9 6.42275 1.36978   5
  -4  -2   9 5.37063 1.21112   2
   3   2  -9 100.020 3.46374   1
  -3  -2   9 108.122 3.57663   2
  -3  -2   9 113.681 3.36871   4
  -3  -2   9 106.276 3.69365   5
   2   2  -9 185.667 4.91978   1
  -2  -2   9 189.393 4.71530   4
  -2  -2   9 183.574 5.16582   5
  -2  -2   9 187.967 4.94811   2
   1   2  -9 288.858 6.50646   1
  -1  -2   9 277.452 5.79764   3
  -1  -2   9 278.152 6.87037   5
  -1  -2   9 274.755 6.46141   2
  -1  -2   9 277.182 6.33011   4
   0  -2   9 623.221 12.1141   3
   0  -2   9 614.914 12.4769   2
   0  -2   9 606.803 12.5802   4
   0  -2   9 621.801 13.1859   5
   0  -2   9 609.542 12.6297   1
   1  -2   9 190.109 4.59453   2
   1  -2   9 187.866 4.81953   4
   1  -2   9 188.541 4.81002   5
   1  -2   9 196.724 4.75583   1
   1  -2   9 188.413 4.63799   3
  -2   2  -9 5.96438 0.85393   2
   2  -2   9 7.08118 0.98947   1
   2  -2   9 7.21797 0.84276   5
   2  -2   9 5.82273 0.88503   3
  -3   2  -9 14.1697 1.11719   2
   3  -2   9 13.2789 1.44906   3
   3  -2   9 15.3664 1.47547   1
   4  -2   9 1.53062 0.80142   3
   4  -2   9 1.53800 0.91526   1
   5  -2   9 0.91047 1.04553   1
   5  -2   9 -2.5294 0.98226   3
  -6   2  -9 4.37746 1.33099   3
   6  -2   9 7.12983 1.67264   1
  -7   2  -9 0.53716 1.52390   3
  -7   2  -9 2.83660 1.75975   4
   7  -2   9 0.56427 1.55098   1
   8   1  -9 -0.5201 1.86356   1
  -8  -1   9 1.07141 1.47755   4
   7   1  -9 1.04515 1.64319   1
  -7  -1   9 3.71663 1.45513   2
  -7  -1   9 3.33313 1.47213   4
   6   1  -9 37.2364 2.78131   1
  -6  -1   9 32.7950 2.26175   4
  -6  -1   9 38.9470 2.55161   2
   5   1  -9 334.669 8.39269   1
  -5  -1   9 313.813 7.91591   2
  -5  -1   9 324.109 8.18835   4
   4   1  -9 16.5852 1.66984   1
  -4  -1   9 14.7676 1.66381   5
  -4  -1   9 14.2331 1.45102   4
  -4  -1   9 16.5863 1.54586   2
   3   1  -9 45.5190 2.07795   1
  -3  -1   9 43.0425 2.26195   5
  -3  -1   9 42.1693 2.02189   4
  -3  -1   9 46.0954 2.06652   2
   2   1  -9 357.152 7.84226   1
  -2  -1   9 354.944 7.98443   4
  -2  -1   9 361.549 8.45936   5
  -2  -1   9 350.973 7.20096   3
  -2  -1   9 350.897 7.94000   2
   1   1  -9 1.37994 0.53275   1
  -1  -1   9 0.29968 0.58567   2
  -1  -1   9 0.81608 0.67791   5
  -1  -1   9 0.98829 0.47751   3
  -1  -1   9 1.26446 0.52890   4
   0  -1   9 226.645 5.43333   2
   0  -1   9 231.972 5.59204   4
   0  -1   9 230.036 5.28342   3
   0  -1   9 236.884 5.24288   1
  -1   1  -9 573.697 11.5862   2
   1  -1   9 567.548 11.5858   3
   1  -1   9 560.278 11.9849   4
   1  -1   9 567.079 11.4898   1
  -2   1  -9 125.703 3.46585   2
   2  -1   9 128.284 3.74607   3
   2  -1   9 122.665 3.44667   1
  -3   1  -9 9.86731 1.06176   2
   3  -1   9 10.9550 1.22597   1
   3  -1   9 8.34627 1.30841   3
   4  -1   9 -0.0767 0.91522   1
   4  -1   9 1.09711 0.80664   3
   5  -1   9 5.46885 1.33721   1
   5  -1   9 5.83381 1.24462   3
   6  -1   9 0.18922 1.40512   1
   6  -1   9 1.01739 1.15184   3
  -7   1  -9 1.02828 1.58414   3
  -7   1  -9 -0.2923 1.70315   4
   8   0  -9 6.44834 2.15822   1
  -8   0   9 12.2904 2.27554   4
   7   0  -9 0.33810 1.46296   1
  -7   0   9 -1.2999 1.21772   4
  -7   0   9 0.37344 1.10992   2
   6   0  -9 6.49880 1.64904   1
  -6   0   9 9.89397 1.55775   2
  -6   0   9 11.3753 1.81435   4
   5   0  -9 3.90540 1.25233   1
  -5   0   9 2.76530 1.03593   2
  -5   0   9 1.49705 1.12311   4
   4   0  -9 18.0412 1.62675   1
  -4   0   9 19.4949 1.67422   2
  -4   0   9 20.0741 1.53101   4
   3   0  -9 299.468 6.86733   1
  -3   0   9 296.144 6.44159   3
  -3   0   9 307.695 7.26791   4
  -3   0   9 300.737 7.10586   2
   2   0  -9 0.23352 0.50284   1
  -2   0   9 0.27512 0.45962   3
  -2   0   9 0.07634 0.60861   4
  -2   0   9 0.14421 0.59578   2
   1   0  -9 69.3082 1.98053   1
  -1   0   9 67.7687 2.46307   2
  -1   0   9 71.3005 2.30133   3
  -1   0   9 68.7774 2.50952   4
   0   0  -9 257.560 5.96942   2
   0   0   9 246.709 6.08713   4
   0   0   9 256.256 5.89166   3
  -1   0  -9 -0.1209 0.56114   2
   1   0   9 0.44788 0.55518   4
   1   0   9 -0.6113 0.59915   3
   1   0   9 0.55176 0.44518   1
  -2   0  -9 31.1944 1.70392   2
   2   0   9 32.5559 1.46965   1
   2   0   9 32.3635 1.88418   3
  -3   0  -9 33.6049 1.83822   2
   3   0   9 37.3573 2.14816   3
   3   0   9 35.0031 1.77306   1
  -4   0  -9 8.50150 1.23418   2
   4   0   9 9.05966 1.46863   3
   4   0   9 8.42453 1.31510   1
   5   0   9 7.88620 1.58923   3
   6   0   9 4.71244 1.62648   3
  -7   0  -9 0.88251 1.40528   4
   8  -1  -9 1.72614 1.79344   1
  -8   1   9 0.48902 1.55059   4
   7  -1  -9 7.97204 1.86143   1
  -7   1   9 6.21211 1.74539   4
   6  -1  -9 0.91227 1.22095   1
  -6   1   9 0.17286 1.16168   4
  -6   1   9 1.35096 1.01045   2
   5  -1  -9 0.84238 0.97278   1
  -5   1   9 0.68337 0.81756   4
  -5   1   9 0.67019 0.86981   2
   4  -1  -9 7.65689 1.12828   1
  -4   1   9 7.84245 1.00407   3
  -4   1   9 9.03021 1.25077   2
  -4   1   9 7.11693 1.29366   4
   3  -1  -9 5.53762 0.87110   1
  -3   1   9 5.57369 0.92113   3
  -3   1   9 6.62886 1.04766   4
  -3   1   9 4.64299 0.96421   2
   2  -1  -9 124.575 2.98416   1
  -2   1   9 125.096 3.46496   3
  -2   1   9 115.777 3.58135   2
  -2   1   9 121.117 3.76064   4
   1  -1  -9 30.8877 1.59551   2
  -1   1   9 29.8696 1.61742   4
  -1   1   9 26.7266 1.52749   3
   0  -1  -9 2.91662 0.74325   2
   0   1   9 3.57706 0.93486   4
   0   1   9 2.92002 0.70822   3
  -1  -1  -9 23.6196 1.61719   2
   1   1   9 23.5077 1.55153   4
   1   1   9 23.6561 1.65278   3
  -2  -1  -9 14.1533 1.44140   2
   2   1   9 13.7436 1.41456   3
  -3  -1  -9 8.74636 1.27987   2
   3   1   9 8.58682 1.42829   3
  -4  -1  -9 127.521 4.15028   2
   4   1   9 130.362 4.46955   3
   5   1   9 40.5870 2.81021   3
   8  -2  -9 2.37071 1.72099   1
  -8   2   9 5.14938 1.87843   4
   7  -2  -9 158.829 5.51977   1
  -7   2   9 154.146 5.72354   4
   6  -2  -9 67.6431 3.20799   1
  -6   2   9 69.8522 3.07188   2
  -6   2   9 65.6816 3.27988   4
   5  -2  -9 76.8331 2.99725   1
  -5   2   9 80.6077 3.10393   2
  -5   2   9 77.7797 3.43713   4
  -5   2   9 79.5910 2.95406   3
  -4   2   9 152.144 4.37427   2
  -4   2   9 145.257 4.19582   3
  -4   2   9 141.162 4.53061   4
   3  -2  -9 -0.2870 0.72417   2
  -3   2   9 -0.5718 0.52464   4
  -3   2   9 -0.4874 0.64270   3
   2  -2  -9 104.097 3.38396   2
  -2   2   9 104.213 3.30260   3
  -2   2   9 113.135 3.62594   4
   1  -2  -9 12.6842 1.38306   2
  -1   2   9 11.0741 1.34571   4
  -1   2   9 8.67011 1.10644   3
   0  -2  -9 80.3299 2.93541   2
   0   2   9 82.3288 3.02181   3
   0   2   9 82.4260 3.04840   4
  -1  -2  -9 1.05456 0.86324   2
   1   2   9 2.31891 0.92432   4
   1   2   9 1.39845 0.91610   3
  -2  -2  -9 18.1382 1.72948   2
   2   2   9 17.9675 1.78635   3
  -3  -2  -9 16.3542 1.79884   2
   3   2   9 19.3542 1.88517   3
  -4  -2  -9 11.5257 1.66024   2
   4   2   9 13.6513 1.91159   3
   5   2   9 40.0041 2.66019   3
   6   2   9 0.54220 1.52924   3
   8  -3  -9 1.51725 1.92721   1
  -8   3   9 -0.3475 1.47416   4
   7  -3  -9 17.0376 2.13293   1
  -7   3   9 18.2352 2.45929   4
  -6   3   9 43.7019 2.60888   3
  -6   3   9 45.3482 2.75732   4
   5  -3  -9 3.75383 1.06152   2
  -5   3   9 4.77577 1.32372   4
  -5   3   9 3.41107 1.07236   3
   4  -3  -9 15.4701 1.60249   2
  -4   3   9 15.0444 1.80040   4
  -4   3   9 19.4774 1.52227   3
   3  -3  -9 0.80716 0.89441   2
  -3   3   9 -0.5064 0.78956   3
  -3   3   9 -0.4835 0.80664   4
   2  -3  -9 0.90106 0.89414   2
  -2   3   9 -0.0375 0.58782   3
  -2   3   9 -0.1235 0.79724   4
   1  -3  -9 105.624 3.67578   2
  -1   3   9 104.984 3.61795   4
  -1   3   9 109.395 3.67248   3
   0  -3  -9 14.4206 1.59764   2
   0   3   9 17.5839 1.75284   3
   0   3   9 19.3588 1.80549   4
  -1  -3  -9 42.9791 2.44337   2
   1   3   9 42.1254 2.41706   3
   1   3   9 41.6176 2.23256   4
  -2  -3  -9 44.8104 2.60713   2
   2   3   9 48.4693 2.68968   3
  -3  -3  -9 63.7995 3.04347   2
   3   3   9 63.9789 3.23355   3
  -4  -3  -9 -0.4742 1.17257   2
   4   3   9 0.90460 1.40114   3
  -5  -3  -9 0.64942 1.42673   2
   5   3   9 -1.8906 1.35973   3
  -8   4   9 2.08484 1.41250   4
  -7   4   9 -1.7710 1.29477   4
  -7   4   9 1.07489 1.26203   3
  -6   4   9 0.95444 1.16022   3
  -6   4   9 1.36054 1.29118   4
   5  -4  -9 2.69818 1.21503   2
  -5   4   9 2.85301 1.16556   3
  -5   4   9 3.82811 1.17629   4
   4  -4  -9 358.321 8.40673   2
  -4   4   9 336.451 8.71712   4
  -4   4   9 345.719 8.56355   3
   3  -4  -9 55.9813 2.68438   2
  -3   4   9 51.2928 2.54561   3
  -3   4   9 54.0109 2.59873   4
   2  -4  -9 66.6633 2.80923   2
  -2   4   9 59.0600 2.65800   4
  -2   4   9 60.1452 2.73458   3
   1  -4  -9 13.8952 1.67228   2
  -1   4   9 13.4142 1.55451   4
  -1   4   9 12.2064 1.60047   3
   0  -4  -9 4.02339 1.21222   2
   0   4   9 4.27262 1.13023   4
   0   4   9 5.71230 1.19682   3
  -1  -4  -9 19.7411 2.07072   2
   1   4   9 23.7175 2.24674   3
   1   4   9 25.2762 2.02980   4
  -2  -4  -9 16.9095 2.05681   2
   2   4   9 19.6042 2.17201   3
  -3  -4  -9 33.0696 2.82891   2
   3   4   9 34.4390 2.85356   3
  -4  -4  -9 -1.4283 1.30546   2
   4   4   9 -0.8870 1.34445   3
  -8   5   9 0.02158 1.39985   4
  -7   5   9 1.09331 1.35877   3
  -7   5   9 -1.2404 1.49261   4
  -6   5   9 1.39266 1.39131   3
  -6   5   9 0.76491 1.37999   4
  -5   5   9 5.64456 1.59441   3
  -5   5   9 3.97675 1.50579   4
   4  -5  -9 79.8483 3.39094   2
  -4   5   9 95.4236 3.91942   3
  -4   5   9 84.0150 3.70960   4
   3  -5  -9 57.6165 2.88485   2
  -3   5   9 57.9888 2.77966   4
  -3   5   9 54.2996 2.98306   3
   2  -5  -9 0.65317 0.79230   2
  -2   5   9 -0.5113 0.82474   4
  -2   5   9 0.00209 0.80298   3
   1  -5  -9 40.9594 2.58104   2
  -1   5   9 36.5142 2.53730   3
  -1   5   9 38.9783 2.36362   4
   0  -5  -9 0.82210 1.16935   2
   0   5   9 1.47697 1.21590   3
   0   5   9 2.00031 1.06337   4
  -1  -5  -9 1.97214 1.04510   2
   1   5   9 2.45192 1.16865   4
   1   5   9 2.82643 1.46110   3
  -2  -5  -9 0.12410 1.39680   2
   2   5   9 1.18022 1.10322   3
  -3  -5  -9 1.92001 1.32561   2
   3   5   9 1.51107 1.51146   3
  -7   6   9 3.02408 1.50785   4
  -7   6   9 0.61494 1.60419   3
  -6   6   9 4.55006 1.80872   4
  -6   6   9 3.97358 1.73527   3
  -5   6   9 0.25181 1.35280   4
  -5   6   9 3.18751 1.57364   3
   4  -6  -9 -0.2593 1.07568   2
  -4   6   9 -0.6650 1.27523   3
  -4   6   9 0.44458 0.87033   4
   3  -6  -9 16.1517 2.00828   2
  -3   6   9 14.4829 2.07743   3
  -3   6   9 14.9028 1.88867   4
   2  -6  -9 0.43635 1.21658   2
  -2   6   9 0.82493 1.18502   4
  -2   6   9 1.89030 1.06032   3
   1  -6  -9 83.5505 3.94565   2
  -1   6   9 83.4295 3.94301   3
   0  -6  -9 3.59573 1.32835   2
   0   6   9 4.25690 1.32504   3
  -1  -6  -9 8.08756 1.70588   2
   1   6   9 4.97479 1.76316   3
  -2  -6  -9 2.32142 1.74744   2
   2   6   9 1.05482 1.58495   3
  -6   7   9 2.36309 1.75094   4
  -6   7   9 0.66371 1.74555   3
  -5   7   9 2.61401 1.50691   4
  -5   7   9 -1.2425 1.45706   3
  -4   7   9 2.85803 1.68628   3
   3  -7  -9 0.71777 1.34153   2
  -3   7   9 -1.4208 1.30835   3
   2  -7  -9 1.44990 1.49870   2
  -2   7   9 1.90904 1.16238   3
   1  -7  -9 4.84954 1.82789   2
  -1   7   9 10.9284 2.14763   3
   0  -7  -9 7.47173 2.10673   2
   0   7   9 7.25083 2.02785   3
  -1  -7  -9 34.3012 3.25978   2
   1   7   9 28.1743 2.87923   3
  -4   8   9 0.68205 1.33806   3
   3  -8  -9 35.1930 3.12048   2
  -3   8   9 36.8047 3.31416   3
   2  -8  -9 -1.0016 1.54787   2
  -2   8   9 1.86786 1.73575   3
   1   9 -10 9.28588 2.16687   1
  -1  -9  10 8.04791 2.34966   5
  -1  -9  10 8.18392 2.21842   2
   0   9 -10 -0.0922 1.65528   1
   0  -9  10 0.76243 1.78034   5
  -1   9 -10 6.44848 2.05469   1
   1  -9  10 6.72763 1.78532   5
   2  -9  10 2.89257 1.81457   5
   2  -9  10 0.51017 1.70587   1
   3  -9  10 -1.7755 1.71729   1
   3  -9  10 -1.5082 1.45491   5
  -4   9 -10 2.23426 1.63676   3
   4  -9  10 2.94194 2.03048   1
  -5   9 -10 12.8131 2.38174   3
   5  -9  10 15.3127 2.59840   1
   3   8 -10 1.52382 1.94845   1
  -3  -8  10 0.71555 1.44383   5
  -3  -8  10 0.28669 1.75643   2
   2   8 -10 1.54411 1.72942   1
  -2  -8  10 3.08604 1.87119   5
  -2  -8  10 0.93400 1.26742   2
   1   8 -10 12.1585 2.23846   1
  -1  -8  10 8.94651 1.89433   2
  -1  -8  10 7.45765 1.79699   5
   0   8 -10 1.75635 1.54699   1
   0  -8  10 -0.2634 1.50512   5
   0  -8  10 -0.8767 1.15156   2
  -1   8 -10 4.77138 1.44351   1
   1  -8  10 2.68303 1.58944   5
   2  -8  10 -1.6014 1.33635   1
   2  -8  10 -0.2984 1.27070   5
  -3   8 -10 0.86010 1.22040   3
   3  -8  10 -0.0718 1.31473   5
   3  -8  10 -0.6097 1.14783   1
  -4   8 -10 4.73529 1.61431   3
   4  -8  10 0.27347 1.62098   1
  -5   8 -10 18.0419 2.47246   3
   5  -8  10 15.5500 2.36702   1
  -6   8 -10 4.93260 1.66861   3
   6  -8  10 4.31294 2.30983   1
   4   7 -10 1.82490 1.84974   1
  -4  -7  10 3.15880 1.96354   2
  -4  -7  10 -0.4294 1.31210   5
   3   7 -10 0.75955 1.64327   1
  -3  -7  10 -0.1879 1.71203   5
  -3  -7  10 2.85092 1.75303   2
   2   7 -10 8.54837 1.73655   1
  -2  -7  10 3.93203 1.62010   2
  -2  -7  10 7.13202 1.93418   5
   1   7 -10 31.5258 2.51259   1
  -1  -7  10 34.0807 3.04004   5
  -1  -7  10 35.0677 2.80240   2
   0   7 -10 15.4499 2.21540   1
   0  -7  10 12.5378 1.72040   2
   0  -7  10 12.1487 1.99340   5
   1  -7  10 -1.0676 1.16150   5
   1  -7  10 0.35551 1.26837   1
  -2   7 -10 19.3492 1.91853   3
   2  -7  10 25.8437 2.39492   5
   2  -7  10 21.0666 2.39031   1
  -3   7 -10 3.02333 1.32809   3
   3  -7  10 1.11150 1.27805   5
   3  -7  10 0.00761 1.33353   1
  -4   7 -10 19.8302 2.28235   3
   4  -7  10 17.5642 2.44738   1
  -5   7 -10 31.4586 2.97779   3
   5  -7  10 32.3482 3.05196   1
  -6   7 -10 -0.1841 1.66224   3
   6  -7  10 1.05145 1.98628   1
  -7   7 -10 0.37054 1.81659   3
   7  -7  10 -0.3976 2.11350   1
   5   6 -10 -1.6705 1.66493   1
  -5  -6  10 1.66679 1.77387   5
  -5  -6  10 -1.2127 1.70725   2
   4   6 -10 1.34634 1.27527   1
  -4  -6  10 -0.0115 1.21846   2
  -4  -6  10 0.17118 1.53147   5
   3   6 -10 4.61987 1.73457   1
  -3  -6  10 1.95131 1.51521   2
  -3  -6  10 7.45062 1.86397   5
   2   6 -10 0.90300 1.30407   1
  -2  -6  10 -0.4567 1.31337   5
  -2  -6  10 2.06708 1.10765   2
   1   6 -10 24.4641 2.40684   1
  -1  -6  10 25.6447 2.49227   5
  -1  -6  10 27.9821 2.32898   2
   0   6 -10 3.42777 1.34596   1
   0  -6  10 3.31199 1.12857   2
   0  -6  10 2.96567 1.05279   5
   1  -6  10 387.353 9.77452   1
   1  -6  10 394.528 8.90252   2
   1  -6  10 386.807 9.76855   5
  -2   6 -10 20.6529 1.84267   3
   2  -6  10 19.4984 2.06728   1
   2  -6  10 16.9605 1.95362   5
  -3   6 -10 209.004 5.92553   3
   3  -6  10 202.202 6.32298   1
  -4   6 -10 70.4596 3.54365   3
   4  -6  10 78.1968 3.87353   1
  -5   6 -10 2.32101 1.64354   3
   5  -6  10 3.17556 1.39255   1
  -6   6 -10 2.23072 1.79342   3
  -6   6 -10 2.94350 1.59228   4
   6  -6  10 2.72829 1.98747   1
  -7   6 -10 -0.7875 1.78106   3
  -7   6 -10 2.25074 1.89755   4
   7  -6  10 1.00349 2.03955   1
   6   5 -10 -1.3891 1.91930   1
  -6  -5  10 0.96899 1.86432   2
  -6  -5  10 1.35591 1.87903   5
   5   5 -10 -1.2253 1.46533   1
  -5  -5  10 -1.6568 1.38378   5
  -5  -5  10 2.86825 1.69453   2
   4   5 -10 37.8741 2.73369   1
  -4  -5  10 35.1155 2.65146   5
  -4  -5  10 34.3325 2.94627   2
   3   5 -10 46.1828 3.04083   1
  -3  -5  10 43.4437 2.98883   5
  -3  -5  10 44.9094 2.83029   2
   2   5 -10 39.4573 2.76388   1
  -2  -5  10 45.2836 2.63907   2
  -2  -5  10 40.8370 2.52075   5
   1   5 -10 43.7299 2.48277   1
  -1  -5  10 44.5808 2.73182   5
  -1  -5  10 43.5140 2.45249   2
   0  -5  10 27.1474 2.14744   5
   0  -5  10 27.9311 1.87118   2
  -1   5 -10 0.49620 0.81829   3
   1  -5  10 1.99260 0.95137   5
   1  -5  10 0.20480 1.01030   1
   1  -5  10 3.47591 0.96867   2
  -2   5 -10 57.2191 2.57559   3
   2  -5  10 43.9455 2.71786   1
   2  -5  10 49.8526 2.46517   5
  -3   5 -10 5.59031 1.32343   3
   3  -5  10 3.60837 1.40503   1
  -4   5 -10 69.1800 3.34643   3
   4  -5  10 66.2888 3.40681   1
  -5   5 -10 2.72059 1.33782   4
  -5   5 -10 -0.1694 1.07578   3
   5  -5  10 5.01498 1.43642   1
  -6   5 -10 14.1255 2.25981   4
  -6   5 -10 14.6869 2.09858   3
   6  -5  10 16.7205 2.46618   1
  -7   5 -10 2.39381 1.91947   3
  -7   5 -10 3.20960 2.00345   4
   7  -5  10 2.56861 1.94512   1
   6   4 -10 5.43840 2.11012   1
  -6  -4  10 5.50346 1.89787   2
  -6  -4  10 7.58672 2.02976   5
   5   4 -10 1.93072 1.56251   1
  -5  -4  10 3.01954 1.54003   5
  -5  -4  10 2.75068 1.56449   2
   4   4 -10 115.857 4.62016   1
  -4  -4  10 117.009 4.59943   5
  -4  -4  10 111.349 4.35932   2
   3   4 -10 50.1022 2.98256   1
  -3  -4  10 56.9835 3.04439   5
  -3  -4  10 55.1964 2.86673   2
   2   4 -10 74.9988 3.27439   1
  -2  -4  10 77.7122 3.16353   2
  -2  -4  10 69.6501 3.23682   5
   1   4 -10 229.693 6.18069   1
  -1  -4  10 224.694 6.31579   5
  -1  -4  10 227.130 5.90662   2
   0   4 -10 76.2033 2.45835   3
   0  -4  10 76.9613 2.98300   5
   0  -4  10 78.9702 3.08581   1
   0  -4  10 78.9861 2.81712   2
   0  -4  10 76.1461 2.42414   4
  -1   4 -10 15.3443 1.32474   3
   1  -4  10 14.8911 1.29500   2
   1  -4  10 14.0194 1.47336   5
   1  -4  10 14.2812 1.56039   1
  -2   4 -10 15.0405 1.48762   3
   2  -4  10 14.1796 1.18588   2
   2  -4  10 14.0221 1.60536   1
   2  -4  10 16.1373 1.44156   5
  -3   4 -10 10.8939 1.37890   3
   3  -4  10 12.1850 1.63455   1
  -4   4 -10 37.1058 2.30057   3
   4  -4  10 39.1318 2.35674   1
  -5   4 -10 0.41316 1.01544   3
   5  -4  10 4.21175 1.51370   1
  -6   4 -10 11.1698 2.11026   3
  -6   4 -10 13.0920 2.27778   4
   6  -4  10 11.2965 2.06638   1
  -7   4 -10 -0.8420 1.68633   4
  -7   4 -10 -1.4939 1.52639   3
   7  -4  10 0.32436 1.67920   1
   7   3 -10 3.02057 2.00322   1
  -7  -3  10 -0.0102 1.59032   2
   6   3 -10 2.63426 1.75044   1
  -6  -3  10 3.23434 1.55586   5
  -6  -3  10 4.50018 1.70412   2
   5   3 -10 9.81335 1.90781   1
  -5  -3  10 10.8250 1.90961   5
  -5  -3  10 9.71971 1.57738   2
   4   3 -10 -0.2614 0.84099   1
  -4  -3  10 -0.6893 0.73022   2
  -4  -3  10 -1.9077 1.02685   5
   3   3 -10 8.34130 1.43350   1
  -3  -3  10 10.1845 1.46502   5
  -3  -3  10 8.65443 1.41606   2
  -3  -3  10 8.86514 1.14302   4
   2   3 -10 51.9502 2.52584   1
  -2  -3  10 54.5679 2.50303   2
  -2  -3  10 53.5515 2.07599   4
  -2  -3  10 54.5720 2.66783   5
   1   3 -10 1.85454 0.85276   1
  -1  -3  10 1.70024 0.88482   5
  -1  -3  10 1.11932 0.81029   2
  -1  -3  10 1.75007 0.51372   3
  -1  -3  10 2.04273 0.64061   4
   0  -3  10 2.70432 0.77546   2
   0  -3  10 3.95368 0.94882   1
   0  -3  10 3.35050 0.72474   4
   0  -3  10 4.04071 0.71033   3
   0  -3  10 4.65020 1.01874   5
   1  -3  10 131.323 3.67737   2
   1  -3  10 132.081 3.93007   5
   1  -3  10 135.508 3.69794   3
   1  -3  10 136.990 3.99794   1
   1  -3  10 140.065 3.81804   4
   2  -3  10 2.14218 0.86667   3
   2  -3  10 2.18597 0.79803   5
   2  -3  10 3.47824 0.95068   1
   2  -3  10 1.77289 0.71921   2
   3  -3  10 11.7826 1.36395   1
   3  -3  10 13.5200 1.57582   3
   4  -3  10 23.9622 2.09557   1
  -5   3 -10 6.95610 1.64080   3
   5  -3  10 5.20392 1.39143   1
  -6   3 -10 -0.7955 1.27246   3
   6  -3  10 -0.2410 0.96396   1
  -7   3 -10 6.38548 2.00962   3
  -7   3 -10 11.7921 2.49324   4
   7  -3  10 8.76435 2.01047   1
   7   2 -10 4.15789 1.89948   1
  -7  -2  10 0.45159 1.42741   2
   6   2 -10 0.89807 1.55440   1
  -6  -2  10 -0.9760 1.09024   4
  -6  -2  10 -1.8622 1.12120   5
  -6  -2  10 -1.5914 1.15815   2
   5   2 -10 87.7401 3.91063   1
  -5  -2  10 88.9518 3.57239   2
  -5  -2  10 92.7842 3.56958   4
  -5  -2  10 92.7014 3.96285   5
   4   2 -10 13.5793 1.57165   1
  -4  -2  10 13.6893 1.51798   4
  -4  -2  10 13.4882 1.62748   5
  -4  -2  10 12.3250 1.60611   2
   3   2 -10 119.375 3.91368   1
  -3  -2  10 121.690 3.70164   4
  -3  -2  10 118.494 3.83993   2
  -3  -2  10 117.435 4.13653   5
   2   2 -10 -0.0606 0.68207   1
  -2  -2  10 -0.1290 0.60845   4
  -2  -2  10 0.33940 0.73060   2
  -2  -2  10 1.02106 0.67681   5
   1   2 -10 0.61825 0.62746   1
  -1  -2  10 0.50083 0.60781   4
  -1  -2  10 0.52576 0.74831   5
  -1  -2  10 1.76966 0.55863   3
  -1  -2  10 1.41792 0.71802   2
   0  -2  10 250.084 5.85065   1
   0  -2  10 243.740 5.86367   2
   0  -2  10 251.248 6.19865   5
   0  -2  10 235.108 5.83300   4
   0  -2  10 246.686 5.55913   3
   1  -2  10 49.9792 2.01762   1
   1  -2  10 49.3780 1.96605   3
   1  -2  10 50.4689 2.18621   4
   1  -2  10 50.1967 2.01639   2
   1  -2  10 47.1421 2.02474   5
  -2   2 -10 42.7617 1.87193   2
   2  -2  10 43.2587 2.11785   3
   2  -2  10 42.3423 1.96738   1
  -3   2 -10 30.2655 1.72481   2
   3  -2  10 22.5371 1.68343   1
   4  -2  10 0.99320 0.91330   1
   4  -2  10 -1.4854 0.56434   3
   5  -2  10 -1.2176 1.11130   3
   5  -2  10 2.46640 1.17822   1
  -6   2 -10 8.74203 1.86653   3
   6  -2  10 7.37151 1.70367   1
  -7   2 -10 18.6206 2.35681   3
  -7   2 -10 23.5439 3.07396   4
   7  -2  10 16.4918 2.42231   1
   8   1 -10 5.02357 2.25786   1
  -8  -1  10 7.25445 1.74808   4
   7   1 -10 0.16902 1.22190   1
  -7  -1  10 -1.1376 1.23642   4
  -7  -1  10 -0.3989 1.20713   2
   6   1 -10 2.97505 1.45500   1
  -6  -1  10 0.04067 1.20847   4
  -6  -1  10 1.70458 1.18940   2
   5   1 -10 17.6616 2.00402   1
  -5  -1  10 14.9439 1.76638   4
  -5  -1  10 21.1718 2.01552   2
   4   1 -10 2.84661 1.02821   1
  -4  -1  10 1.23216 0.92459   2
  -4  -1  10 0.88980 0.71604   4
  -4  -1  10 0.20266 0.95060   5
   3   1 -10 26.0236 1.66217   1
  -3  -1  10 23.3871 1.72377   2
  -3  -1  10 22.3396 1.64198   4
  -3  -1  10 21.2473 1.79157   5
   2   1 -10 8.44839 1.01544   1
  -2  -1  10 6.11156 1.14169   5
  -2  -1  10 8.20086 1.04226   4
  -2  -1  10 7.84954 0.84021   3
  -2  -1  10 8.02401 1.15600   2
   1   1 -10 95.6399 2.78669   1
  -1  -1  10 92.8156 3.07767   2
  -1  -1  10 94.4844 3.07827   4
  -1  -1  10 97.8711 2.74691   3
   0  -1  10 102.447 3.17273   2
   0  -1  10 100.678 2.83522   1
   0  -1  10 103.443 2.97220   3
   0  -1  10 98.8182 3.15971   4
  -1   1 -10 130.715 3.70165   2
   1  -1  10 133.807 3.97791   4
   1  -1  10 128.817 3.74458   3
   1  -1  10 129.825 3.43981   1
  -2   1 -10 24.2781 1.50843   2
   2  -1  10 24.3171 1.41951   1
   2  -1  10 23.4321 1.54650   3
  -3   1 -10 1.05470 0.67180   2
   3  -1  10 -0.1435 0.77271   1
   3  -1  10 -0.0695 0.86733   3
   4  -1  10 20.0984 1.99918   3
   4  -1  10 21.6767 1.86510   1
   5  -1  10 0.31570 1.24020   1
   5  -1  10 1.69445 1.36267   3
   6  -1  10 -0.9335 1.34850   3
  -7   1 -10 -1.9905 1.53148   3
   8   0 -10 0.86736 1.84639   1
  -8   0  10 2.26111 1.76195   4
   7   0 -10 3.94976 1.66964   1
  -7   0  10 2.22598 1.45465   4
  -7   0  10 4.84354 1.51699   2
   6   0 -10 26.4919 2.56468   1
  -6   0  10 29.9112 2.30644   2
  -6   0  10 25.9667 2.42077   4
   5   0 -10 -0.2432 0.91262   1
  -5   0  10 -1.6506 0.89488   4
  -5   0  10 -0.0847 0.69380   2
   4   0 -10 45.1177 2.27262   1
  -4   0  10 42.6065 2.31671   2
  -4   0  10 50.3357 2.50774   4
   3   0 -10 41.1751 1.84476   1
  -3   0  10 39.5715 1.69683   3
  -3   0  10 35.5574 2.07260   4
  -3   0  10 40.4449 2.10917   2
   2   0 -10 103.966 2.88069   1
  -2   0  10 98.1049 3.34547   4
  -2   0  10 104.709 3.31549   2
  -2   0  10 103.136 2.97819   3
   1   0 -10 50.1454 1.64944   1
  -1   0  10 47.6385 1.96942   3
  -1   0  10 49.5411 2.13211   4
  -1   0  10 50.7909 2.19259   2
   0   0 -10 175.391 4.65597   2
   0   0  10 178.781 4.86785   4
   0   0  10 176.580 4.61055   3
  -1   0 -10 4.18428 0.92681   2
   1   0  10 2.80259 0.77678   4
   1   0  10 3.70626 0.94779   3
  -2   0 -10 300.210 7.08149   2
   2   0  10 297.847 7.21404   3
  -3   0 -10 71.5719 2.76708   2
   3   0  10 68.5185 3.04398   3
   4   0  10 213.672 6.15113   3
   5   0  10 66.1262 3.44568   3
   6   0  10 26.2328 2.68356   3
   8  -1 -10 -0.4266 1.74800   1
  -8   1  10 0.03124 1.54599   4
   7  -1 -10 -1.1233 1.36821   1
  -7   1  10 0.68367 1.41891   4
   6  -1 -10 4.62420 1.49806   1
  -6   1  10 5.12119 1.30511   2
  -6   1  10 6.84157 1.45953   4
   5  -1 -10 44.8417 2.40935   1
  -5   1  10 40.0804 2.36530   2
  -5   1  10 41.4100 2.58825   4
   4  -1 -10 42.4499 2.17060   1
  -4   1  10 45.7413 2.36674   4
  -4   1  10 45.0115 2.05925   3
  -4   1  10 43.9213 2.31763   2
   3  -1 -10 -0.4145 0.58748   1
  -3   1  10 0.21057 0.74921   2
  -3   1  10 -0.0943 0.76823   4
  -3   1  10 0.37728 0.70576   3
   2  -1 -10 38.8874 1.94177   2
  -2   1  10 40.6980 1.90201   3
  -2   1  10 41.4947 2.14537   4
   1  -1 -10 30.0465 1.81133   2
  -1   1  10 30.2426 1.72438   3
  -1   1  10 31.2358 1.85705   4
   0  -1 -10 23.5740 1.69287   2
   0   1  10 21.2733 1.60192   3
   0   1  10 21.5820 1.51312   4
  -1  -1 -10 70.4722 2.80463   2
   1   1  10 70.5443 2.94112   4
   1   1  10 68.2988 2.70585   3
  -2  -1 -10 129.941 4.07843   2
   2   1  10 128.337 4.18031   3
  -3  -1 -10 37.9014 2.22380   2
   3   1  10 32.2679 2.30136   3
  -4  -1 -10 53.7834 2.70508   2
   4   1  10 50.7058 2.95140   3
   5   1  10 64.4414 3.52519   3
   6   1  10 0.48410 1.60458   3
   8  -2 -10 15.5405 2.41229   1
  -8   2  10 15.3669 2.59283   4
   7  -2 -10 40.8971 3.03564   1
  -7   2  10 50.9815 3.41133   4
   6  -2 -10 2.93876 1.30950   1
  -6   2  10 8.08591 1.76115   4
  -6   2  10 5.55889 1.30153   2
  -5   2  10 141.710 4.53345   2
  -5   2  10 144.580 4.33940   3
  -5   2  10 152.735 4.95854   4
  -4   2  10 219.174 6.28779   4
  -4   2  10 225.972 5.76935   3
   3  -2 -10 42.2588 2.27541   2
  -3   2  10 41.6968 2.36072   4
  -3   2  10 43.2463 2.07121   3
   2  -2 -10 368.650 8.65814   2
  -2   2  10 381.362 8.52494   3
  -2   2  10 366.578 8.83271   4
   1  -2 -10 19.7454 1.49697   2
  -1   2  10 17.6654 1.57583   3
  -1   2  10 21.2733 1.54603   4
   0  -2 -10 3.67661 0.92514   2
   0   2  10 3.66416 0.89783   4
   0   2  10 4.08000 1.08344   3
  -1  -2 -10 21.6134 1.85408   2
   1   2  10 27.7493 1.83280   4
   1   2  10 18.1747 1.83504   3
  -2  -2 -10 -1.0094 0.85237   2
   2   2  10 0.73203 0.83714   3
  -3  -2 -10 0.88520 1.04334   2
   3   2  10 -0.7586 1.09362   3
  -4  -2 -10 -1.1631 1.00492   2
   4   2  10 -0.3941 1.24068   3
   5   2  10 6.04562 1.80294   3
  -8   3  10 0.90402 1.36179   4
  -7   3  10 6.25708 1.90224   4
  -6   3  10 23.0222 2.13271   3
  -6   3  10 24.8706 2.59860   4
   5  -3 -10 1.60017 1.00605   2
  -5   3  10 6.33290 1.32353   4
  -5   3  10 3.28303 1.07987   3
   4  -3 -10 -0.6383 0.88844   2
  -4   3  10 1.54480 1.07937   4
  -4   3  10 2.22424 1.01538   3
   3  -3 -10 2.24564 1.08143   2
  -3   3  10 3.23911 1.02279   3
  -3   3  10 5.32602 1.25006   4
   2  -3 -10 66.8248 2.94353   2
  -2   3  10 63.9522 2.82906   3
  -2   3  10 67.0536 2.92995   4
   1  -3 -10 24.3896 2.03740   2
  -1   3  10 24.8517 1.92920   3
  -1   3  10 26.3025 1.93062   4
   0  -3 -10 123.548 4.23707   2
   0   3  10 126.402 4.17187   3
   0   3  10 126.893 4.24033   4
  -1  -3 -10 6.27996 1.34828   2
   1   3  10 7.71475 1.28516   4
   1   3  10 5.91869 1.33542   3
  -2  -3 -10 1.45488 1.15792   2
   2   3  10 2.91639 1.29433   3
  -3  -3 -10 18.1803 2.07776   2
   3   3  10 20.5629 2.12255   3
  -4  -3 -10 0.09315 1.33023   2
   4   3  10 6.31862 1.71799   3
  -5  -3 -10 6.46922 2.04843   2
   5   3  10 1.90730 1.84045   3
  -8   4  10 4.15232 1.94215   4
  -7   4  10 0.75723 1.20401   4
  -6   4  10 19.1838 2.43875   4
  -6   4  10 19.7846 2.19753   3
   5  -4 -10 2.54173 1.09162   2
  -5   4  10 2.27362 1.08294   4
  -5   4  10 -0.2604 0.98152   3
   4  -4 -10 134.063 4.46393   2
  -4   4  10 130.380 4.63491   4
  -4   4  10 141.935 4.70357   3
   3  -4 -10 60.5214 2.91032   2
  -3   4  10 61.5717 2.84192   3
  -3   4  10 56.6840 2.79349   4
   2  -4 -10 76.1912 3.27373   2
  -2   4  10 70.4497 3.19183   4
  -2   4  10 78.8661 3.23074   3
   1  -4 -10 136.953 4.64982   2
  -1   4  10 135.910 4.57385   4
  -1   4  10 145.636 4.65447   3
   0  -4 -10 15.5011 1.77502   2
   0   4  10 11.4284 1.60911   4
   0   4  10 18.0498 2.01621   3
  -1  -4 -10 120.063 4.44135   2
   1   4  10 124.803 4.48706   4
   1   4  10 133.155 4.69774   3
  -2  -4 -10 40.2890 2.78840   2
   2   4  10 30.1096 2.73344   3
  -3  -4 -10 0.76977 1.39704   2
   3   4  10 0.47723 1.07689   3
  -4  -4 -10 5.17370 1.83874   2
   4   4  10 4.47483 1.90649   3
  -7   5  10 -0.3691 1.56557   4
  -7   5  10 1.25146 1.53249   3
  -6   5  10 8.63194 1.83108   3
  -6   5  10 6.32290 1.93178   4
   5  -5 -10 0.94175 1.23689   2
  -5   5  10 1.75463 1.35483   3
  -5   5  10 1.26843 1.38346   4
   4  -5 -10 40.2271 2.60157   2
  -4   5  10 41.1234 2.84311   3
  -4   5  10 38.5565 2.73292   4
   3  -5 -10 -1.0715 0.99011   2
  -3   5  10 0.33857 1.14525   3
  -3   5  10 -0.2906 1.01240   4
   2  -5 -10 30.0882 2.53075   2
  -2   5  10 26.7883 2.10411   3
  -2   5  10 26.1809 2.33683   4
   1  -5 -10 81.1561 3.71901   2
  -1   5  10 85.1657 3.64011   3
  -1   5  10 85.7460 3.61037   4
   0  -5 -10 1.84983 1.01466   2
   0   5  10 2.37362 1.19448   4
   0   5  10 3.25995 1.17264   3
  -1  -5 -10 44.8015 3.08011   2
   1   5  10 39.3352 2.67898   4
   1   5  10 41.2143 3.01122   3
  -2  -5 -10 7.05184 1.79753   2
   2   5  10 14.9563 2.10773   3
  -3  -5 -10 13.4387 2.29306   2
   3   5  10 8.99781 2.12543   3
  -7   6  10 15.1377 2.47902   3
  -7   6  10 14.6245 2.67051   4
  -6   6  10 2.12069 1.64678   3
  -6   6  10 1.43925 1.66556   4
  -5   6  10 6.50183 1.82991   3
  -5   6  10 5.75476 1.76883   4
   4  -6 -10 10.5141 1.75648   2
  -4   6  10 9.14233 1.92318   3
  -4   6  10 5.47505 1.61450   4
   3  -6 -10 3.29644 1.48717   2
  -3   6  10 2.99634 1.56490   3
  -3   6  10 3.71794 1.43679   4
   2  -6 -10 9.40054 1.85017   2
  -2   6  10 7.86750 1.80303   3
  -2   6  10 7.16055 1.54050   4
   1  -6 -10 14.6823 2.22958   2
  -1   6  10 16.1267 2.29507   3
   0  -6 -10 30.7496 3.00654   2
   0   6  10 27.2765 2.87237   3
  -1  -6 -10 6.13528 1.95013   2
   1   6  10 2.86993 1.80229   3
  -2  -6 -10 26.3204 3.07445   2
   2   6  10 21.9064 2.57091   3
  -6   7  10 14.6283 2.30486   3
  -6   7  10 17.6213 2.65312   4
  -5   7  10 -1.6938 1.35291   4
  -5   7  10 1.40860 1.33688   3
   4  -7 -10 17.6256 2.24401   2
  -4   7  10 18.3248 2.65864   3
   3  -7 -10 14.2100 2.19453   2
  -3   7  10 10.6392 2.25299   3
   2  -7 -10 2.70187 1.65456   2
  -2   7  10 1.42898 1.64854   3
   1  -7 -10 12.6053 2.34125   2
  -1   7  10 11.3046 1.99112   3
   0  -7 -10 3.20722 1.96502   2
   0   7  10 5.48801 1.69411   3
   1   9 -11 0.94009 1.94781   1
  -1  -9  11 1.17390 1.71161   2
  -1  -9  11 2.12673 2.07232   5
   0   9 -11 -0.3903 1.71141   1
   0  -9  11 -0.1918 1.41379   5
  -1   9 -11 3.05471 1.86238   1
   1  -9  11 3.33502 1.97980   5
   2  -9  11 0.14749 1.69443   1
   2  -9  11 -0.2729 1.63928   5
   3  -9  11 5.88159 1.87270   1
   3  -9  11 7.99583 2.10934   5
   4  -9  11 2.67585 2.19795   1
   2   8 -11 2.50433 1.50607   1
  -2  -8  11 1.68771 1.37527   2
  -2  -8  11 -1.1021 1.71740   5
   1   8 -11 3.59345 1.87520   1
  -1  -8  11 7.53344 1.90020   2
  -1  -8  11 6.25544 2.03138   5
   0   8 -11 16.6098 2.45222   1
   0  -8  11 10.4750 2.22691   5
   0  -8  11 15.7987 2.07996   2
  -1   8 -11 -0.9837 1.08029   1
   1  -8  11 -0.3748 1.44452   5
   2  -8  11 4.89622 1.93327   1
   2  -8  11 4.31252 1.61475   5
   3  -8  11 -0.3636 1.61052   1
  -4   8 -11 1.11860 1.48629   3
   4  -8  11 1.18235 1.84278   1
  -5   8 -11 -0.1184 1.59440   3
   5  -8  11 0.14485 1.83611   1
  -6   8 -11 1.80701 1.49337   3
   6  -8  11 0.17709 2.11762   1
   4   7 -11 8.78888 1.99400   1
  -4  -7  11 9.74994 2.41110   5
  -4  -7  11 8.78654 2.01278   2
   3   7 -11 -1.9946 1.46970   1
  -3  -7  11 0.14498 1.70173   5
  -3  -7  11 -1.9701 1.45178   2
   2   7 -11 3.39677 1.77544   1
  -2  -7  11 6.01125 1.96410   5
  -2  -7  11 3.21741 1.62064   2
   1   7 -11 84.7943 4.00282   1
  -1  -7  11 84.7910 3.88846   2
  -1  -7  11 91.8608 4.38930   5
   0   7 -11 56.4043 3.21701   1
   0  -7  11 59.4523 3.04147   2
   0  -7  11 55.9569 3.45662   5
   1  -7  11 1.96163 1.44713   1
   1  -7  11 1.11409 1.29757   5
   2  -7  11 5.12482 1.50519   5
   2  -7  11 4.60631 1.48890   1
  -3   7 -11 16.5869 2.04460   3
   3  -7  11 13.2819 2.23506   1
  -4   7 -11 3.05844 1.59885   3
   4  -7  11 0.72938 1.27444   1
  -5   7 -11 2.57818 1.78471   3
   5  -7  11 1.74023 1.80859   1
  -6   7 -11 4.55544 2.06542   3
   6  -7  11 5.10410 2.34454   1
   5   6 -11 0.57062 1.41080   1
  -5  -6  11 -0.3767 1.80189   2
  -5  -6  11 0.78301 1.74576   5
   4   6 -11 6.76678 2.03676   1
  -4  -6  11 8.85037 2.10526   2
  -4  -6  11 7.57136 2.02445   5
   3   6 -11 4.39756 1.42359   1
  -3  -6  11 6.15287 1.91001   5
  -3  -6  11 5.06725 1.75006   2
   2   6 -11 0.87044 1.09983   1
  -2  -6  11 3.14671 1.60172   5
  -2  -6  11 3.24193 1.44533   2
   1   6 -11 72.2495 3.65093   1
  -1  -6  11 78.0071 3.45457   2
  -1  -6  11 73.3006 3.74824   5
   0   6 -11 171.083 5.73109   1
   0  -6  11 181.339 5.81396   5
   0  -6  11 173.055 5.17792   2
   1  -6  11 11.2485 1.48103   2
   1  -6  11 9.13507 1.80036   1
   1  -6  11 7.48150 1.50389   5
  -2   6 -11 11.5306 1.57555   3
   2  -6  11 12.7275 1.95377   1
   2  -6  11 12.5698 1.69334   5
  -3   6 -11 37.0451 2.58652   3
   3  -6  11 35.7485 2.52404   1
  -4   6 -11 0.79444 1.05287   3
   4  -6  11 1.18680 1.48123   1
  -5   6 -11 11.5348 1.92124   3
   5  -6  11 14.8440 2.18860   1
  -6   6 -11 1.96179 1.79542   3
   6  -6  11 2.55813 1.92125   1
  -7   6 -11 -0.5562 1.91839   3
  -7   6 -11 -0.3442 1.87711   4
   7  -6  11 0.51976 2.09662   1
   6   5 -11 -1.1564 1.87057   1
  -6  -5  11 -1.2096 1.80153   2
  -6  -5  11 0.52662 1.97514   5
   5   5 -11 23.7121 2.79801   1
  -5  -5  11 22.4600 2.77085   5
  -5  -5  11 23.7212 2.72501   2
   4   5 -11 36.1608 3.20883   1
  -4  -5  11 31.7910 2.91685   2
  -4  -5  11 33.1269 3.02181   5
   3   5 -11 175.258 5.84500   1
  -3  -5  11 178.439 5.75362   2
  -3  -5  11 179.092 6.06806   5
   2   5 -11 38.9633 2.79258   1
  -2  -5  11 38.7596 2.57417   2
  -2  -5  11 38.0292 2.50506   5
   1   5 -11 491.029 11.3894   1
  -1  -5  11 479.250 10.8967   2
  -1  -5  11 474.642 11.6742   5
   0   5 -11 79.7070 3.31113   1
   0  -5  11 73.9998 2.97567   2
   0  -5  11 73.8853 3.35038   5
  -1   5 -11 579.111 12.0167   3
   1  -5  11 568.897 12.0881   2
   1  -5  11 576.032 13.0236   1
   1  -5  11 571.948 13.1084   5
  -2   5 -11 456.140 10.0625   3
   2  -5  11 442.889 10.4824   5
   2  -5  11 446.353 10.6926   1
  -3   5 -11 24.7896 2.20260   3
   3  -5  11 26.2239 2.36448   1
  -4   5 -11 75.8102 3.57943   3
   4  -5  11 77.2489 3.72519   1
  -5   5 -11 4.17093 1.32654   3
   5  -5  11 6.81313 1.87587   1
  -6   5 -11 0.72691 1.22791   3
  -6   5 -11 1.94901 1.60426   4
   6  -5  11 1.78564 1.73848   1
  -7   5 -11 -0.7471 1.87560   4
  -7   5 -11 -1.2086 1.86259   3
   7  -5  11 -1.5430 1.82173   1
   6   4 -11 -0.5883 1.29390   1
  -6  -4  11 -1.4972 1.51372   5
  -6  -4  11 0.40327 1.28127   2
   5   4 -11 0.21817 1.08709   1
  -5  -4  11 2.48497 1.60034   2
  -5  -4  11 0.83205 1.48309   5
   4   4 -11 1.32092 1.40370   1
  -4  -4  11 2.74173 1.34878   2
  -4  -4  11 0.66732 1.00716   5
   3   4 -11 13.2338 1.86790   1
  -3  -4  11 11.3641 1.55344   2
  -3  -4  11 12.6980 1.83396   5
   2   4 -11 19.6890 2.05982   1
  -2  -4  11 20.3124 1.93439   2
  -2  -4  11 17.7405 1.90222   5
   1   4 -11 16.8066 1.77898   1
  -1  -4  11 17.6418 1.73575   2
  -1  -4  11 20.5396 1.88251   5
   0   4 -11 21.7250 1.35911   3
   0  -4  11 21.3848 1.74332   2
   0  -4  11 19.0317 1.82500   1
   0  -4  11 17.7130 1.82671   5
   0  -4  11 20.6266 1.51658   4
  -1   4 -11 2.10077 0.81630   3
   1  -4  11 0.72428 0.74629   2
   1  -4  11 0.68080 0.89827   5
   1  -4  11 1.92314 0.81201   1
  -2   4 -11 3.61343 1.06705   3
   2  -4  11 3.74496 1.07597   5
   2  -4  11 3.03037 1.09936   1
  -3   4 -11 35.3504 2.14120   3
   3  -4  11 41.4354 2.49960   1
  -4   4 -11 -0.7158 0.78382   3
   4  -4  11 0.77373 1.15387   1
  -5   4 -11 7.12155 1.51251   3
   5  -4  11 9.68202 1.83391   1
  -6   4 -11 4.37556 1.78388   3
   6  -4  11 2.97338 1.65940   1
  -7   4 -11 -0.1467 1.80064   3
  -7   4 -11 1.70776 1.91287   4
   7  -4  11 1.32597 1.86506   1
   7   3 -11 -2.0403 1.73464   1
  -7  -3  11 2.63407 1.72480   2
   6   3 -11 -1.3731 1.49468   1
  -6  -3  11 -0.2642 1.35006   2
  -6  -3  11 -0.1441 1.46912   5
   5   3 -11 22.6017 2.49729   1
  -5  -3  11 18.8106 2.05396   2
  -5  -3  11 19.6393 2.35709   5
   4   3 -11 0.82935 1.21219   1
  -4  -3  11 -0.1924 1.00739   2
  -4  -3  11 -0.0929 1.17823   5
   3   3 -11 0.22908 1.02385   1
  -3  -3  11 0.58850 0.74330   4
  -3  -3  11 0.95879 0.97675   2
  -3  -3  11 -0.5693 1.01780   5
   2   3 -11 66.4428 2.87924   1
  -2  -3  11 60.7011 2.84689   5
  -2  -3  11 70.0815 2.54174   4
  -2  -3  11 59.4660 2.63978   2
   1   3 -11 16.2070 1.57865   1
  -1  -3  11 14.8569 1.35033   4
  -1  -3  11 12.8054 1.60263   5
  -1  -3  11 14.4154 1.41811   2
   0  -3  11 66.2308 2.58094   2
   0  -3  11 64.7693 2.75869   5
   0  -3  11 70.6112 2.46363   4
   0  -3  11 62.0440 2.59193   1
   1  -3  11 72.3890 2.81315   5
   1  -3  11 76.3513 2.83244   1
   1  -3  11 70.6360 2.58176   3
   1  -3  11 72.6992 2.61787   2
   1  -3  11 76.4064 2.73954   4
   2  -3  11 72.3789 2.78876   3
   2  -3  11 71.0714 2.81713   1
   2  -3  11 66.9761 2.53367   5
   3  -3  11 -0.2169 0.93780   3
   3  -3  11 -0.7015 0.82687   1
   4  -3  11 8.77726 1.50995   1
   4  -3  11 4.91520 1.42006   3
  -5   3 -11 3.08168 1.47731   3
   5  -3  11 9.04911 1.72386   1
  -6   3 -11 13.4012 2.26328   3
   6  -3  11 13.2659 2.06972   1
  -7   3 -11 -1.2399 1.62217   3
  -7   3 -11 2.33524 1.97670   4
   7  -3  11 2.90768 1.80546   1
   7   2 -11 1.02095 1.87360   1
  -7  -2  11 -0.5671 1.43447   2
   6   2 -11 1.41076 1.28697   1
  -6  -2  11 -0.3599 0.97814   2
  -6  -2  11 0.86741 1.48618   4
  -6  -2  11 0.82662 1.41309   5
   5   2 -11 30.4677 2.63957   1
  -5  -2  11 26.7020 2.52649   5
  -5  -2  11 23.2931 2.33489   2
  -5  -2  11 28.1463 2.13474   4
   4   2 -11 40.0604 2.48566   1
  -4  -2  11 39.8465 2.64881   5
  -4  -2  11 42.4952 2.30319   4
  -4  -2  11 42.3843 2.51892   2
   3   2 -11 14.0884 1.56771   1
  -3  -2  11 12.5053 1.65209   5
  -3  -2  11 13.8069 1.58283   2
  -3  -2  11 15.1919 1.54392   4
   2   2 -11 3.47605 0.95227   1
  -2  -2  11 1.14883 0.74385   5
  -2  -2  11 2.28288 0.83087   4
  -2  -2  11 2.25883 0.76905   2
   1   2 -11 25.3919 1.59532   1
  -1  -2  11 33.1369 1.86962   2
  -1  -2  11 28.8846 1.66807   4
  -1  -2  11 32.0506 1.41864   3
  -1  -2  11 30.6613 1.94498   5
   0  -2  11 105.415 3.20686   1
   0  -2  11 105.712 3.06827   3
   0  -2  11 102.511 3.29685   4
   0  -2  11 106.077 3.33763   2
   0  -2  11 100.544 3.45062   5
   1  -2  11 279.609 6.66223   2
   1  -2  11 288.413 7.00824   4
   1  -2  11 288.703 6.98140   5
   1  -2  11 288.193 6.70249   1
   1  -2  11 288.025 6.70810   3
  -2   2 -11 19.6621 1.42262   2
   2  -2  11 18.6372 1.67158   3
   2  -2  11 18.9362 1.46424   1
   3  -2  11 5.52888 1.10330   3
   3  -2  11 6.16964 1.15117   1
   4  -2  11 -0.2964 1.04590   3
   4  -2  11 -1.1645 0.85447   1
   5  -2  11 0.19534 1.12590   1
   5  -2  11 0.00973 0.90322   3
  -7   2 -11 0.61580 1.70777   3
   8   1 -11 -0.3174 2.03058   1
  -8  -1  11 2.55539 1.76085   4
   7   1 -11 16.9636 2.48022   1
  -7  -1  11 13.2715 2.04268   2
  -7  -1  11 13.3361 2.18307   4
   6   1 -11 83.6232 4.00355   1
  -6  -1  11 86.1697 3.73585   4
  -6  -1  11 91.8349 3.90368   2
   5   1 -11 34.8287 2.48804   1
  -5  -1  11 32.5092 2.17910   2
  -5  -1  11 34.5652 2.38284   4
   4   1 -11 128.544 4.26003   1
  -4  -1  11 130.489 4.28861   4
  -4  -1  11 127.416 4.29585   2
   3   1 -11 8.38257 1.26830   1
  -3  -1  11 8.73951 1.27924   4
  -3  -1  11 10.6366 1.38830   2
   2   1 -11 140.240 3.90007   1
  -2  -1  11 143.978 4.22955   4
  -2  -1  11 147.176 4.31945   2
  -2  -1  11 135.633 3.58981   3
   1   1 -11 6.65714 0.84171   1
  -1  -1  11 4.30436 0.96206   2
  -1  -1  11 4.43218 0.99068   4
  -1  -1  11 6.08737 0.89257   3
   0  -1  11 49.3113 2.06003   3
   0  -1  11 47.7315 2.16103   2
   0  -1  11 45.3446 2.20801   4
  -1   1 -11 597.763 12.4906   2
   1  -1  11 587.299 12.1731   1
   1  -1  11 591.840 12.9112   4
   1  -1  11 610.769 12.5041   3
  -2   1 -11 51.4087 2.26019   2
   2  -1  11 53.3085 2.37933   3
   2  -1  11 51.8574 2.12738   1
  -3   1 -11 18.0474 1.57490   2
   3  -1  11 20.4429 1.82597   3
   4  -1  11 19.4227 1.91190   3
   5  -1  11 -1.6896 0.79621   3
   6  -1  11 27.6102 2.60673   3
   8   0 -11 -0.5845 1.81183   1
  -8   0  11 0.38548 1.66119   4
  -7   0  11 35.9679 2.78018   2
  -7   0  11 33.4834 3.01277   4
   6   0 -11 7.77921 1.76737   1
  -6   0  11 11.0466 1.74164   2
  -6   0  11 9.47720 1.78209   4
   5   0 -11 62.8812 3.09899   1
  -5   0  11 61.8504 3.14672   4
  -5   0  11 65.2909 3.08195   2
   4   0 -11 46.1539 2.31385   1
  -4   0  11 45.0547 2.51144   4
  -4   0  11 40.3156 2.40468   2
   3   0 -11 4.03153 0.87206   1
  -3   0  11 4.66982 0.98518   2
  -3   0  11 3.74479 0.92266   4
  -3   0  11 4.11486 0.79684   3
   2   0 -11 70.9015 2.29213   1
  -2   0  11 69.8409 2.46458   3
  -2   0  11 70.4034 2.84744   4
  -2   0  11 71.8290 2.84347   2
  -1   0  11 3.36832 0.80809   2
  -1   0  11 4.00324 0.98861   4
  -1   0  11 3.47508 0.74878   3
   0   0 -11 27.0514 1.77075   2
   0   0  11 24.9893 1.80050   4
   0   0  11 26.4031 1.70179   3
  -1   0 -11 6.44512 1.13383   2
   1   0  11 9.22711 1.42898   4
   1   0  11 4.95921 0.94899   3
  -2   0 -11 44.6762 2.25886   2
   2   0  11 43.3765 2.25790   3
  -3   0 -11 5.68705 1.13435   2
   3   0  11 6.21996 1.38601   3
   4   0  11 30.7013 2.23326   3
   5   0  11 12.4780 2.04308   3
   6   0  11 -0.9051 1.07561   3
   8  -1 -11 6.56582 2.14658   1
  -8   1  11 4.56282 1.94884   4
   7  -1 -11 0.08913 1.48236   1
  -7   1  11 1.13744 1.27243   2
  -7   1  11 1.44494 1.53484   4
   6  -1 -11 48.4806 2.90611   1
  -6   1  11 50.1269 3.12921   4
  -6   1  11 47.9046 2.79636   2
   5  -1 -11 105.142 3.80347   1
  -5   1  11 101.118 3.83709   2
  -5   1  11 102.735 3.98148   4
  -4   1  11 39.4082 2.33638   2
  -4   1  11 36.2655 2.41634   4
  -4   1  11 38.2171 2.00866   3
  -3   1  11 409.097 9.54058   2
  -3   1  11 426.261 9.15084   3
  -3   1  11 414.597 9.82436   4
   2  -1 -11 12.5062 1.41425   2
  -2   1  11 12.5243 1.33554   3
  -2   1  11 12.2920 1.52363   4
   1  -1 -11 433.617 9.80824   2
  -1   1  11 431.317 9.55976   3
  -1   1  11 433.998 9.96491   4
   0  -1 -11 12.0110 1.42855   2
   0   1  11 12.6171 1.49096   3
   0   1  11 11.0657 1.36915   4
  -1  -1 -11 468.177 10.5962   2
   1   1  11 471.716 10.9750   4
   1   1  11 482.174 10.6460   3
  -2  -1 -11 16.6250 1.72904   2
   2   1  11 17.6816 1.72822   3
  -3  -1 -11 223.221 6.11245   2
   3   1  11 217.185 6.22949   3
  -4  -1 -11 12.4868 1.64340   2
   4   1  11 14.4584 2.05483   3
   5   1  11 30.4075 2.82534   3
   6   1  11 7.64101 2.07880   3
  -8   2  11 4.55627 1.92432   4
  -7   2  11 12.1484 1.99956   4
  -6   2  11 18.8828 2.37461   4
  -5   2  11 177.253 5.05072   3
  -5   2  11 180.001 5.38301   2
  -5   2  11 178.518 5.77777   4
   4  -2 -11 30.5256 2.12878   2
  -4   2  11 26.5361 1.71152   3
  -4   2  11 26.0461 1.96268   4
   3  -2 -11 206.451 5.65211   2
  -3   2  11 193.324 5.36860   3
  -3   2  11 196.806 5.80643   4
   2  -2 -11 107.248 3.64895   2
  -2   2  11 98.3750 3.50115   3
  -2   2  11 100.224 3.62611   4
   1  -2 -11 1.05270 0.93604   2
  -1   2  11 0.99541 0.92380   3
  -1   2  11 -0.1599 0.85424   4
   0  -2 -11 3.77227 1.18480   2
   0   2  11 4.55539 1.20582   4
   0   2  11 3.19862 0.97008   3
  -1  -2 -11 57.4387 2.81321   2
   1   2  11 59.1922 2.87412   3
   1   2  11 56.1232 2.73388   4
  -2  -2 -11 -0.6999 0.94929   2
   2   2  11 -0.9969 1.04946   3
  -3  -2 -11 54.9205 2.96582   2
   3   2  11 49.8547 2.80719   3
  -4  -2 -11 18.9750 2.12117   2
   4   2  11 17.5789 2.11777   3
   5   2  11 -0.6502 1.56552   3
  -8   3  11 5.99930 1.80244   4
  -7   3  11 3.25256 1.73057   4
   6  -3 -11 12.7275 1.82275   2
  -6   3  11 12.5645 2.15133   4
   5  -3 -11 6.17299 1.35573   2
  -5   3  11 6.07988 1.31755   3
  -5   3  11 5.77960 1.39079   4
   4  -3 -11 0.34806 1.00521   2
  -4   3  11 -0.4111 0.86302   3
  -4   3  11 -0.9075 0.93032   4
   3  -3 -11 102.300 3.81671   2
  -3   3  11 106.682 3.83054   3
  -3   3  11 102.286 3.94850   4
   2  -3 -11 48.3317 2.62060   2
  -2   3  11 47.1222 2.55416   3
  -2   3  11 46.0091 2.58022   4
   1  -3 -11 12.2953 1.67417   2
  -1   3  11 10.4715 1.44902   4
  -1   3  11 10.4193 1.57227   3
   0  -3 -11 111.554 4.12608   2
   0   3  11 113.056 4.02870   4
   0   3  11 115.568 4.17812   3
  -1  -3 -11 13.7487 1.80277   2
   1   3  11 16.3309 1.95253   4
   1   3  11 14.0680 1.75413   3
  -2  -3 -11 20.8926 2.20345   2
   2   3  11 16.8887 1.96644   3
  -3  -3 -11 14.8566 2.02929   2
   3   3  11 13.7744 2.09017   3
  -4  -3 -11 12.1371 2.01930   2
   4   3  11 13.6024 2.24836   3
  -8   4  11 2.23360 1.94944   4
  -7   4  11 2.13926 1.30795   4
  -6   4  11 5.80203 1.88997   4
  -6   4  11 4.29095 1.50339   3
   5  -4 -11 1.11874 1.15045   2
  -5   4  11 0.07654 1.03820   4
  -5   4  11 -1.0680 1.02705   3
   4  -4 -11 81.5675 3.46397   2
  -4   4  11 76.3499 3.48315   4
  -4   4  11 75.4096 3.32031   3
   3  -4 -11 29.6427 2.29929   2
  -3   4  11 30.5636 2.35420   4
  -3   4  11 29.5769 2.48639   3
   2  -4 -11 1.80719 1.10436   2
  -2   4  11 -0.8060 0.95564   3
  -2   4  11 0.10560 0.70102   4
   1  -4 -11 4.66076 1.20233   2
  -1   4  11 3.60407 1.30807   3
  -1   4  11 2.15910 1.16452   4
   0  -4 -11 4.15829 1.36767   2
   0   4  11 0.81634 1.16181   3
   0   4  11 3.35609 1.26397   4
  -1  -4 -11 -0.3137 1.11871   2
   1   4  11 1.51744 1.22417   4
   1   4  11 1.61562 1.08622   3
  -2  -4 -11 42.5821 3.03471   2
   2   4  11 38.7838 2.94261   3
  -3  -4 -11 39.4417 3.24481   2
   3   4  11 40.8015 3.19736   3
  -4  -4 -11 1.56804 1.66207   2
   4   4  11 0.00169 1.77577   3
  -7   5  11 0.05053 1.37282   4
  -7   5  11 0.78832 1.50447   3
  -6   5  11 2.29939 1.69362   4
  -6   5  11 3.22558 1.28849   3
   5  -5 -11 15.3965 2.06261   2
  -5   5  11 12.0234 1.82445   3
  -5   5  11 10.1343 2.04714   4
   4  -5 -11 42.7460 2.83331   2
  -4   5  11 49.7526 3.12264   4
  -4   5  11 45.8755 3.03553   3
   3  -5 -11 -1.6406 1.08705   2
  -3   5  11 -0.0894 1.11374   4
  -3   5  11 -0.8686 1.15712   3
   2  -5 -11 -2.0146 1.05679   2
  -2   5  11 0.00228 1.05624   4
  -2   5  11 -0.8489 1.07707   3
   1  -5 -11 -0.2092 1.23920   2
  -1   5  11 -0.0703 1.21494   3
  -1   5  11 -1.5861 0.94622   4
   0  -5 -11 0.33546 1.34551   2
   0   5  11 0.01787 1.04190   4
   0   5  11 1.22553 1.36238   3
  -1  -5 -11 0.13970 1.38818   2
   1   5  11 -0.1212 1.47611   3
   1   5  11 1.38836 1.31945   4
  -2  -5 -11 0.42840 1.52776   2
   2   5  11 0.10348 1.57208   3
  -3  -5 -11 0.10585 1.77237   2
   3   5  11 2.63064 1.47483   3
  -6   6  11 0.71628 1.29546   4
  -6   6  11 1.65277 1.63056   3
  -5   6  11 40.9375 3.18274   4
  -5   6  11 42.1674 3.27009   3
   4  -6 -11 9.85703 1.82145   2
  -4   6  11 16.1519 2.24508   3
  -4   6  11 9.52913 1.84510   4
   3  -6 -11 32.2273 2.84351   2
  -3   6  11 34.3868 2.69149   4
  -3   6  11 29.0852 2.77427   3
   2  -6 -11 36.9650 3.11912   2
  -2   6  11 33.7314 2.67781   4
  -2   6  11 42.7985 3.16810   3
   1  -6 -11 1.43230 1.54200   2
  -1   6  11 0.24077 1.48005   3
   0  -6 -11 28.6244 2.83778   2
   0   6  11 33.4302 3.18910   3
  -1  -6 -11 13.6143 2.20573   2
   1   6  11 15.0922 2.51856   3
  -5   7  11 2.88598 1.88508   3
  -5   7  11 1.41469 1.67920   4
   4  -7 -11 10.9328 2.13134   2
  -4   7  11 11.5261 2.37529   3
   3  -7 -11 10.4901 2.11518   2
  -3   7  11 16.2871 2.33817   3
   2  -7 -11 1.95027 1.79918   2
  -2   7  11 4.85897 1.68048   3
   1  -7 -11 2.34470 1.83277   2
  -1   7  11 4.52499 2.08162   3
   0   9 -12 1.82808 1.93892   1
   0  -9  12 0.62478 1.88828   5
  -1   9 -12 0.25278 1.73434   1
   1  -9  12 6.01658 2.18281   5
   2  -9  12 -0.4922 1.74663   1
   2  -9  12 3.19433 1.90005   5
   3  -9  12 30.1585 3.44072   1
   4  -9  12 10.3960 2.33543   1
   2   8 -12 4.94046 2.02942   1
  -2  -8  12 7.05703 1.92216   5
  -2  -8  12 2.57476 1.69579   2
   1   8 -12 3.85034 1.98508   1
  -1  -8  12 2.82713 1.68460   2
  -1  -8  12 6.71670 2.13006   5
   0   8 -12 3.01573 1.78504   1
   0  -8  12 5.85353 1.96648   5
   0  -8  12 2.66288 1.45533   2
  -1   8 -12 -1.5888 1.45048   1
   1  -8  12 -0.3798 1.53438   5
   2  -8  12 1.41509 1.75856   1
   2  -8  12 1.67945 1.55729   5
   3  -8  12 -0.4394 1.21052   1
  -4   8 -12 0.92439 1.52244   3
   4  -8  12 -0.4190 1.84372   1
  -5   8 -12 18.4274 2.64883   3
   5  -8  12 26.5026 3.38027   1
   4   7 -12 7.42510 2.32716   1
  -4  -7  12 7.94307 2.36895   2
  -4  -7  12 6.77780 2.32470   5
   3   7 -12 -0.1163 1.69459   1
  -3  -7  12 -2.5748 1.51896   5
  -3  -7  12 0.95632 1.69325   2
   2   7 -12 12.9145 2.31334   1
  -2  -7  12 17.4976 2.20283   2
  -2  -7  12 15.1304 2.21417   5
   1   7 -12 13.1008 2.00490   1
  -1  -7  12 10.8409 1.67107   2
  -1  -7  12 9.26555 2.10812   5
   0   7 -12 -2.2539 1.26011   1
   0  -7  12 -1.1773 1.04404   2
   0  -7  12 0.78463 1.48597   5
   1  -7  12 2.89454 1.61071   1
   1  -7  12 3.22687 1.23958   5
   2  -7  12 0.88243 1.44918   5
   2  -7  12 3.04063 1.63681   1
  -3   7 -12 15.0874 2.05933   3
   3  -7  12 16.1310 2.45232   1
  -4   7 -12 0.76562 1.52343   3
   4  -7  12 -0.3586 1.68148   1
  -5   7 -12 60.2844 3.85699   3
   5  -7  12 70.1291 4.30625   1
  -6   7 -12 18.6092 2.81752   3
   6  -7  12 26.5875 3.40497   1
   5   6 -12 3.72910 2.10942   1
  -5  -6  12 1.82707 1.90224   2
  -5  -6  12 1.50922 2.07649   5
   4   6 -12 3.79039 1.89557   1
  -4  -6  12 -2.2775 1.46182   5
  -4  -6  12 0.93214 1.65094   2
   3   6 -12 40.0981 2.94512   1
  -3  -6  12 46.6571 3.27265   2
  -3  -6  12 45.6517 3.49523   5
   2   6 -12 12.1320 2.15053   1
  -2  -6  12 9.79349 1.81784   2
  -2  -6  12 12.4046 2.15829   5
   1   6 -12 108.409 4.41213   1
  -1  -6  12 121.774 4.39398   2
  -1  -6  12 113.200 4.72054   5
   0   6 -12 18.3919 2.23736   1
   0  -6  12 15.3833 1.77086   2
   0  -6  12 15.5767 2.05286   5
   1  -6  12 75.7761 3.71878   1
   1  -6  12 74.0105 3.53363   5
  -2   6 -12 0.45212 1.06264   3
   2  -6  12 0.10429 1.09393   5
   2  -6  12 1.49740 1.35002   1
  -3   6 -12 46.3428 2.88099   3
   3  -6  12 45.3633 2.85878   1
  -4   6 -12 0.18404 1.05537   3
   4  -6  12 -0.1711 1.35184   1
  -5   6 -12 19.1835 2.52634   3
   5  -6  12 23.7663 2.65793   1
  -6   6 -12 1.63617 1.87052   3
   6  -6  12 0.06317 1.81449   1
   5   5 -12 1.92462 1.36023   1
  -5  -5  12 1.99787 1.76260   5
  -5  -5  12 1.85571 1.68541   2
   4   5 -12 1.06826 1.51694   1
  -4  -5  12 0.38500 1.42929   2
  -4  -5  12 2.60609 1.35394   5
   3   5 -12 73.7858 3.67622   1
  -3  -5  12 91.7552 4.20314   5
  -3  -5  12 85.3919 3.93747   2
   2   5 -12 104.256 4.35437   1
  -2  -5  12 106.381 4.15718   2
  -2  -5  12 103.772 4.39336   5
   1   5 -12 69.2710 3.36660   1
  -1  -5  12 66.2375 3.10273   2
  -1  -5  12 66.3376 3.39947   5
   0   5 -12 208.640 6.31390   1
   0  -5  12 223.168 5.92343   2
   0  -5  12 220.649 6.46584   5
  -1   5 -12 9.70681 1.37195   3
   1  -5  12 8.94884 1.47938   5
   1  -5  12 9.14078 1.63663   1
   1  -5  12 7.47662 1.26320   2
  -2   5 -12 36.0817 2.27403   3
   2  -5  12 34.1615 2.26177   5
   2  -5  12 35.1570 2.50582   1
  -3   5 -12 2.91027 1.26165   3
   3  -5  12 2.29470 1.31524   1
  -4   5 -12 0.93921 1.37913   3
   4  -5  12 2.47932 1.47095   1
  -5   5 -12 10.8094 2.07317   3
   5  -5  12 11.5304 2.14120   1
  -6   5 -12 -0.7783 1.56390   4
  -6   5 -12 -0.5541 1.59394   3
   6  -5  12 -0.5763 1.56616   1
  -7   5 -12 3.69951 2.12136   3
   7  -5  12 2.20354 2.15207   1
   6   4 -12 -1.4302 1.67551   1
  -6  -4  12 1.24211 1.69256   2
  -6  -4  12 0.34489 1.71475   5
   5   4 -12 7.82006 1.93128   1
  -5  -4  12 3.44979 1.61112   2
  -5  -4  12 4.56411 1.80585   5
   4   4 -12 39.7039 2.98785   1
  -4  -4  12 42.7199 3.19567   5
  -4  -4  12 48.0174 3.05014   2
   3   4 -12 -1.2010 1.12952   1
  -3  -4  12 1.36228 1.02653   5
  -3  -4  12 -0.4385 1.08529   2
   2   4 -12 99.2738 3.79971   1
  -2  -4  12 97.0869 4.03158   5
  -2  -4  12 100.441 3.80484   2
   1   4 -12 19.1294 1.79311   1
  -1  -4  12 16.3888 1.73012   2
  -1  -4  12 18.6769 2.00250   5
   0  -4  12 -1.5860 0.87223   5
   0  -4  12 -0.8397 0.72672   2
  -1   4 -12 0.27156 0.82949   3
   1  -4  12 0.38520 0.93107   1
   1  -4  12 -2.6973 0.73800   2
   1  -4  12 -0.6582 0.99772   5
  -2   4 -12 -0.1769 0.90083   3
   2  -4  12 0.17922 0.72960   1
   2  -4  12 0.21453 0.96248   5
  -3   4 -12 3.63919 1.06659   3
   3  -4  12 2.71806 1.17574   1
  -4   4 -12 -0.6320 0.87640   3
   4  -4  12 -0.3220 1.09032   1
  -5   4 -12 11.9854 2.11901   3
   5  -4  12 15.2600 2.17889   1
  -6   4 -12 12.3502 2.04951   3
   6  -4  12 13.0358 2.31188   1
  -7   4 -12 -0.1366 2.02892   4
  -7   4 -12 -0.8133 1.36147   3
   7  -4  12 -1.8190 1.80737   1
   7   3 -12 -1.3663 1.90244   1
  -7  -3  12 -1.8868 1.54142   2
   6   3 -12 2.88733 1.48914   1
  -6  -3  12 2.48034 1.71191   5
  -6  -3  12 3.15472 1.35247   2
   5   3 -12 2.18384 1.22544   1
  -5  -3  12 0.27358 0.95967   2
  -5  -3  12 3.03981 1.60825   5
   4   3 -12 10.4964 1.77708   1
  -4  -3  12 7.23871 1.57293   2
  -4  -3  12 4.45578 1.52212   5
   3   3 -12 0.46068 1.03763   1
  -3  -3  12 0.38959 1.09430   5
  -3  -3  12 -0.1911 0.94931   2
  -3  -3  12 0.76681 0.83652   4
   2   3 -12 0.61190 0.91941   1
  -2  -3  12 -0.0588 0.89873   2
  -2  -3  12 0.81456 0.81700   4
  -2  -3  12 -1.9789 0.92013   5
   1   3 -12 1.24343 0.89536   1
  -1  -3  12 0.46517 0.88118   2
  -1  -3  12 -0.1097 0.65352   4
  -1  -3  12 -0.8187 0.90162   5
   0  -3  12 0.59938 0.75688   2
   0  -3  12 -0.1379 0.78711   1
   0  -3  12 0.76051 0.68893   3
   0  -3  12 0.54916 0.71996   4
   0  -3  12 -0.1344 0.83251   5
   1  -3  12 38.1025 2.08841   1
   1  -3  12 41.2749 2.27331   5
   1  -3  12 37.0736 1.95911   3
   1  -3  12 31.3857 1.94177   4
  -2   3 -12 0.49944 0.69315   2
   2  -3  12 3.19176 1.02460   1
   2  -3  12 1.42830 0.97583   5
   2  -3  12 1.05853 0.99323   3
   3  -3  12 1.31562 0.97657   1
   3  -3  12 -0.0308 0.73182   3
   4  -3  12 14.7621 1.76339   3
   4  -3  12 16.8220 1.92525   1
  -5   3 -12 19.7788 2.22713   3
   5  -3  12 21.3790 2.28661   1
  -6   3 -12 -1.7242 0.99809   3
   6  -3  12 -0.3996 1.47560   1
  -7   3 -12 -0.4772 1.77965   3
  -7   3 -12 -0.2259 1.47477   4
   7   2 -12 24.6438 3.00540   1
  -7  -2  12 24.3016 2.71793   2
   6   2 -12 1.38731 1.62108   1
  -6  -2  12 1.48332 1.32409   4
  -6  -2  12 2.19231 1.45623   2
   5   2 -12 5.48193 1.53382   1
  -5  -2  12 3.24468 1.21432   5
  -5  -2  12 2.89655 1.15368   2
  -5  -2  12 2.60882 1.22875   4
   4   2 -12 12.6788 1.69556   1
  -4  -2  12 12.4471 1.61268   2
  -4  -2  12 11.5796 1.59088   4
  -4  -2  12 11.7656 1.80603   5
   3   2 -12 0.40290 0.88829   1
  -3  -2  12 0.07293 0.91119   2
  -3  -2  12 1.02520 0.85179   5
  -3  -2  12 1.81924 0.96601   4
   2   2 -12 26.2041 1.78153   1
  -2  -2  12 28.7575 2.15565   5
  -2  -2  12 27.4785 1.80184   2
  -2  -2  12 27.9302 1.79952   4
   1   2 -12 65.6024 2.51745   1
  -1  -2  12 68.9941 2.65684   4
  -1  -2  12 63.9435 2.25714   3
  -1  -2  12 62.1454 2.70702   2
  -1  -2  12 61.5505 2.84643   5
   0  -2  12 -0.9543 0.68581   2
   0  -2  12 7.17774 1.20991   5
   0  -2  12 0.16182 0.64111   3
   0  -2  12 0.60466 0.80180   4
   1  -2  12 15.2615 1.40873   3
   1  -2  12 20.9117 1.81897   4
   1  -2  12 18.0648 1.41985   1
  -2   2 -12 1.09107 0.76219   2
   2  -2  12 -0.1081 0.90437   3
   2  -2  12 -0.3805 0.81767   1
   3  -2  12 57.9191 2.85273   3
   3  -2  12 52.7610 2.59936   1
   4  -2  12 0.93074 0.93588   3
   4  -2  12 0.03758 1.01662   1
   5  -2  12 5.94541 1.65357   3
   6  -2  12 11.0926 1.97034   3
   7   1 -12 1.48233 1.73835   1
  -7  -1  12 2.70029 1.61591   4
  -7  -1  12 3.44181 1.61733   2
   6   1 -12 3.39482 1.55842   1
  -6  -1  12 1.96784 1.34029   2
  -6  -1  12 2.11390 1.36443   4
   5   1 -12 96.9044 3.96067   1
  -5  -1  12 94.4537 3.78790   2
  -5  -1  12 100.769 3.98143   4
   4   1 -12 -0.1878 0.99121   1
  -4  -1  12 -1.4095 0.85184   4
  -4  -1  12 -0.2941 0.92844   2
   3   1 -12 33.6629 1.92626   1
  -3  -1  12 29.0026 2.04503   4
  -3  -1  12 30.6131 2.13886   2
   2   1 -12 1.16108 0.78820   1
  -2  -1  12 1.65640 0.87101   4
  -2  -1  12 1.02914 0.90237   2
  -2  -1  12 0.79026 0.59403   3
   1   1 -12 17.0124 1.29092   1
  -1  -1  12 18.8946 1.37228   3
  -1  -1  12 18.8138 1.68463   2
  -1  -1  12 21.1809 1.63869   4
   0  -1  12 70.1072 2.86771   4
   0  -1  12 68.3970 2.62995   3
  -1   1 -12 2.38337 0.92527   2
   1  -1  12 2.56429 0.88233   4
   1  -1  12 3.74164 1.07245   3
  -2   1 -12 2.25627 0.91258   2
   2  -1  12 1.70700 0.84073   3
  -3   1 -12 1.37821 0.94832   2
   3  -1  12 -0.3485 0.74622   3
   4  -1  12 0.36783 0.90535   3
   5  -1  12 -1.2538 1.34692   3
   6  -1  12 6.21234 1.93899   3
   8   0 -12 13.3091 2.60007   1
  -8   0  12 14.1549 2.53763   4
   7   0 -12 1.53007 1.73838   1
  -7   0  12 2.72749 1.60737   4
  -7   0  12 -0.0167 1.32915   2
   6   0 -12 0.75721 1.38881   1
  -6   0  12 1.75742 1.34764   2
  -6   0  12 3.04324 1.41198   4
   5   0 -12 17.4362 2.00103   1
  -5   0  12 17.6909 2.10443   4
  -5   0  12 17.3633 2.00241   2
   4   0 -12 87.3636 3.26345   1
  -4   0  12 92.2438 3.62079   2
  -4   0  12 89.5736 3.64956   4
   3   0 -12 30.3614 1.71091   1
  -3   0  12 30.4960 1.96045   4
  -3   0  12 26.8357 2.05022   2
  -3   0  12 26.5059 1.64936   3
  -2   0  12 71.3287 2.89516   2
  -2   0  12 78.0726 2.72291   3
  -2   0  12 71.6574 3.02787   4
   1   0 -12 231.972 6.06721   2
  -1   0  12 221.009 6.07943   4
  -1   0  12 230.481 5.74056   3
   0   0 -12 87.0171 3.26287   2
   0   0  12 80.5904 2.96610   3
   0   0  12 85.9180 3.32938   4
  -1   0 -12 393.386 9.14935   2
   1   0  12 398.669 9.56287   4
   1   0  12 394.399 9.14716   3
  -2   0 -12 5.52080 1.15316   2
   2   0  12 5.32049 1.29394   3
  -3   0 -12 130.588 4.30934   2
   3   0  12 141.172 4.71779   3
   4   0  12 12.6971 1.73400   3
   5   0  12 3.67124 1.71214   3
   6   0  12 6.25716 2.00990   3
   8  -1 -12 0.54483 1.84522   1
  -8   1  12 0.32684 1.69460   4
   7  -1 -12 9.58372 2.01955   1
  -7   1  12 6.37522 1.86224   4
  -7   1  12 6.61821 1.86546   2
  -6   1  12 42.6375 2.77053   2
  -6   1  12 39.5830 2.94814   4
  -5   1  12 62.6168 3.11990   2
  -5   1  12 62.5527 3.13520   4
  -4   1  12 0.47007 1.00417   2
  -4   1  12 1.97726 0.86390   3
  -4   1  12 0.17766 1.07960   4
  -3   1  12 490.968 11.4171   4
  -3   1  12 480.996 11.1219   2
  -3   1  12 503.022 10.6951   3
   2  -1 -12 341.100 8.33732   2
  -2   1  12 346.258 8.58074   4
  -2   1  12 350.512 8.08609   3
   1  -1 -12 101.197 3.68478   2
  -1   1  12 104.436 3.56997   3
  -1   1  12 101.142 3.74710   4
   0  -1 -12 541.583 12.3413   2
   0   1  12 580.059 12.7845   4
   0   1  12 576.117 12.3444   3
  -1  -1 -12 156.950 4.86787   2
   1   1  12 161.717 4.93326   3
   1   1  12 155.267 5.06925   4
  -2  -1 -12 82.9817 3.40250   2
   2   1  12 81.0571 3.49760   3
  -3  -1 -12 105.356 3.96906   2
   3   1  12 104.470 4.20389   3
  -4  -1 -12 -0.2737 1.10226   2
   4   1  12 -0.3391 0.99242   3
   5   1  12 1.70353 1.65517   3
  -8   2  12 -1.4580 1.72679   4
  -7   2  12 6.83220 1.71080   4
  -6   2  12 2.52310 1.30447   2
  -6   2  12 1.26578 1.39416   4
  -5   2  12 30.0127 2.47551   2
  -5   2  12 32.9960 2.87603   4
   4  -2 -12 2.58258 1.15613   2
  -4   2  12 1.40351 0.96982   3
  -4   2  12 0.71489 0.86411   4
   3  -2 -12 23.3306 1.81927   2
  -3   2  12 23.9025 2.22714   4
  -3   2  12 24.2215 1.85815   3
   2  -2 -12 3.23579 1.20015   2
  -2   2  12 8.05179 1.44085   4
  -2   2  12 6.66249 1.30553   3
   1  -2 -12 0.95885 1.08898   2
  -1   2  12 1.23959 1.03634   4
  -1   2  12 0.20795 0.98550   3
   0  -2 -12 4.42063 1.11565   2
   0   2  12 6.32835 1.40292   4
   0   2  12 4.66974 1.29797   3
  -1  -2 -12 -0.7778 0.89828   2
   1   2  12 -0.0663 1.05635   3
   1   2  12 0.40761 1.03965   4
  -2  -2 -12 37.6414 2.56163   2
   2   2  12 39.2438 2.68707   3
  -3  -2 -12 1.91209 1.21767   2
   3   2  12 2.03235 1.43635   3
  -4  -2 -12 36.8070 2.79976   2
   4   2  12 40.1346 3.10738   3
   5   2  12 -0.4898 1.23893   3
  -8   3  12 2.97327 1.59053   4
  -7   3  12 2.50518 1.75696   4
   6  -3 -12 25.6639 2.35985   2
  -6   3  12 29.0638 2.95889   4
   5  -3 -12 -0.0708 1.14694   2
  -5   3  12 0.88874 0.98645   4
  -5   3  12 -0.8913 0.88234   3
   4  -3 -12 27.6863 2.35134   2
  -4   3  12 25.8949 2.48725   4
  -4   3  12 28.4506 2.16283   3
   3  -3 -12 44.9704 2.66875   2
  -3   3  12 42.8645 2.51837   3
  -3   3  12 37.7297 2.36910   4
   2  -3 -12 33.7055 2.41166   2
  -2   3  12 42.8691 2.38112   3
  -2   3  12 40.8338 2.55776   4
   1  -3 -12 2.28366 1.18094   2
  -1   3  12 1.65479 0.91971   3
  -1   3  12 3.37674 1.07932   4
   0  -3 -12 23.7206 2.26575   2
   0   3  12 27.3743 2.40653   3
   0   3  12 25.5440 2.32588   4
  -1  -3 -12 13.7513 1.93710   2
   1   3  12 12.7505 1.68469   3
   1   3  12 14.2530 1.97696   4
  -2  -3 -12 45.4183 2.96863   2
   2   3  12 42.8146 2.71373   3
  -3  -3 -12 6.60284 1.63569   2
   3   3  12 4.13736 1.45772   3
  -4  -3 -12 2.39339 1.57502   2
   4   3  12 1.58814 1.31778   3
  -7   4  12 3.25858 1.56403   4
  -6   4  12 14.3238 2.05284   3
  -6   4  12 11.9541 1.99907   4
   5  -4 -12 42.2638 2.84631   2
  -5   4  12 45.4124 2.88051   3
  -5   4  12 44.1718 2.90723   4
   4  -4 -12 16.7805 1.97650   2
  -4   4  12 12.2693 1.83723   3
  -4   4  12 13.1911 2.02054   4
   3  -4 -12 8.57749 1.60262   2
  -3   4  12 6.61729 1.51830   3
  -3   4  12 5.93458 1.51109   4
   2  -4 -12 6.65843 1.60965   2
  -2   4  12 4.64182 1.47663   3
  -2   4  12 7.37147 1.57285   4
   1  -4 -12 3.42374 1.14070   2
  -1   4  12 3.84249 1.12617   3
  -1   4  12 2.16307 1.27489   4
   0  -4 -12 8.62763 1.75361   2
   0   4  12 12.1301 1.78017   3
   0   4  12 15.4660 1.99178   4
  -1  -4 -12 7.78820 1.54768   2
   1   4  12 4.61061 1.35128   4
   1   4  12 6.91436 1.56015   3
  -2  -4 -12 2.01427 1.46411   2
   2   4  12 0.80584 1.17849   3
  -3  -4 -12 0.32472 1.53894   2
   3   4  12 0.72921 1.26805   3
  -7   5  12 -1.0864 1.24658   4
  -7   5  12 1.17403 1.63735   3
  -6   5  12 19.3803 2.69660   4
  -6   5  12 20.5979 2.52194   3
   5  -5 -12 27.7692 2.57168   2
  -5   5  12 30.0790 2.76055   3
  -5   5  12 23.9301 2.72239   4
   4  -5 -12 10.0239 1.87081   2
  -4   5  12 14.1041 2.13275   4
  -4   5  12 16.3993 2.24966   3
   3  -5 -12 159.928 5.57820   2
  -3   5  12 169.528 5.76504   3
  -3   5  12 158.372 5.63079   4
   2  -5 -12 -0.1149 1.24776   2
  -2   5  12 -0.5025 1.20033   4
  -2   5  12 0.80837 1.33722   3
   1  -5 -12 49.2970 3.01469   2
  -1   5  12 44.4511 2.89348   3
  -1   5  12 50.6291 3.07368   4
   0  -5 -12 3.78498 1.55853   2
   0   5  12 1.31141 1.55143   3
   0   5  12 1.19224 1.36224   4
  -1  -5 -12 17.5626 2.47453   2
   1   5  12 15.0287 2.18559   4
   1   5  12 15.2603 2.40545   3
  -2  -5 -12 34.4574 3.29529   2
   2   5  12 30.3010 3.11720   3
  -6   6  12 8.27677 2.08707   3
  -6   6  12 2.66836 1.85684   4
  -5   6  12 2.48125 1.61745   4
  -5   6  12 3.07829 1.71991   3
   4  -6 -12 9.18655 1.93163   2
  -4   6  12 11.1901 1.94155   3
  -4   6  12 14.3801 2.21683   4
   3  -6 -12 -1.3553 1.37804   2
  -3   6  12 -0.9683 1.21798   4
  -3   6  12 -0.0118 1.46401   3
   2  -6 -12 42.8772 3.32037   2
  -2   6  12 35.2397 3.07476   4
  -2   6  12 37.0317 3.23149   3
   1  -6 -12 15.7502 2.42910   2
  -1   6  12 13.5621 2.21647   4
  -1   6  12 21.6876 2.74112   3
   0  -6 -12 16.6271 2.64432   2
   0   6  12 17.0808 2.56607   3
  -1  -6 -12 -1.8644 1.72519   2
   1   6  12 1.24329 1.91073   3
   4  -7 -12 2.59450 1.75240   2
  -4   7  12 1.13554 1.47430   3
   3  -7 -12 14.4288 2.38633   2
  -3   7  12 10.2858 2.34846   3
   2  -7 -12 5.83669 2.01993   2
  -2   7  12 5.59982 2.13788   3
   0   9 -13 16.3261 2.73168   1
   0  -9  13 14.0765 2.77359   5
  -1   9 -13 7.36190 2.35356   1
   1  -9  13 5.68397 2.21902   5
   2  -9  13 18.6664 2.80939   5
   2  -9  13 21.0626 3.02479   1
   3  -9  13 4.05333 2.35225   1
   2   8 -13 3.67562 2.07473   1
  -2  -8  13 5.49710 2.21307   5
  -2  -8  13 5.69919 2.02416   2
   1   8 -13 16.5590 2.57738   1
  -1  -8  13 13.0085 2.61046   5
  -1  -8  13 11.6306 2.18932   2
   0   8 -13 80.6394 4.15371   1
   0  -8  13 79.0824 4.50028   5
  -1   8 -13 1.36022 1.67337   1
   1  -8  13 3.49777 1.80843   5
   2  -8  13 1.01031 1.55570   5
   2  -8  13 0.24975 1.71603   1
   3  -8  13 -0.8106 1.74964   1
  -4   8 -13 9.51363 2.08781   3
   4  -8  13 10.0084 2.39543   1
  -5   8 -13 6.11494 2.14431   3
   5  -8  13 4.63027 2.38979   1
   3   7 -13 0.30721 1.76874   1
  -3  -7  13 -2.8128 1.49601   2
  -3  -7  13 -0.6174 1.76637   5
   2   7 -13 -2.0109 1.50707   1
  -2  -7  13 1.23162 1.49991   2
  -2  -7  13 0.81845 1.74908   5
   1   7 -13 33.3143 3.13735   1
  -1  -7  13 31.8113 3.20654   5
   0   7 -13 2.16291 1.61147   1
   0  -7  13 -0.4566 1.49948   5
   0  -7  13 3.67338 1.39269   2
   1  -7  13 3.16113 1.58638   5
   1  -7  13 -2.5358 1.41740   1
   2  -7  13 81.7073 4.25156   1
   2  -7  13 76.6236 3.85718   5
  -3   7 -13 4.62251 1.65068   3
   3  -7  13 8.14468 2.07876   1
  -4   7 -13 28.6770 2.85548   3
   4  -7  13 31.8359 3.29476   1
  -5   7 -13 28.8997 3.08699   3
   5  -7  13 36.1393 3.50880   1
   4   6 -13 6.69425 2.16109   1
  -4  -6  13 9.42894 2.21908   2
  -4  -6  13 8.70729 2.29034   5
   3   6 -13 26.1813 2.77305   1
  -3  -6  13 24.4122 2.54725   2
  -3  -6  13 29.1577 3.01903   5
   2   6 -13 53.3518 3.50130   1
  -2  -6  13 47.8720 3.21372   2
  -2  -6  13 57.1615 3.67669   5
   1   6 -13 0.83925 1.36160   1
  -1  -6  13 0.88478 1.39235   5
  -1  -6  13 0.64853 1.19938   2
   0   6 -13 26.4534 2.59009   1
   0  -6  13 24.2419 2.20297   2
   0  -6  13 25.3705 2.56381   5
   1  -6  13 1.63733 1.29145   5
   1  -6  13 0.30750 1.00480   1
  -2   6 -13 46.5690 2.73683   3
   2  -6  13 50.9147 2.91964   5
   2  -6  13 48.6063 3.19790   1
  -3   6 -13 18.8428 2.18428   3
   3  -6  13 15.3148 2.28110   1
  -4   6 -13 1.49667 1.18852   3
   4  -6  13 1.36589 1.63356   1
  -5   6 -13 5.87186 2.01510   3
   5  -6  13 7.81165 2.11657   1
  -6   6 -13 -1.3003 1.27646   3
   6  -6  13 -0.7731 1.82760   1
   5   5 -13 17.9857 2.69358   1
  -5  -5  13 19.1944 2.84510   5
  -5  -5  13 17.4430 2.58392   2
   4   5 -13 32.4979 3.09446   1
  -4  -5  13 29.5293 2.90884   2
  -4  -5  13 30.4140 3.12747   5
   3   5 -13 9.63952 1.77572   1
  -3  -5  13 13.5102 2.10465   2
  -3  -5  13 10.1815 1.84167   5
   2   5 -13 127.420 4.80986   1
  -2  -5  13 140.411 5.21246   5
  -2  -5  13 134.038 4.67145   2
   1   5 -13 6.46554 1.56907   1
  -1  -5  13 4.71324 1.27213   5
  -1  -5  13 3.36944 1.27444   2
   0   5 -13 23.1251 2.22543   1
   0  -5  13 16.9756 1.79107   2
   0  -5  13 17.3326 2.09982   5
   1  -5  13 26.8455 2.21958   5
   1  -5  13 27.4548 1.91523   2
   1  -5  13 28.0751 2.47475   1
  -2   5 -13 21.3477 1.98049   3
   2  -5  13 16.8827 1.83086   5
   2  -5  13 22.3634 2.21302   1
  -3   5 -13 -0.1721 1.15883   3
   3  -5  13 0.76500 1.24217   1
  -4   5 -13 2.26550 1.49798   3
   4  -5  13 4.83802 1.64286   1
  -5   5 -13 0.03530 1.58836   3
   5  -5  13 -2.0181 1.38744   1
  -6   5 -13 -2.3715 1.64720   3
   6  -5  13 0.51702 1.83089   1
   6   4 -13 5.92992 2.26407   1
  -6  -4  13 1.92137 1.80970   2
  -6  -4  13 2.46942 1.87956   5
   5   4 -13 17.2917 2.49339   1
  -5  -4  13 15.3475 2.47598   5
  -5  -4  13 16.9964 2.43958   2
   4   4 -13 1.56889 1.45668   1
  -4  -4  13 -0.6204 1.04592   5
  -4  -4  13 -0.7246 1.24921   2
   3   4 -13 2.37630 1.41165   1
  -3  -4  13 5.30031 1.68091   5
  -3  -4  13 4.21940 1.48599   2
   2   4 -13 12.3714 1.77446   1
  -2  -4  13 8.37266 1.76256   5
  -2  -4  13 11.2242 1.56297   2
   1   4 -13 80.0656 3.35177   1
  -1  -4  13 63.4055 3.02853   2
  -1  -4  13 71.3403 3.41348   5
   0   4 -13 38.6499 2.42802   1
   0  -4  13 39.6510 2.27754   2
   0  -4  13 37.0939 2.52789   5
   1  -4  13 1.11249 1.08870   5
   1  -4  13 1.94976 1.06210   1
   1  -4  13 1.41597 0.91539   2
   2  -4  13 0.45607 0.96924   1
  -3   4 -13 1.47082 1.21161   3
   3  -4  13 4.01874 1.27903   1
  -4   4 -13 3.03453 1.48313   3
   4  -4  13 0.38784 1.23341   1
  -5   4 -13 4.41767 1.69806   3
   5  -4  13 3.81229 1.63645   1
  -6   4 -13 3.77542 1.85431   3
   6  -4  13 1.86894 1.75976   1
   6   3 -13 -1.0847 1.65552   1
  -6  -3  13 -2.8159 1.34948   5
  -6  -3  13 1.37928 1.57986   2
   5   3 -13 12.6444 1.88845   1
  -5  -3  13 11.1199 2.10690   5
  -5  -3  13 16.2679 2.29014   2
   4   3 -13 23.5839 2.36651   1
  -4  -3  13 24.6861 2.44932   2
  -4  -3  13 20.3554 2.50014   5
   3   3 -13 1.32029 1.09913   1
  -3  -3  13 0.48076 1.14533   5
  -3  -3  13 1.26332 1.08258   2
   2   3 -13 18.5453 1.84238   1
  -2  -3  13 21.0793 1.63805   4
  -2  -3  13 21.0450 2.00186   2
  -2  -3  13 15.8636 2.01734   5
   1   3 -13 0.76996 0.90472   1
  -1  -3  13 0.08277 1.05952   5
  -1  -3  13 0.04811 0.73812   4
  -1  -3  13 -1.7575 0.76898   2
   0  -3  13 13.5576 1.31196   3
   0  -3  13 13.1384 1.65156   5
   0  -3  13 16.5935 1.62810   2
   0  -3  13 14.2127 1.49954   4
   1  -3  13 214.134 5.94933   5
   1  -3  13 212.297 5.80035   4
   1  -3  13 217.256 5.78141   1
  -2   3 -13 11.4758 1.39923   2
   2  -3  13 11.7991 1.41892   3
   2  -3  13 11.2299 1.45620   1
   3  -3  13 15.4749 1.76600   1
   3  -3  13 17.1956 1.92276   3
   4  -3  13 3.96664 1.49354   1
   4  -3  13 3.07422 1.43400   3
  -6   3 -13 -1.4228 1.64803   3
   7   2 -13 1.82123 1.92001   1
  -7  -2  13 6.78518 1.96457   2
   6   2 -13 7.51235 1.98655   1
  -6  -2  13 7.53642 1.85565   2
   5   2 -13 44.9407 3.02292   1
  -5  -2  13 42.1548 2.71359   2
  -5  -2  13 50.8301 2.92087   4
   4   2 -13 24.2659 2.22819   1
  -4  -2  13 20.2417 2.04104   2
  -4  -2  13 22.0440 2.10473   4
  -4  -2  13 19.0436 2.13209   5
   3   2 -13 0.61568 0.92740   1
  -3  -2  13 -1.6248 0.74202   4
  -3  -2  13 -0.1317 1.03118   5
  -3  -2  13 -0.0288 0.96223   2
   2   2 -13 34.4656 2.13258   1
  -2  -2  13 33.4679 2.07542   4
  -2  -2  13 34.3802 2.43743   5
  -2  -2  13 35.9339 2.26833   2
   1   2 -13 14.8577 1.48167   1
  -1  -2  13 12.4072 1.53992   5
  -1  -2  13 10.5523 1.19929   3
  -1  -2  13 11.7426 1.52611   2
  -1  -2  13 11.9293 1.46568   4
   0   2 -13 -1.0799 0.63668   1
   0  -2  13 -0.1365 0.80640   2
   0  -2  13 -0.9561 0.78417   4
   0  -2  13 -1.0004 0.66930   3
  -1   2 -13 74.0870 2.93655   2
   1  -2  13 73.9199 2.83361   3
   1  -2  13 73.4762 3.13704   4
   1  -2  13 73.4419 2.78819   1
  -2   2 -13 69.4491 2.87897   2
   2  -2  13 72.5558 2.96270   3
   3  -2  13 16.1484 1.91450   3
   4  -2  13 -1.2233 1.18165   3
   5  -2  13 18.0005 2.31094   3
   6  -2  13 -2.0124 1.63629   3
   7   1 -13 -0.8114 1.70279   1
  -7  -1  13 0.63441 1.18123   4
  -7  -1  13 1.04038 1.49597   2
   6   1 -13 25.3437 2.60763   1
  -6  -1  13 28.0551 2.65543   4
  -6  -1  13 26.3251 2.52803   2
   5   1 -13 14.2846 2.06611   1
  -5  -1  13 13.0965 1.91361   2
  -5  -1  13 13.0970 1.73647   4
   4   1 -13 40.8915 2.55001   1
  -4  -1  13 43.0136 2.60909   4
  -4  -1  13 39.2059 2.39827   2
   3   1 -13 92.7821 3.28959   1
  -3  -1  13 96.0113 3.64611   4
  -3  -1  13 89.9699 3.63070   2
   2   1 -13 1.86480 0.79701   1
  -2  -1  13 1.81497 0.82923   4
  -2  -1  13 1.16266 0.80799   2
  -2  -1  13 1.35945 0.71384   3
  -1  -1  13 111.917 3.74032   2
  -1  -1  13 107.072 3.38132   3
  -1  -1  13 101.640 3.60601   4
   0   1 -13 59.7370 2.60960   2
   0  -1  13 59.1042 2.59916   3
   0  -1  13 62.0965 2.82156   4
  -1   1 -13 54.5466 2.62504   2
   1  -1  13 64.5756 3.00453   4
   1  -1  13 57.6313 2.58309   3
  -2   1 -13 1.08546 1.01028   2
   2  -1  13 0.93018 0.82532   3
  -3   1 -13 -0.2687 0.85486   2
   3  -1  13 0.17112 0.83261   3
   4  -1  13 6.81871 1.65675   3
   5  -1  13 -1.6425 1.39625   3
   6  -1  13 0.12382 1.75243   3
   7   0 -13 -1.8942 1.52159   1
  -7   0  13 0.53542 1.51508   4
  -7   0  13 3.72952 1.61350   2
   6   0 -13 3.48485 1.51607   1
  -6   0  13 4.97737 1.55841   2
  -6   0  13 2.90048 1.25580   4
  -5   0  13 -0.9684 0.82196   2
  -5   0  13 -0.4480 1.13590   4
  -4   0  13 5.41500 1.39561   4
  -4   0  13 6.22626 1.39643   2
  -3   0  13 5.57225 1.37961   2
  -3   0  13 7.08520 1.30593   4
  -2   0  13 1.97191 1.05060   4
  -2   0  13 2.18605 1.02402   2
  -2   0  13 2.66357 0.94040   3
   1   0 -13 66.4671 2.98635   2
  -1   0  13 63.8780 2.75370   3
  -1   0  13 65.6567 2.86236   4
   0   0 -13 13.8608 1.67949   2
   0   0  13 16.5699 1.74673   4
   0   0  13 17.1476 1.75505   3
  -1   0 -13 51.4006 2.63189   2
   1   0  13 53.1691 2.70376   3
   1   0  13 48.8346 2.64096   4
  -2   0 -13 22.6124 2.03612   2
   2   0  13 26.7725 2.29908   3
  -3   0 -13 -0.6712 0.94621   2
   3   0  13 1.20728 0.89941   3
   4   0  13 1.03423 1.11922   3
   5   0  13 4.65621 1.86161   3
  -7   1  13 5.44736 1.82003   4
  -7   1  13 4.64636 1.77027   2
  -6   1  13 1.25202 1.52319   4
  -6   1  13 2.72194 1.35775   2
  -5   1  13 20.9431 2.39847   4
  -5   1  13 19.8632 2.15488   2
  -4   1  13 82.9274 3.61746   2
  -4   1  13 89.9609 3.85404   4
  -3   1  13 317.025 8.38179   4
  -3   1  13 338.260 7.86205   3
   2  -1 -13 116.288 4.04338   2
  -2   1  13 113.092 4.11903   4
  -2   1  13 119.369 3.95566   3
   1  -1 -13 652.651 14.3731   2
  -1   1  13 669.435 14.7175   4
  -1   1  13 668.293 14.1006   3
   0  -1 -13 29.2197 2.20353   2
   0   1  13 27.3306 2.15929   3
   0   1  13 26.5309 2.34016   4
  -1  -1 -13 103.590 3.94446   2
   1   1  13 110.075 4.05744   3
   1   1  13 100.601 3.96191   4
  -2  -1 -13 46.0006 2.70423   2
   2   1  13 44.2036 2.59201   3
  -3  -1 -13 0.18626 1.06835   2
   3   1  13 0.38026 1.25961   3
   4   1  13 -0.9121 0.96090   3
   5   1  13 2.26030 1.82668   3
  -7   2  13 -0.4376 1.50670   4
  -6   2  13 10.6462 2.06706   4
  -6   2  13 11.0187 1.87948   2
   5  -2 -13 8.20638 1.66917   2
  -5   2  13 7.40930 1.76805   4
   4  -2 -13 4.24301 1.34427   2
  -4   2  13 7.16853 1.43472   4
  -4   2  13 7.48691 1.34577   3
   3  -2 -13 39.4169 2.37570   2
  -3   2  13 38.2209 2.55847   4
  -3   2  13 37.5331 2.27860   3
   2  -2 -13 3.24786 1.25198   2
  -2   2  13 5.13856 1.17858   4
  -2   2  13 4.26855 1.26296   3
   1  -2 -13 85.7554 3.48891   2
  -1   2  13 84.0299 3.52890   3
  -1   2  13 89.8984 3.71684   4
   0  -2 -13 0.55480 0.81629   2
   0   2  13 0.57552 1.02457   4
   0   2  13 -1.6478 0.98227   3
  -1  -2 -13 59.8587 3.12511   2
   1   2  13 50.7049 3.05224   4
   1   2  13 60.7520 3.16534   3
  -2  -2 -13 42.6314 2.76273   2
   2   2  13 37.3210 2.53466   3
  -3  -2 -13 2.73515 1.36504   2
   3   2  13 3.11907 1.66653   3
  -4  -2 -13 6.53138 1.72907   2
   4   2  13 5.07958 1.93910   3
  -7   3  13 0.93280 1.37537   4
   6  -3 -13 9.65798 1.78065   2
  -6   3  13 13.0056 2.34924   4
   5  -3 -13 2.20250 1.39788   2
  -5   3  13 2.60472 1.23229   4
  -5   3  13 1.82007 1.15144   3
   4  -3 -13 75.5211 3.57739   2
  -4   3  13 64.5180 3.19920   3
  -4   3  13 65.2233 3.53255   4
   3  -3 -13 55.8083 2.92244   2
  -3   3  13 57.5973 3.15262   4
  -3   3  13 57.9733 3.02315   3
   2  -3 -13 12.8053 1.68535   2
  -2   3  13 9.57157 1.51502   3
  -2   3  13 8.84339 1.62616   4
   1  -3 -13 9.05196 1.65110   2
  -1   3  13 8.37633 1.67454   3
  -1   3  13 9.75172 1.56767   4
   0  -3 -13 1.42219 1.19399   2
   0   3  13 0.06126 1.09710   4
   0   3  13 1.76306 1.01186   3
  -1  -3 -13 2.66231 1.32602   2
   1   3  13 1.50042 1.09497   4
   1   3  13 0.27496 0.99645   3
  -2  -3 -13 15.5156 2.17382   2
   2   3  13 14.5761 2.21709   3
  -3  -3 -13 18.0245 2.35417   2
   3   3  13 20.7149 2.70799   3
  -4  -3 -13 -2.5976 1.63438   2
   4   3  13 0.29344 1.76340   3
  -7   4  13 -0.5873 1.65824   4
  -6   4  13 5.65381 1.58800   3
  -6   4  13 6.00543 1.71180   4
   5  -4 -13 2.85078 1.48099   2
  -5   4  13 3.95803 1.22794   3
  -5   4  13 3.76508 1.35291   4
   4  -4 -13 4.33706 1.54210   2
  -4   4  13 4.87914 1.65322   4
  -4   4  13 3.13624 1.40931   3
   3  -4 -13 28.5265 2.65430   2
  -3   4  13 30.0173 2.30503   3
  -3   4  13 36.2929 2.79631   4
   2  -4 -13 21.2286 2.44235   2
  -2   4  13 28.1233 2.65754   3
  -2   4  13 31.8888 2.81421   4
   1  -4 -13 23.0290 2.36869   2
  -1   4  13 21.4249 2.39530   3
  -1   4  13 19.3073 2.33044   4
   0  -4 -13 38.2136 2.94638   2
   0   4  13 38.4388 2.60001   4
   0   4  13 29.5191 2.86943   3
  -1  -4 -13 26.7191 2.63576   2
   1   4  13 29.4153 2.79379   3
   1   4  13 25.3892 2.70529   4
  -2  -4 -13 8.87884 2.01431   2
   2   4  13 9.15633 2.09914   3
  -3  -4 -13 3.56808 1.86311   2
   3   4  13 2.30056 1.96524   3
  -6   5  13 4.04711 1.60324   4
  -6   5  13 5.19655 1.82590   3
   5  -5 -13 0.55682 1.36789   2
  -5   5  13 1.46105 1.24908   4
  -5   5  13 1.29520 1.13963   3
   4  -5 -13 1.33638 1.44688   2
  -4   5  13 -0.5460 1.42105   3
  -4   5  13 1.58733 1.42797   4
   3  -5 -13 11.4339 2.03956   2
  -3   5  13 6.41521 1.49548   4
  -3   5  13 6.82049 1.59861   3
   2  -5 -13 -0.5718 0.98080   2
  -2   5  13 0.19472 1.32790   4
  -2   5  13 1.22352 1.18240   3
   1  -5 -13 12.6481 1.98626   2
  -1   5  13 10.2548 2.07249   3
  -1   5  13 11.4130 1.97316   4
   0  -5 -13 9.46244 1.87756   2
   0   5  13 10.5948 1.96392   3
   0   5  13 11.3895 2.02425   4
  -1  -5 -13 5.81239 1.96178   2
   1   5  13 5.30630 1.98097   3
  -5   6  13 1.72079 1.74194   3
  -5   6  13 0.53719 1.57838   4
   4  -6 -13 -0.5992 1.59322   2
  -4   6  13 0.18928 1.61695   3
  -4   6  13 0.89866 1.60193   4
   3  -6 -13 4.18599 1.86168   2
  -3   6  13 3.57034 1.72752   4
  -3   6  13 1.12514 1.78395   3
   2  -6 -13 0.29003 1.22202   2
  -2   6  13 -0.6223 1.34432   4
  -2   6  13 -0.1274 1.56420   3
   1  -6 -13 14.1174 2.51393   2
  -1   6  13 11.9627 2.19175   4
  -1   6  13 18.3667 2.73397   3
   0  -6 -13 9.91275 2.39201   2
   0   6  13 8.64648 1.98868   3
   1   8 -14 -2.6568 1.54059   1
  -1  -8  14 0.83579 1.62430   2
  -1  -8  14 0.28849 1.45237   5
   0   8 -14 21.7507 2.81891   1
   0  -8  14 17.3904 2.71551   5
  -1   8 -14 1.11813 1.34438   1
   1  -8  14 0.66548 1.73036   5
   2  -8  14 8.43618 2.33769   1
   2  -8  14 5.57695 1.91188   5
   3  -8  14 0.48828 1.95342   1
  -4   8 -14 0.10638 1.78427   3
   4  -8  14 -1.0696 1.92791   1
   3   7 -14 1.09984 1.87574   1
  -3  -7  14 -0.3458 1.70261   2
  -3  -7  14 1.48449 1.97456   5
   2   7 -14 -0.6640 1.25589   1
  -2  -7  14 -0.9238 1.43699   2
  -2  -7  14 0.84911 1.83126   5
   1   7 -14 3.80498 1.74172   1
  -1  -7  14 2.70090 1.80957   5
  -1  -7  14 1.83480 1.50564   2
   0   7 -14 7.09675 1.93296   1
   0  -7  14 5.13158 1.51786   2
   0  -7  14 5.60843 1.89857   5
   1  -7  14 0.81071 1.50283   5
   2  -7  14 0.66982 1.68287   1
   2  -7  14 -0.9126 1.51109   5
   3  -7  14 2.13216 1.44500   1
  -4   7 -14 10.4016 2.19239   3
   4  -7  14 10.2892 2.34117   1
  -5   7 -14 1.38779 2.00823   3
   5  -7  14 0.83586 1.96915   1
   4   6 -14 1.44835 1.80634   1
  -4  -6  14 0.90136 1.50950   5
  -4  -6  14 -0.0493 1.71432   2
   3   6 -14 7.91658 1.84838   1
  -3  -6  14 7.52436 1.74413   2
  -3  -6  14 6.76799 2.07117   5
   2   6 -14 2.49063 1.67829   1
  -2  -6  14 3.61315 1.28549   2
  -2  -6  14 2.43455 1.68429   5
   1   6 -14 -0.9753 1.32459   1
  -1  -6  14 1.22003 1.30093   2
  -1  -6  14 0.11842 1.47488   5
   0   6 -14 -0.4121 1.29151   1
   0  -6  14 1.11136 1.16824   2
   0  -6  14 -0.7905 1.23982   5
   1  -6  14 -0.1975 1.31863   1
   1  -6  14 0.28050 1.29693   5
   2  -6  14 25.9095 2.57126   1
  -3   6 -14 9.15957 1.83098   3
   3  -6  14 10.9981 2.08271   1
  -4   6 -14 2.26936 1.66343   3
   4  -6  14 -1.8746 1.45321   1
  -5   6 -14 0.60421 1.85372   3
   5  -6  14 3.47390 1.91266   1
   5   5 -14 9.58028 2.37845   1
  -5  -5  14 5.78189 2.20066   5
  -5  -5  14 9.52610 2.26314   2
   4   5 -14 37.9982 3.38534   1
  -4  -5  14 34.7714 3.13282   2
  -4  -5  14 30.5775 3.04660   5
   3   5 -14 0.41032 1.42393   1
  -3  -5  14 2.09390 1.20848   2
  -3  -5  14 1.64238 1.70306   5
   2   5 -14 18.3540 2.27325   1
  -2  -5  14 15.1791 2.05333   2
  -2  -5  14 15.7828 2.31509   5
   1   5 -14 6.28564 1.43391   1
  -1  -5  14 6.28476 1.52588   2
  -1  -5  14 9.64903 1.69482   5
   0   5 -14 0.98140 1.22360   1
   0  -5  14 1.65451 1.09349   2
   0  -5  14 1.98713 1.29471   5
   1  -5  14 5.12237 1.42332   5
   1  -5  14 4.52296 1.28531   2
   1  -5  14 4.82000 1.43110   1
  -2   5 -14 8.06498 1.51345   3
   2  -5  14 10.1191 1.76210   1
  -3   5 -14 -0.6569 1.19463   3
   3  -5  14 0.38113 1.24191   1
  -4   5 -14 4.44692 1.48300   3
   4  -5  14 3.71354 1.58730   1
  -5   5 -14 12.9877 2.32508   3
   5  -5  14 14.9989 2.45972   1
  -6   5 -14 0.70768 1.41928   3
   6  -5  14 1.86521 1.89475   1
   6   4 -14 12.5936 2.66281   1
  -6  -4  14 11.9843 2.48835   2
  -6  -4  14 8.48849 2.34681   5
   5   4 -14 0.85327 1.61970   1
  -5  -4  14 1.64081 1.35105   5
  -5  -4  14 2.29367 1.72557   2
   4   4 -14 6.47490 1.77350   1
  -4  -4  14 1.67678 1.77571   5
  -4  -4  14 6.49485 1.81155   2
   3   4 -14 0.12257 1.28128   1
  -3  -4  14 -1.5439 1.19805   2
  -3  -4  14 -2.7291 1.20583   5
   2   4 -14 12.6063 1.81107   1
  -2  -4  14 10.3471 1.89675   5
  -2  -4  14 11.8986 1.81692   2
   1   4 -14 0.06999 0.98799   1
  -1  -4  14 -0.1441 1.24407   5
  -1  -4  14 -1.3526 0.96080   2
   0   4 -14 11.2122 1.66997   1
   0  -4  14 10.1280 1.69809   5
   0  -4  14 8.74235 1.45242   2
   1  -4  14 0.52406 0.90166   3
   1  -4  14 -0.2997 0.96197   5
   1  -4  14 2.01885 1.07683   1
   1  -4  14 0.61919 0.91378   2
   2  -4  14 11.0860 1.60064   3
   2  -4  14 17.1062 1.89943   1
   3  -4  14 14.0979 1.87297   1
  -4   4 -14 12.2269 2.09173   3
   4  -4  14 12.8388 1.94488   1
  -5   4 -14 19.4739 2.55125   3
   5  -4  14 16.7202 2.34530   1
  -6   4 -14 1.44367 1.44955   3
   6   3 -14 4.57791 2.03757   1
  -6  -3  14 5.85349 2.16092   5
  -6  -3  14 6.30176 1.92518   2
   5   3 -14 11.5952 2.06521   1
  -5  -3  14 8.35834 2.04264   5
  -5  -3  14 8.65713 1.93757   2
   4   3 -14 9.75142 1.84124   1
  -4  -3  14 7.71888 1.72891   2
  -4  -3  14 5.80816 1.84858   5
   3   3 -14 2.36115 1.27016   1
  -3  -3  14 0.12682 1.22226   5
  -3  -3  14 3.47281 1.29417   2
   2   3 -14 4.21219 1.25491   1
  -2  -3  14 4.42798 1.11219   4
  -2  -3  14 4.91172 1.18920   2
  -2  -3  14 3.92877 1.43318   5
   1   3 -14 -0.2027 0.84436   1
  -1  -3  14 0.73194 0.88926   4
  -1  -3  14 1.24491 0.86281   2
  -1  -3  14 -2.9360 0.96358   5
   0   3 -14 46.7990 2.54870   1
   0  -3  14 39.0383 2.23510   4
   0  -3  14 42.1275 2.59299   5
   0  -3  14 39.9052 2.04593   3
   0  -3  14 44.7975 2.45817   2
   1  -3  14 29.6105 2.10789   4
   1  -3  14 30.9255 2.06955   2
   1  -3  14 33.6717 2.09990   1
   1  -3  14 28.2897 2.12196   5
   1  -3  14 28.1205 1.97001   3
   2  -3  14 77.9489 3.26435   1
   3  -3  14 33.1424 2.23697   3
   4  -3  14 8.67699 1.59316   3
   5  -3  14 7.81526 1.74666   3
  -6   3 -14 -0.3660 1.69209   3
   7   2 -14 -0.3098 1.88860   1
  -7  -2  14 1.05787 1.75211   2
   6   2 -14 6.55646 2.05057   1
  -6  -2  14 7.53567 1.96159   2
   5   2 -14 53.1459 3.30145   1
  -5  -2  14 57.1254 3.30964   4
  -5  -2  14 60.9423 3.49583   2
   4   2 -14 164.588 5.34779   1
  -4  -2  14 157.473 5.16832   4
  -4  -2  14 151.505 5.29732   2
   3   2 -14 9.35368 1.45721   1
  -3  -2  14 7.34220 1.50457   2
  -3  -2  14 9.89579 1.49945   4
  -3  -2  14 6.71289 1.65097   5
   2   2 -14 53.9372 2.54452   1
  -2  -2  14 48.2351 2.77564   5
  -2  -2  14 53.9604 2.66669   4
  -2  -2  14 53.3588 2.67717   2
   1   2 -14 58.1447 2.56023   1
  -1  -2  14 53.6109 2.26354   3
  -1  -2  14 52.8059 2.50314   4
   0  -2  14 37.3843 2.14176   2
   0  -2  14 36.7934 2.27069   4
   0  -2  14 37.3269 2.09099   3
  -1   2 -14 57.2732 2.70910   2
   1  -2  14 56.3798 2.70801   3
   1  -2  14 59.1056 2.92598   4
  -2   2 -14 10.3764 1.52280   2
   2  -2  14 9.12517 1.45655   3
   3  -2  14 3.75785 1.41845   3
   4  -2  14 -2.6778 1.19995   3
   5  -2  14 5.39125 1.52933   3
   6  -2  14 1.45236 1.99357   3
   7   1 -14 -1.6669 1.76758   1
  -7  -1  14 -0.8123 1.52954   2
  -7  -1  14 -0.6065 1.37822   4
   6   1 -14 12.3776 2.13380   1
  -6  -1  14 17.1244 2.32539   2
  -6  -1  14 13.4254 2.15739   4
   5   1 -14 19.9220 2.22944   1
  -5  -1  14 15.1194 2.05077   4
  -5  -1  14 19.5326 2.35860   2
   4   1 -14 21.2404 2.05258   1
  -4  -1  14 22.7616 2.31238   4
  -4  -1  14 23.7870 2.35052   2
  -3  -1  14 19.2053 1.93204   2
  -3  -1  14 21.9729 2.12796   4
  -2  -1  14 9.36994 1.58556   2
  -2  -1  14 13.1989 1.69876   4
  -1  -1  14 1.38654 1.02498   2
  -1  -1  14 -0.6022 0.92146   4
  -1  -1  14 -1.2712 0.77122   3
   0   1 -14 13.0455 1.63030   2
   0  -1  14 12.7787 1.57177   4
   0  -1  14 12.5124 1.57773   3
  -1   1 -14 94.9670 3.58965   2
   1  -1  14 92.4455 3.59396   3
   1  -1  14 91.0550 3.80257   4
  -2   1 -14 13.7589 1.65501   2
   2  -1  14 15.0421 1.84508   3
   3  -1  14 118.587 4.37010   3
   4  -1  14 2.90458 1.51520   3
  -7   0  14 0.40944 1.60426   4
  -7   0  14 0.71892 1.51083   2
  -6   0  14 11.8053 1.92380   4
  -6   0  14 17.2328 2.27258   2
  -5   0  14 10.1427 1.82713   4
  -5   0  14 7.91458 1.71781   2
  -4   0  14 72.1615 3.34698   4
  -3   0  14 59.4029 3.07077   2
  -3   0  14 57.5831 2.87742   4
  -2   0  14 344.846 8.56008   2
  -2   0  14 313.831 8.44921   4
  -2   0  14 354.425 8.03839   3
   1   0 -14 388.867 9.46737   2
  -1   0  14 384.712 9.62030   4
  -1   0  14 402.941 9.14835   3
   0   0 -14 94.6539 3.71174   2
   0   0  14 93.6714 3.61100   3
   0   0  14 90.4223 3.64114   4
  -1   0 -14 279.802 7.35064   2
   1   0  14 275.217 7.26028   3
   1   0  14 282.598 7.74532   4
  -2   0 -14 2.67783 1.23295   2
   2   0  14 2.10039 1.04368   3
  -3   0 -14 20.2701 2.04744   2
   3   0  14 24.4164 2.36048   3
   4   0  14 1.83162 1.64130   3
   5   0  14 -0.0889 1.71826   3
  -7   1  14 1.71428 1.70289   4
  -7   1  14 1.46741 1.51185   2
  -6   1  14 32.5688 3.09731   4
  -6   1  14 45.4481 3.12610   2
  -5   1  14 10.6442 1.97739   4
  -5   1  14 8.75372 1.77349   2
  -4   1  14 25.1115 2.51814   4
  -4   1  14 29.1368 2.22004   2
   3  -1 -14 178.334 5.61486   2
  -3   1  14 172.340 5.64832   4
  -3   1  14 178.109 5.12044   3
   2  -1 -14 12.0361 1.56398   2
  -2   1  14 12.5680 1.83239   4
  -2   1  14 12.6998 1.58390   3
   1  -1 -14 160.642 5.22418   2
  -1   1  14 163.325 5.04008   3
  -1   1  14 163.469 5.33693   4
   0  -1 -14 32.4844 2.19493   2
   0   1  14 35.0550 2.46279   3
   0   1  14 36.8727 2.58288   4
  -1  -1 -14 13.0828 1.80433   2
   1   1  14 11.9906 1.86648   4
   1   1  14 14.2983 1.78693   3
  -2  -1 -14 1.06383 1.18681   2
   2   1  14 2.06660 1.37951   3
  -3  -1 -14 5.37681 1.52359   2
   3   1  14 6.67861 1.55961   3
   4   1  14 -1.1508 1.53630   3
  -7   2  14 3.35412 1.89368   4
  -6   2  14 6.87105 1.97494   4
   5  -2 -14 6.76370 1.66423   2
  -5   2  14 9.01019 1.93071   4
   4  -2 -14 37.0619 2.73323   2
  -4   2  14 35.1622 2.53176   4
  -4   2  14 34.0302 2.34185   3
   3  -2 -14 8.65187 1.63302   2
  -3   2  14 8.77082 1.55287   4
  -3   2  14 7.43672 1.40620   3
   2  -2 -14 13.5245 1.91252   2
  -2   2  14 15.4178 1.74768   3
  -2   2  14 15.9516 2.01323   4
   1  -2 -14 22.0415 2.21096   2
  -1   2  14 20.1139 2.23357   4
  -1   2  14 17.3090 2.03547   3
   0  -2 -14 44.0946 2.81443   2
   0   2  14 42.3695 2.61181   4
   0   2  14 42.8979 2.80850   3
  -1  -2 -14 3.31509 1.35689   2
   1   2  14 7.75855 1.48789   3
   1   2  14 2.81322 1.46381   4
  -2  -2 -14 3.16756 1.22751   2
   2   2  14 3.52048 1.50090   3
  -3  -2 -14 2.40809 1.48123   2
   3   2  14 0.22364 1.64738   3
   4   2  14 0.18862 1.28338   3
  -7   3  14 1.81604 1.41906   4
   6  -3 -14 6.15051 1.78451   2
  -6   3  14 5.29209 1.61907   4
   5  -3 -14 0.07700 1.26957   2
  -5   3  14 -1.9380 1.01150   3
  -5   3  14 2.22836 1.22098   4
   4  -3 -14 21.0382 2.22181   2
  -4   3  14 21.5203 2.51219   4
  -4   3  14 21.4763 2.25409   3
   3  -3 -14 178.655 5.90712   2
  -3   3  14 177.662 5.70663   3
   2  -3 -14 4.22504 1.49694   2
  -2   3  14 3.08133 1.18025   4
  -2   3  14 1.17126 1.23555   3
   1  -3 -14 46.0759 3.03066   2
  -1   3  14 58.5936 3.24865   3
  -1   3  14 47.9054 2.86662   4
   0  -3 -14 26.0614 2.58647   2
   0   3  14 26.3990 2.55704   4
   0   3  14 23.3322 2.50249   3
  -1  -3 -14 7.35998 1.75835   2
   1   3  14 4.19666 1.62298   4
   1   3  14 7.97157 1.65744   3
  -2  -3 -14 58.4061 3.60241   2
   2   3  14 67.9296 3.86895   3
  -3  -3 -14 0.85081 1.53841   2
   3   3  14 1.68517 1.86770   3
   6  -4 -14 9.41746 2.10003   2
  -6   4  14 10.0316 2.26872   4
   5  -4 -14 8.03615 1.85113   2
  -5   4  14 6.07885 1.92683   4
  -5   4  14 7.02750 1.53717   3
   4  -4 -14 3.25417 1.56494   2
  -4   4  14 6.94148 1.56041   4
  -4   4  14 6.28622 1.66228   3
   3  -4 -14 15.6147 2.24629   2
  -3   4  14 15.6308 2.23740   4
  -3   4  14 15.7335 2.05191   3
   2  -4 -14 44.9307 2.90687   2
  -2   4  14 40.3608 2.75392   3
  -2   4  14 45.3410 3.08991   4
   1  -4 -14 17.4231 2.21021   2
  -1   4  14 22.8292 2.54682   4
  -1   4  14 17.2391 2.19870   3
   0  -4 -14 10.3001 2.10893   2
   0   4  14 7.32623 1.79935   4
   0   4  14 7.65105 1.92474   3
  -1  -4 -14 15.5091 2.38822   2
   1   4  14 16.6908 2.43061   4
   1   4  14 17.1496 2.36042   3
  -2  -4 -14 1.73960 1.69392   2
   2   4  14 0.73641 1.72561   3
  -6   5  14 3.20139 1.97248   4
  -6   5  14 2.73320 1.75853   3
   5  -5 -14 57.9610 3.68260   2
  -5   5  14 55.3724 3.37502   3
  -5   5  14 56.5028 3.89119   4
   4  -5 -14 1.19383 1.57841   2
  -4   5  14 0.58137 1.51256   3
  -4   5  14 2.41567 1.64598   4
   3  -5 -14 20.3985 2.61911   2
  -3   5  14 16.0660 2.44943   3
  -3   5  14 22.7299 2.69175   4
   2  -5 -14 6.13081 1.65264   2
  -2   5  14 8.04303 2.00298   3
  -2   5  14 5.66481 1.79860   4
   1  -5 -14 14.5696 2.46213   2
  -1   5  14 15.2823 2.32465   4
  -1   5  14 17.7912 2.62129   3
   0  -5 -14 37.1159 3.45401   2
   0   5  14 35.8309 3.25373   4
   0   5  14 32.9069 3.32700   3
  -1  -5 -14 -0.4263 1.28637   2
   1   5  14 -0.8782 1.77890   3
   4  -6 -14 10.3109 2.22586   2
  -4   6  14 14.0879 2.53632   3
  -4   6  14 11.6421 2.36453   4
   3  -6 -14 8.30295 2.11794   2
  -3   6  14 8.59217 2.13592   4
  -3   6  14 10.8180 2.15650   3
   2  -6 -14 3.65603 1.65428   2
  -2   6  14 5.11669 1.87421   4
  -2   6  14 7.49949 1.91935   3
   1   8 -15 4.46908 2.14830   1
  -1  -8  15 5.18618 2.31537   5
  -1  -8  15 4.92678 1.92775   2
   0   8 -15 49.2627 3.86953   1
   0  -8  15 53.8690 4.05386   5
  -1   8 -15 2.49470 1.87601   1
   1  -8  15 1.10077 1.80934   5
   2  -8  15 4.68029 2.14392   1
   3  -8  15 1.09493 2.07057   1
   3   7 -15 -0.3845 1.84993   1
  -3  -7  15 -1.0831 1.72706   2
  -3  -7  15 -3.8629 1.75383   5
   2   7 -15 3.21957 1.97059   1
  -2  -7  15 2.70312 1.60431   5
  -2  -7  15 1.26493 1.65113   2
   1   7 -15 17.3024 2.61221   1
  -1  -7  15 13.0385 2.46051   5
  -1  -7  15 15.2801 2.28360   2
   0   7 -15 39.1165 3.42251   1
   0  -7  15 45.7337 3.54506   5
  -1   7 -15 1.77627 1.39583   1
   1  -7  15 3.46229 1.73746   5
   2  -7  15 1.67468 1.80386   1
   3  -7  15 0.66815 1.74150   1
  -4   7 -15 -0.5051 1.70789   3
   4  -7  15 -0.0720 1.88828   1
   4   6 -15 0.17090 1.92826   1
  -4  -6  15 3.33265 2.20547   5
  -4  -6  15 2.83888 1.96021   2
   3   6 -15 15.4702 2.58907   1
  -3  -6  15 13.9967 2.36683   5
  -3  -6  15 13.1547 2.11391   2
   2   6 -15 11.9033 2.29030   1
  -2  -6  15 10.4499 2.03939   2
  -2  -6  15 9.16158 2.16566   5
   1   6 -15 0.36050 1.11271   1
  -1  -6  15 0.42149 1.29328   2
  -1  -6  15 0.35357 1.46324   5
   0   6 -15 15.0864 2.24533   1
   0  -6  15 15.0810 2.06360   5
   0  -6  15 9.41932 1.68112   2
   1  -6  15 1.58956 1.45390   1
   1  -6  15 -0.7765 1.26734   5
   2  -6  15 9.77576 2.02253   1
  -3   6 -15 1.58941 1.57708   3
   3  -6  15 1.07612 1.56613   1
  -4   6 -15 5.75621 2.01594   3
   4  -6  15 6.57918 2.09424   1
  -5   6 -15 2.88620 1.60938   3
   5  -6  15 3.53526 2.11588   1
   5   5 -15 14.4041 2.66492   1
  -5  -5  15 18.0520 2.69187   5
  -5  -5  15 13.8454 2.36168   2
   4   5 -15 34.6810 3.32854   1
  -4  -5  15 32.5199 3.16399   2
  -4  -5  15 34.5081 3.54631   5
   3   5 -15 6.04346 1.84947   1
  -3  -5  15 5.36122 1.95782   5
  -3  -5  15 2.95434 1.28334   2
   2   5 -15 4.76516 1.67331   1
  -2  -5  15 2.81314 1.76937   5
  -2  -5  15 4.59047 1.62215   2
   1   5 -15 4.94982 1.52617   1
  -1  -5  15 5.40674 1.50111   2
  -1  -5  15 5.99927 1.75755   5
   0   5 -15 2.15412 1.40785   1
   0  -5  15 5.46487 1.60530   5
   0  -5  15 4.64590 1.34414   2
   1  -5  15 0.55126 1.21982   5
   1  -5  15 0.64563 1.17498   1
  -2   5 -15 -0.9799 1.12898   3
   2  -5  15 1.96985 1.38091   1
  -3   5 -15 3.46620 1.50768   3
   3  -5  15 6.71631 1.70500   1
  -4   5 -15 0.43428 1.57309   3
   4  -5  15 0.64163 1.52023   1
  -5   5 -15 -1.8833 1.63162   3
   5  -5  15 1.00390 1.75199   1
   5   4 -15 0.99190 1.70415   1
  -5  -4  15 1.88435 1.35182   2
  -5  -4  15 -0.9996 1.67879   5
   4   4 -15 11.1676 2.02755   1
  -4  -4  15 10.3893 2.15355   2
  -4  -4  15 9.10918 1.90609   5
   3   4 -15 0.64680 1.01729   1
  -3  -4  15 -1.4535 1.00964   5
  -3  -4  15 1.31500 1.41209   2
   2   4 -15 4.47271 1.24784   1
  -2  -4  15 4.67074 1.67866   5
  -2  -4  15 4.73695 1.52826   2
   1   4 -15 26.1759 2.35089   1
  -1  -4  15 24.4314 2.19936   2
  -1  -4  15 29.0206 2.68952   5
   0   4 -15 9.21235 1.77687   1
   0  -4  15 12.0549 1.64310   2
   0  -4  15 11.0843 1.76684   5
   1  -4  15 1.04851 1.03073   2
   1  -4  15 0.26433 1.03708   1
   1  -4  15 -0.2421 0.90956   3
   1  -4  15 0.42812 1.13360   5
   2  -4  15 3.04856 1.33453   1
   2  -4  15 1.17713 1.17652   3
   3  -4  15 3.54130 1.40166   1
   3  -4  15 3.58882 1.21985   3
  -4   4 -15 2.05546 1.63310   3
  -5   4 -15 0.43808 1.24269   3
   6   3 -15 1.99341 1.81190   1
  -6  -3  15 0.09243 1.63697   2
   5   3 -15 0.32555 1.49293   1
  -5  -3  15 -1.5006 1.43665   2
  -5  -3  15 1.29878 1.72293   5
   4   3 -15 1.38398 1.52327   1
  -4  -3  15 -0.1610 1.37111   2
  -4  -3  15 -0.5071 1.09044   5
   3   3 -15 24.8198 2.34822   1
  -3  -3  15 17.5481 2.34707   5
  -3  -3  15 20.6628 2.29398   2
   2   3 -15 1.57964 1.16476   1
  -2  -3  15 3.81202 1.18121   2
  -2  -3  15 2.99779 1.23275   4
  -2  -3  15 3.30928 1.45598   5
   1   3 -15 78.9697 3.25127   1
  -1  -3  15 79.8179 3.33236   2
  -1  -3  15 77.9204 3.69782   5
  -1  -3  15 71.5286 3.12424   4
   0   3 -15 12.5219 1.66878   1
   0  -3  15 13.6576 1.69709   2
   0  -3  15 14.1017 1.66574   4
   0  -3  15 17.2226 2.01099   5
   0  -3  15 12.7290 1.49398   3
   1  -3  15 15.6691 1.68158   3
   1  -3  15 15.9894 1.86765   4
   1  -3  15 14.1582 1.64925   2
   2  -3  15 4.24350 1.31192   3
   3  -3  15 2.16925 1.07309   3
   4  -3  15 8.04862 1.84701   3
   5  -3  15 -1.0735 1.62458   3
   6   2 -15 22.5800 2.83025   1
  -6  -2  15 23.5127 2.66815   2
   5   2 -15 3.92452 1.65127   1
  -5  -2  15 4.27787 1.55218   4
  -5  -2  15 1.92354 1.54453   2
   4   2 -15 35.7713 2.60582   1
  -4  -2  15 37.5844 2.67163   4
  -4  -2  15 38.8228 2.90378   2
   3   2 -15 2.96795 1.17047   1
  -3  -2  15 1.03625 1.25921   2
  -3  -2  15 1.54367 1.13396   4
  -2  -2  15 58.3691 2.92001   4
  -2  -2  15 63.1460 3.01371   2
  -1  -2  15 10.7107 1.60031   4
  -1  -2  15 12.4405 1.72881   2
   0  -2  15 40.1808 2.27141   3
   0  -2  15 48.2470 2.66748   4
   0  -2  15 45.1793 2.63224   2
  -1   2 -15 199.390 5.68246   2
   1  -2  15 195.476 5.85849   4
   1  -2  15 189.062 5.47103   3
  -2   2 -15 52.5214 2.74852   2
   2  -2  15 58.1166 2.83945   3
   3  -2  15 0.65453 1.27884   3
   4  -2  15 6.32614 1.83507   3
   5  -2  15 6.24654 1.70695   3
  -7  -1  15 -2.5966 1.39699   4
  -7  -1  15 0.13124 1.30250   2
  -6  -1  15 -0.8497 1.34415   4
  -6  -1  15 2.31230 1.64983   2
  -5  -1  15 18.4753 2.34022   4
  -5  -1  15 21.6723 2.39153   2
  -4  -1  15 0.96515 1.20734   4
  -4  -1  15 1.77914 1.38537   2
  -3  -1  15 -0.8737 0.99390   2
  -3  -1  15 0.72157 1.10350   4
  -2  -1  15 22.8164 2.19932   4
  -2  -1  15 19.2387 2.03698   2
  -1  -1  15 3.67560 1.10964   3
  -1  -1  15 4.23034 1.14990   2
  -1  -1  15 3.16620 1.26106   4
   0   1 -15 62.7170 3.06537   2
   0  -1  15 58.7888 2.85295   3
   0  -1  15 59.0335 3.05323   4
  -1   1 -15 -1.1981 0.93486   2
   1  -1  15 1.42315 1.00833   4
   1  -1  15 -0.6314 0.98287   3
  -2   1 -15 76.2383 3.49773   2
   2  -1  15 79.4153 3.62123   3
   3  -1  15 74.7599 3.53616   3
   4  -1  15 0.85156 1.56699   3
  -7   0  15 -0.1879 1.59810   2
  -7   0  15 2.49575 1.75284   4
  -6   0  15 0.39292 1.14389   2
  -6   0  15 0.96307 1.19099   4
  -5   0  15 0.55655 1.31966   4
  -5   0  15 -0.9086 1.25352   2
  -4   0  15 6.06504 1.61413   2
  -4   0  15 7.81358 1.66183   4
  -3   0  15 2.85764 1.07997   2
  -3   0  15 1.77532 1.20272   4
   2   0 -15 18.4964 2.03599   2
  -2   0  15 20.4800 1.93572   3
  -2   0  15 21.9362 2.22870   4
   1   0 -15 5.52378 1.42139   2
  -1   0  15 6.12942 1.52756   4
  -1   0  15 3.90878 1.16759   3
   0   0 -15 32.7322 2.22057   2
   0   0  15 38.6474 2.46480   3
   0   0  15 29.4016 2.59810   4
  -1   0 -15 73.6382 3.40288   2
   1   0  15 69.1686 3.37399   4
   1   0  15 68.8401 3.37766   3
  -2   0 -15 1.15300 1.10031   2
   2   0  15 0.16653 1.22282   3
  -3   0 -15 54.5413 3.06739   2
   3   0  15 53.0871 3.40592   3
   4   0  15 9.72958 2.20561   3
  -7   1  15 13.6804 2.54867   4
  -7   1  15 10.5708 2.16995   2
  -6   1  15 10.8971 2.20686   4
  -6   1  15 12.7903 2.17064   2
  -5   1  15 102.937 4.62804   4
  -4   1  15 -0.0984 1.22080   4
   3  -1 -15 33.9257 2.67662   2
  -3   1  15 40.2893 2.55684   3
  -3   1  15 41.9800 2.86329   4
   2  -1 -15 2.70828 1.05729   2
  -2   1  15 -0.6317 0.73854   4
  -2   1  15 -0.6589 0.94389   3
   1  -1 -15 2.52658 1.24175   2
  -1   1  15 2.41122 1.02649   4
  -1   1  15 3.80345 1.29533   3
   0  -1 -15 15.4558 1.99206   2
   0   1  15 11.9087 1.77135   4
   0   1  15 15.4032 1.95313   3
  -1  -1 -15 21.6367 2.27714   2
   1   1  15 15.2824 1.95682   3
   1   1  15 20.0018 2.26106   4
  -2  -1 -15 9.09902 1.71425   2
   2   1  15 6.28534 1.80394   3
  -3  -1 -15 -0.4477 1.21445   2
   3   1  15 -0.3064 1.47946   3
   4   1  15 -2.2821 1.62459   3
  -7   2  15 13.3212 2.54327   4
   6  -2 -15 -0.4899 1.51222   2
  -6   2  15 -1.9606 1.42208   4
   5  -2 -15 55.5151 3.45333   2
  -5   2  15 52.6935 3.55479   4
   4  -2 -15 1.14375 1.12676   2
  -4   2  15 4.90277 1.67166   4
  -4   2  15 2.36186 1.16286   3
   3  -2 -15 47.6108 3.22141   2
  -3   2  15 58.2443 3.38061   4
  -3   2  15 55.4309 2.99011   3
   2  -2 -15 32.4639 2.81029   2
  -2   2  15 37.8755 2.53054   4
  -2   2  15 32.6299 2.55259   3
   1  -2 -15 4.84091 1.30147   2
  -1   2  15 1.35532 1.30743   3
  -1   2  15 1.57334 1.39102   4
   0  -2 -15 35.4653 2.76393   2
   0   2  15 30.5077 2.82465   4
   0   2  15 35.2171 2.93800   3
  -1  -2 -15 33.5926 2.88833   2
   1   2  15 36.7672 2.95896   4
   1   2  15 35.0107 2.56242   3
  -2  -2 -15 3.80242 1.46045   2
   2   2  15 2.96562 1.72388   3
  -3  -2 -15 0.15274 1.41768   2
   3   2  15 -2.1591 1.10149   3
   6  -3 -15 2.50331 1.67841   2
  -6   3  15 2.62451 1.47036   4
   5  -3 -15 18.9835 2.46829   2
  -5   3  15 24.1041 2.83132   4
   4  -3 -15 -0.0704 1.38475   2
  -4   3  15 0.42446 1.20495   3
  -4   3  15 1.65916 1.09501   4
   3  -3 -15 2.87526 1.52993   2
  -3   3  15 -0.1952 1.24475   3
  -3   3  15 2.64991 1.21407   4
   2  -3 -15 0.76071 1.05954   2
  -2   3  15 -0.9774 1.18787   3
  -2   3  15 -0.0875 1.21588   4
   1  -3 -15 7.09027 1.69676   2
  -1   3  15 5.32183 1.67843   3
  -1   3  15 6.50721 1.52113   4
   0  -3 -15 3.92986 1.57127   2
   0   3  15 4.70047 1.40478   4
   0   3  15 -0.1385 1.45153   3
  -1  -3 -15 2.54387 1.53542   2
   1   3  15 -0.2166 1.46603   4
   1   3  15 -0.5450 1.05376   3
  -2  -3 -15 9.12068 2.01649   2
   2   3  15 9.71150 2.24203   3
   6  -4 -15 5.97788 2.01020   2
  -6   4  15 9.71277 2.38386   4
   5  -4 -15 -0.3641 1.57024   2
  -5   4  15 1.80289 1.15955   3
  -5   4  15 -0.0657 1.58615   4
   4  -4 -15 73.2004 4.08776   2
  -4   4  15 76.3314 3.98174   3
  -4   4  15 85.4398 4.37628   4
   3  -4 -15 51.2623 3.52893   2
  -3   4  15 50.7334 3.46716   4
  -3   4  15 51.4318 3.38404   3
   2  -4 -15 22.0074 2.71364   2
  -2   4  15 22.5734 2.66696   3
  -2   4  15 22.9877 2.55084   4
   1  -4 -15 12.2856 2.20078   2
  -1   4  15 9.88334 2.04564   4
  -1   4  15 12.7901 2.28691   3
   0  -4 -15 -1.8545 1.38493   2
   0   4  15 -1.7274 1.33309   4
   0   4  15 -1.4251 1.58390   3
  -1  -4 -15 2.84429 1.75240   2
   1   4  15 4.65897 1.86121   4
   1   4  15 2.19110 1.46090   3
   5  -5 -15 9.14516 2.20600   2
  -5   5  15 7.89850 2.07785   3
  -5   5  15 8.71993 2.28799   4
   4  -5 -15 0.52251 1.67629   2
  -4   5  15 0.35856 1.65611   4
  -4   5  15 -0.2929 1.18010   3
   3  -5 -15 1.54502 1.80511   2
  -3   5  15 5.73412 1.94044   3
  -3   5  15 4.83750 1.84476   4
   2  -5 -15 12.7430 2.49339   2
  -2   5  15 17.5899 2.56963   4
  -2   5  15 17.4056 2.67893   3
   1  -5 -15 -1.1004 1.27363   2
  -1   5  15 -1.1821 1.47894   4
  -1   5  15 -1.8214 1.66071   3
   0  -5 -15 10.4159 2.34536   2
   0   5  15 11.1461 2.40187   4
   0   5  15 8.32027 2.40181   3
   0   8 -16 2.27209 1.62359   1
   0  -8  16 0.27113 1.96632   5
  -1   8 -16 0.88123 1.90459   1
   1  -8  16 1.28276 1.87281   5
   2  -8  16 0.12346 1.92489   1
   2   7 -16 3.22822 2.08245   1
  -2  -7  16 4.03486 1.89736   2
  -2  -7  16 3.50561 2.11529   5
   1   7 -16 1.50827 1.72246   1
  -1  -7  16 1.64572 1.55101   2
  -1  -7  16 2.63837 1.58233   5
   0   7 -16 1.77919 1.71690   1
   0  -7  16 1.74071 1.77981   5
  -1   7 -16 0.42768 1.65273   1
   1  -7  16 0.67094 1.64797   5
   2  -7  16 0.54959 1.76117   1
   3  -7  16 -0.1417 1.76200   1
  -4   7 -16 1.89522 2.02818   3
   4  -7  16 8.88966 2.47916   1
   3   6 -16 9.80564 2.35953   1
  -3  -6  16 6.84774 2.28561   5
  -3  -6  16 9.42676 2.17853   2
   2   6 -16 2.15869 1.41483   1
  -2  -6  16 1.66148 1.54478   2
  -2  -6  16 -1.0052 1.70695   5
   1   6 -16 12.4226 2.21531   1
  -1  -6  16 10.1786 2.23051   5
  -1  -6  16 12.3276 2.00427   2
   0   6 -16 3.24299 1.63938   1
   0  -6  16 -0.4751 1.57528   5
   0  -6  16 1.48501 1.28673   2
   1  -6  16 -0.2293 1.39301   5
   2  -6  16 24.7395 2.80989   1
  -3   6 -16 18.1306 2.37750   3
   3  -6  16 22.2184 2.69109   1
  -4   6 -16 0.96643 1.39050   3
   4  -6  16 -0.3704 1.77897   1
   4   5 -16 4.08120 1.95921   1
  -4  -5  16 3.76343 1.57282   2
  -4  -5  16 5.17227 2.18369   5
   3   5 -16 0.81352 1.56982   1
  -3  -5  16 1.31331 1.22984   2
  -3  -5  16 1.50531 1.85791   5
   2   5 -16 1.36611 1.16384   1
  -2  -5  16 1.84368 1.39309   2
  -2  -5  16 0.61050 1.29928   5
   1   5 -16 5.55696 1.63662   1
  -1  -5  16 4.30444 1.78322   5
  -1  -5  16 5.71557 1.59548   2
   0   5 -16 -1.0377 1.16956   1
   0  -5  16 0.58887 1.16764   2
   0  -5  16 -0.1441 1.33135   5
   1  -5  16 1.86867 1.34730   1
   1  -5  16 1.13758 1.35019   5
  -2   5 -16 -1.2708 1.16023   3
   2  -5  16 0.83264 1.35167   1
  -3   5 -16 -0.3116 1.36930   3
   3  -5  16 1.83733 1.53306   1
  -4   5 -16 1.20216 1.65882   3
   4  -5  16 1.61729 1.67419   1
  -5   5 -16 0.89174 1.64065   3
   5   4 -16 -0.3209 1.60856   1
  -5  -4  16 0.87527 1.77917   2
  -5  -4  16 1.81147 2.04362   5
   4   4 -16 1.86796 1.62982   1
  -4  -4  16 2.85698 1.89187   5
  -4  -4  16 6.64136 1.97569   2
   3   4 -16 2.38501 1.46775   1
  -3  -4  16 -2.1638 1.45421   5
  -3  -4  16 0.39423 1.41750   2
   2   4 -16 -0.4015 1.27895   1
  -2  -4  16 1.17047 1.38054   2
  -2  -4  16 -1.7696 1.28252   5
   1   4 -16 8.51518 1.68932   1
  -1  -4  16 8.15835 1.82861   5
  -1  -4  16 8.21699 1.67032   2
   0   4 -16 2.04711 1.43090   1
   0  -4  16 2.38652 1.36624   5
   0  -4  16 0.54102 1.12941   2
   1  -4  16 36.5870 2.53010   1
   1  -4  16 35.7005 2.43018   2
   2  -4  16 -0.9688 1.10674   3
   3  -4  16 3.55438 1.60895   3
  -4   4 -16 9.53684 1.84723   3
  -5   4 -16 8.52066 2.25627   3
   5   3 -16 0.54292 1.62735   1
  -5  -3  16 4.06927 1.80634   2
   4   3 -16 1.70442 1.44868   1
  -4  -3  16 1.00863 1.18741   2
  -4  -3  16 0.10858 1.55832   5
   3   3 -16 7.10886 1.67448   1
  -3  -3  16 7.76280 1.94504   5
  -3  -3  16 5.29104 1.63192   2
   2   3 -16 56.4647 2.97672   1
  -2  -3  16 55.0348 3.44928   5
  -2  -3  16 52.5954 3.18459   2
  -2  -3  16 52.8904 2.82558   4
  -1  -3  16 0.86245 1.07705   4
  -1  -3  16 0.45418 1.25144   5
  -1  -3  16 -0.8533 1.08593   2
   0  -3  16 56.2730 2.94676   4
  -1   3 -16 12.7825 1.74394   2
   1  -3  16 14.9495 1.75510   3
   1  -3  16 15.8100 1.97419   4
   2  -3  16 1.87128 1.26658   3
   3  -3  16 10.3578 1.87535   3
   4  -3  16 0.84686 1.50934   3
   5  -3  16 0.03229 1.81575   3
  -6  -2  16 3.57161 1.92704   2
  -5  -2  16 5.05220 1.79160   2
  -4  -2  16 16.1510 2.09511   4
  -4  -2  16 14.3554 2.14471   2
  -3  -2  16 -0.5455 1.11722   4
  -3  -2  16 -1.2704 1.16213   2
  -2  -2  16 4.73169 1.36924   4
  -2  -2  16 6.95195 1.53156   2
  -1  -2  16 4.66813 1.21927   2
  -1  -2  16 4.78067 1.35988   4
   0   2 -16 0.66861 1.08552   2
   0  -2  16 0.21191 0.97117   3
   0  -2  16 -0.5649 1.04583   4
  -1   2 -16 2.61328 1.20243   2
   1  -2  16 3.73356 1.29190   3
   1  -2  16 5.58580 1.50152   4
  -2   2 -16 33.3517 2.42794   2
   2  -2  16 32.9441 2.58698   3
   3  -2  16 4.51237 1.66526   3
   4  -2  16 5.53174 1.91848   3
   5  -2  16 8.81080 1.96823   3
  -6  -1  16 1.97455 1.66620   4
  -6  -1  16 -0.1659 1.51266   2
  -5  -1  16 13.5456 2.20944   2
  -5  -1  16 11.1882 2.05055   4
  -4  -1  16 11.5819 1.82993   2
  -4  -1  16 11.7406 1.96855   4
  -3  -1  16 15.5482 2.08830   4
  -3  -1  16 13.8050 1.97716   2
  -2  -1  16 -0.3891 1.15216   2
  -2  -1  16 1.26385 1.17301   4
   1   1 -16 24.4564 2.35245   2
  -1  -1  16 33.4362 2.19742   3
  -1  -1  16 30.2906 2.61292   4
   0   1 -16 31.2145 2.46894   2
   0  -1  16 30.3508 2.05936   3
   0  -1  16 26.6411 2.46735   4
  -1   1 -16 16.2481 2.02916   2
   1  -1  16 16.4888 1.97956   3
   1  -1  16 17.6434 2.21218   4
  -2   1 -16 18.3543 2.06232   2
   2  -1  16 23.2015 2.41073   3
   3  -1  16 18.9913 2.50384   3
   4  -1  16 -0.0477 1.27214   3
  -6   0  16 7.01783 1.96571   2
  -6   0  16 7.87729 1.77767   4
  -5   0  16 56.7692 3.63569   2
  -5   0  16 68.1036 3.84403   4
  -4   0  16 0.71178 1.35770   2
  -4   0  16 -0.6800 1.20726   4
  -3   0  16 69.1453 3.60137   2
  -3   0  16 63.2926 3.47244   4
   2   0 -16 27.2606 2.49494   2
  -2   0  16 31.5944 2.30100   4
  -2   0  16 28.6521 2.19510   3
   1   0 -16 3.57630 1.39789   2
  -1   0  16 4.17896 1.30375   3
  -1   0  16 6.48389 1.64120   4
   0   0 -16 0.21424 1.16680   2
   0   0  16 1.09586 1.31470   4
   0   0  16 0.08471 1.14716   3
  -1   0 -16 8.25001 1.69458   2
   1   0  16 8.14360 1.83074   4
   1   0  16 8.23989 1.73530   3
  -2   0 -16 10.5584 1.77393   2
   2   0  16 8.58376 1.67398   3
   3   0  16 5.36134 1.54577   3
   4   0  16 -0.2192 1.70401   3
  -6   1  16 16.3017 2.42020   2
  -6   1  16 17.3772 2.63134   4
  -5   1  16 33.9664 2.76226   4
  -5   1  16 39.2904 3.29027   2
   4  -1 -16 8.24488 1.91442   2
  -4   1  16 8.87070 1.91562   4
   3  -1 -16 53.5962 3.09476   2
  -3   1  16 56.4419 3.16987   4
  -3   1  16 57.5324 2.95268   3
   2  -1 -16 -0.3103 1.15899   2
  -2   1  16 -0.3532 1.16115   4
  -2   1  16 1.04419 1.15622   3
   1  -1 -16 20.0325 2.29602   2
  -1   1  16 20.7140 2.29544   4
  -1   1  16 20.1386 2.07887   3
   0  -1 -16 3.40482 1.15970   2
   0   1  16 3.30044 1.44064   4
   0   1  16 2.14128 1.36402   3
  -1  -1 -16 -0.1917 1.18433   2
   1   1  16 -0.5051 1.27032   3
   1   1  16 0.43920 1.33088   4
  -2  -1 -16 15.2915 2.15432   2
   2   1  16 11.2713 1.94063   3
  -3  -1 -16 0.29426 1.39963   2
   3   1  16 4.28464 1.56100   3
   6  -2 -16 -0.2085 1.65030   2
  -6   2  16 2.17193 1.84492   4
   5  -2 -16 16.8568 2.43982   2
  -5   2  16 18.0844 2.36396   4
   4  -2 -16 5.30519 1.51260   2
  -4   2  16 4.62939 1.68741   4
   3  -2 -16 -0.1730 1.35567   2
  -3   2  16 2.09221 1.43723   3
  -3   2  16 1.65668 1.23731   4
   2  -2 -16 67.6615 3.73644   2
  -2   2  16 73.1603 3.79749   4
  -2   2  16 67.0148 3.29756   3
   1  -2 -16 11.9921 2.02664   2
  -1   2  16 11.3708 1.75433   3
  -1   2  16 9.53317 1.77684   4
   0  -2 -16 9.91030 1.73781   2
   0   2  16 10.8516 2.02778   4
   0   2  16 9.30052 1.71029   3
  -1  -2 -16 8.14474 1.70145   2
   1   2  16 11.8634 1.97390   3
   1   2  16 4.91164 1.84806   4
  -2  -2 -16 3.99066 1.64653   2
   2   2  16 4.06584 1.79869   3
  -3  -2 -16 -1.6647 1.47346   2
   3   2  16 1.10560 1.87365   3
   6  -3 -16 -0.3201 1.65435   2
  -6   3  16 0.36178 1.75504   4
   5  -3 -16 35.5683 3.28570   2
  -5   3  16 30.8373 3.23726   4
   4  -3 -16 20.5026 2.66595   2
  -4   3  16 15.0474 2.19853   3
  -4   3  16 18.7425 2.59446   4
   3  -3 -16 2.81458 1.67721   2
  -3   3  16 5.79754 1.75452   4
  -3   3  16 2.68346 1.24311   3
   2  -3 -16 24.0057 2.76085   2
  -2   3  16 25.7350 2.74517   3
  -2   3  16 26.1969 2.83232   4
   1  -3 -16 3.62877 1.66873   2
  -1   3  16 2.16856 1.26373   4
  -1   3  16 4.70294 1.75876   3
   0  -3 -16 75.9965 4.07111   2
   0   3  16 64.8835 3.91166   3
   0   3  16 64.7760 3.91597   4
  -1  -3 -16 -0.0389 1.52496   2
   1   3  16 -0.3941 1.56047   3
   1   3  16 -1.1335 1.50893   4
  -2  -3 -16 18.6560 2.62470   2
   2   3  16 16.5439 2.47105   3
   5  -4 -16 1.59531 1.73325   2
  -5   4  16 1.22429 1.37201   4
  -5   4  16 0.89992 1.23545   3
   4  -4 -16 51.8942 3.74263   2
  -4   4  16 53.5055 3.86457   4
  -4   4  16 47.7364 3.16986   3
   3  -4 -16 62.1046 3.72627   2
  -3   4  16 84.5774 4.30178   3
  -3   4  16 75.3904 3.94762   4
   2  -4 -16 -2.1675 1.55272   2
  -2   4  16 0.09351 1.20719   4
  -2   4  16 2.10154 1.31923   3
   1  -4 -16 24.4851 2.98726   2
  -1   4  16 26.4680 2.99313   4
  -1   4  16 28.7191 3.05245   3
   0  -4 -16 3.44207 1.98073   2
   0   4  16 2.54570 1.50471   3
   0   4  16 5.45647 1.64645   4
   3  -5 -16 0.69961 1.39954   2
  -3   5  16 0.15384 1.62444   4
  -3   5  16 0.27321 1.32906   3
   2  -5 -16 26.5239 3.12882   2
  -2   5  16 24.3261 2.81706   4
  -2   5  16 26.6259 3.23644   3
   1   7 -17 26.3210 3.16236   1
  -1  -7  17 33.3462 3.60240   5
  -1  -7  17 32.7652 3.12987   2
   0   7 -17 20.6550 2.83420   1
   0  -7  17 23.6063 2.96672   5
  -1   7 -17 1.17862 1.79199   1
   1  -7  17 -1.9038 1.79591   5
   2  -7  17 2.63398 1.96154   1
   3  -7  17 3.51957 2.18243   1
   3   6 -17 1.59376 1.93849   1
  -3  -6  17 0.46271 1.99272   5
  -3  -6  17 1.88421 1.85738   2
   2   6 -17 0.95099 1.74552   1
  -2  -6  17 -1.7120 1.74847   5
  -2  -6  17 -2.4749 1.32217   2
   1   6 -17 2.62843 1.59092   1
  -1  -6  17 0.91044 1.47010   2
  -1  -6  17 -1.3925 1.62544   5
   0   6 -17 2.02014 1.66760   1
   0  -6  17 1.66658 1.73872   5
  -1   6 -17 0.34701 1.60256   1
   1  -6  17 -0.2307 1.48888   5
   2  -6  17 10.3371 2.22466   1
  -3   6 -17 9.69942 2.25832   3
   3  -6  17 11.6521 2.29823   1
  -4   6 -17 -1.0759 1.86257   3
   4  -6  17 0.74535 1.89466   1
   4   5 -17 0.32421 1.71845   1
  -4  -5  17 -0.4610 1.92466   5
  -4  -5  17 -0.8718 1.65031   2
   3   5 -17 0.44335 1.52029   1
  -3  -5  17 0.16095 1.79148   5
  -3  -5  17 3.25811 1.79592   2
   2   5 -17 -1.3341 1.41710   1
  -2  -5  17 1.89856 1.83636   5
  -2  -5  17 -0.1658 1.49045   2
   1   5 -17 15.1197 2.18443   1
  -1  -5  17 18.2857 2.53252   5
  -1  -5  17 17.4349 2.21503   2
   0   5 -17 9.07024 1.88490   1
   0  -5  17 9.24206 1.96799   5
   0  -5  17 6.73476 1.60145   2
   1  -5  17 1.85478 1.46765   5
   2  -5  17 1.98418 1.55932   1
  -3   5 -17 0.36208 1.53061   3
  -4   5 -17 -0.3325 1.73433   3
   4   4 -17 -0.2364 1.56651   1
  -4  -4  17 1.73779 1.76552   2
  -4  -4  17 0.80829 1.82532   5
   3   4 -17 4.04546 1.66322   1
  -3  -4  17 3.58141 1.68347   2
  -3  -4  17 3.12456 1.59151   5
   2   4 -17 8.69329 1.80721   1
  -2  -4  17 6.18892 1.96786   5
  -2  -4  17 7.50215 1.84080   2
   1   4 -17 0.26570 1.27932   1
  -1  -4  17 2.53321 1.10264   2
  -1  -4  17 2.61025 1.53488   5
   0  -4  17 0.97332 1.31991   5
   0  -4  17 4.49997 1.43425   2
   2  -4  17 48.1109 2.98785   3
   3  -4  17 1.56813 1.53825   3
  -4   4 -17 9.66486 1.92847   3
   5   3 -17 25.4199 2.86671   1
  -5  -3  17 30.0408 3.05122   2
  -4  -3  17 0.94883 1.58213   2
  -3  -3  17 50.1827 3.42628   2
  -2  -3  17 2.09712 1.39930   2
  -1  -3  17 16.6504 2.12611   2
  -1  -3  17 22.7121 2.24053   4
   0  -3  17 14.7304 1.97874   2
   0  -3  17 13.4565 1.91935   4
  -1   3 -17 69.9583 3.39748   2
   1  -3  17 75.5739 3.38069   3
   1  -3  17 78.0485 3.64010   4
   3  -3  17 0.32406 1.40688   3
   4  -3  17 1.69565 1.72188   3
  -5  -2  17 -1.7944 1.50523   2
  -4  -2  17 0.50171 1.11796   2
  -4  -2  17 -1.3070 1.20898   4
  -3  -2  17 13.4649 1.99282   4
  -3  -2  17 13.4190 2.05573   2
  -2  -2  17 0.25362 1.20097   4
  -2  -2  17 2.07936 1.42099   2
  -1  -2  17 7.90905 1.62714   4
  -1  -2  17 5.07392 1.59619   2
   0   2 -17 30.2422 2.60376   2
   0  -2  17 36.0934 2.41308   4
   0  -2  17 30.1252 2.30490   3
  -1   2 -17 17.7475 2.08864   2
   1  -2  17 22.7768 2.47659   4
   1  -2  17 23.3689 2.30241   3
   2  -2  17 5.16249 1.59547   3
   3  -2  17 1.90797 1.52603   3
   4  -2  17 21.0568 2.72829   3
  -6  -1  17 4.07769 2.00734   2
  -6  -1  17 4.83801 1.93689   4
  -5  -1  17 3.99437 1.69807   4
  -5  -1  17 4.60636 1.76161   2
  -4  -1  17 3.84448 1.57725   4
  -4  -1  17 7.43103 1.85638   2
  -3  -1  17 0.23197 1.37731   2
  -3  -1  17 -0.9151 0.81520   4
  -2  -1  17 2.75479 1.51717   2
  -2  -1  17 4.55589 1.50847   4
   1   1 -17 -0.1258 1.21352   2
  -1  -1  17 0.46124 1.26244   4
  -1  -1  17 0.10073 1.07129   3
   0   1 -17 -0.1697 1.18715   2
   0  -1  17 2.63012 1.39444   4
   0  -1  17 2.87578 1.31755   3
  -1   1 -17 3.46683 1.40879   2
   1  -1  17 2.98598 1.22746   4
   1  -1  17 1.01680 1.23560   3
  -2   1 -17 1.71948 1.29625   2
   2  -1  17 -0.2285 1.35548   3
   3  -1  17 -0.9532 1.56866   3
   4  -1  17 3.68319 2.03700   3
  -6   0  17 5.65894 1.99330   2
  -6   0  17 4.72012 1.91668   4
  -5   0  17 2.12935 1.65529   4
  -5   0  17 4.90730 1.76238   2
  -4   0  17 6.82038 1.85989   2
  -4   0  17 4.28633 1.67164   4
  -3   0  17 5.97116 1.52448   4
   2   0 -17 65.2519 3.58738   2
  -2   0  17 56.0009 3.36907   4
  -2   0  17 55.4118 2.94255   3
   1   0 -17 1.46491 1.07864   2
  -1   0  17 -1.0975 1.04680   3
  -1   0  17 -0.0294 1.26662   4
   0   0 -17 27.6415 2.62748   2
   0   0  17 34.1714 2.67616   3
   0   0  17 38.3011 2.92056   4
  -1   0 -17 32.9406 2.81731   2
   1   0  17 30.4072 2.86368   4
   1   0  17 36.2343 2.58857   3
  -2   0 -17 4.70663 1.60081   2
   2   0  17 8.09996 1.93592   3
   3   0  17 11.2352 2.37049   3
  -6   1  17 14.3081 2.58823   4
  -6   1  17 20.4547 2.75908   2
   5  -1 -17 -1.8815 1.09665   2
  -5   1  17 0.36895 1.18179   4
   4  -1 -17 10.1091 2.12969   2
  -4   1  17 6.21350 1.60716   4
   3  -1 -17 -0.0759 1.04387   2
  -3   1  17 1.54811 1.52573   4
   2  -1 -17 4.04027 1.61146   2
  -2   1  17 3.72676 1.57987   4
  -2   1  17 4.98555 1.60698   3
   1  -1 -17 2.79219 1.24978   2
  -1   1  17 0.86380 1.08579   4
  -1   1  17 0.62553 1.29744   3
   0  -1 -17 12.7456 2.10041   2
   0   1  17 14.8638 2.21306   3
   0   1  17 13.5817 2.19480   4
  -1  -1 -17 7.19584 1.80069   2
   1   1  17 6.02483 1.84991   3
   1   1  17 10.2344 2.11764   4
  -2  -1 -17 8.66317 1.88372   2
   2   1  17 8.00402 2.15538   3
   3   1  17 11.1873 2.47508   3
   6  -2 -17 1.32511 1.81450   2
  -6   2  17 1.86158 1.89114   4
   5  -2 -17 -0.4104 1.57592   2
  -5   2  17 5.82301 1.96810   4
   4  -2 -17 27.3362 3.02981   2
  -4   2  17 21.7442 2.56346   4
   3  -2 -17 25.2354 2.78478   2
  -3   2  17 24.0814 2.47236   3
  -3   2  17 27.2803 2.93313   4
   2  -2 -17 2.62638 1.30042   2
  -2   2  17 4.14857 1.62746   3
  -2   2  17 2.63766 1.58992   4
   1  -2 -17 19.8607 2.38377   2
  -1   2  17 22.7189 2.54108   4
  -1   2  17 23.5268 2.64144   3
   0  -2 -17 18.2875 2.47115   2
   0   2  17 16.4510 2.21996   3
   0   2  17 18.0349 2.52366   4
  -1  -2 -17 6.64480 1.90001   2
   1   2  17 4.10802 1.55494   3
   1   2  17 5.18948 1.68551   4
  -2  -2 -17 5.00167 1.87547   2
   2   2  17 3.49669 1.65808   3
   5  -3 -17 2.92581 1.95759   2
  -5   3  17 4.38480 1.61538   4
   4  -3 -17 3.06982 1.84431   2
  -4   3  17 0.18886 1.50470   3
  -4   3  17 -0.6254 1.27410   4
   3  -3 -17 7.00369 2.13542   2
  -3   3  17 6.84743 1.90728   3
  -3   3  17 6.79168 1.94667   4
   2  -3 -17 12.6890 2.09858   2
  -2   3  17 13.7494 2.40107   4
  -2   3  17 14.4523 2.32642   3
   1  -3 -17 11.4041 1.98887   2
  -1   3  17 9.93866 1.93532   3
  -1   3  17 9.20183 1.88419   4
   0  -3 -17 1.90305 1.69707   2
   0   3  17 0.89366 1.69797   3
   0   3  17 1.37252 1.73791   4
  -1  -3 -17 17.9673 2.62773   2
   1   3  17 19.1289 2.81943   4
   1   3  17 12.9293 2.51900   3
   4  -4 -17 7.81047 2.27005   2
  -4   4  17 4.73403 1.98419   3
  -4   4  17 7.94359 2.32038   4
   3  -4 -17 0.95690 1.83584   2
  -3   4  17 0.83815 1.75426   4
  -3   4  17 1.32294 1.36326   3
   2  -4 -17 1.92853 1.87370   2
  -2   4  17 -1.6605 1.55359   4
  -2   4  17 1.02689 1.83548   3
   1  -4 -17 2.66733 1.99032   2
  -1   4  17 5.31300 2.14155   3
  -1   4  17 4.58023 1.98732   4
   0   7 -18 1.67394 1.91428   1
   0  -7  18 -1.0173 1.87072   5
  -1   7 -18 11.9736 2.49807   1
   2   6 -18 -0.5178 1.60275   1
  -2  -6  18 -0.6929 1.58826   2
  -2  -6  18 -1.0213 1.41532   5
   1   6 -18 1.93695 1.80581   1
  -1  -6  18 0.27685 1.55280   2
  -1  -6  18 -0.4572 1.82855   5
   0   6 -18 1.78717 1.73515   1
   0  -6  18 5.78924 1.95713   5
  -1   6 -18 6.99524 2.07814   1
   2  -6  18 2.61660 2.04332   1
   3   5 -18 1.02306 1.83261   1
  -3  -5  18 -2.8869 1.74906   5
  -3  -5  18 1.38421 1.77256   2
   2   5 -18 1.73832 1.69045   1
  -2  -5  18 4.63110 1.86242   2
  -2  -5  18 -1.2578 1.74549   5
   1   5 -18 11.1887 2.09922   1
  -1  -5  18 6.56911 1.90619   2
  -1  -5  18 9.47906 2.22189   5
   0   5 -18 0.49784 1.38585   1
   0  -5  18 1.29070 1.63896   5
   0  -5  18 1.40836 1.54452   2
  -3   5 -18 7.89536 2.09569   3
   4   4 -18 -0.6500 1.64819   1
  -4  -4  18 0.77568 1.83147   2
  -4  -4  18 -2.6804 1.65458   5
  -3  -4  18 7.76532 2.29773   5
  -3  -4  18 12.9974 2.38184   2
  -2  -4  18 2.60104 1.58038   2
  -2  -4  18 0.09909 1.67031   5
  -1  -4  18 15.7668 2.18102   2
  -1  -4  18 13.7146 2.32690   5
   0  -4  18 2.65221 1.60010   5
   0  -4  18 1.08643 1.36130   2
   2  -4  18 12.9826 2.00696   3
   3  -4  18 -1.6480 1.54999   3
  -5  -3  18 0.98850 1.93873   2
  -4  -3  18 40.0179 3.53576   2
  -3  -3  18 18.1861 2.51695   2
  -2  -3  18 1.41415 1.46918   2
  -1  -3  18 9.02272 1.81461   2
  -1  -3  18 6.81508 1.63915   4
   0  -3  18 -0.2428 0.91720   4
   0  -3  18 -1.5628 1.13261   2
  -1   3 -18 1.16763 1.24566   2
   1  -3  18 1.13749 1.19031   3
   1  -3  18 0.02022 1.31625   4
   2  -3  18 8.93079 1.79853   3
   3  -3  18 1.59778 1.65151   3
   4  -3  18 -1.4411 1.64560   3
  -5  -2  18 1.86136 1.80830   2
  -4  -2  18 14.4788 2.38880   2
  -4  -2  18 17.2807 2.34455   4
  -3  -2  18 1.04045 1.33356   4
  -3  -2  18 1.82337 1.56023   2
  -2  -2  18 3.83692 1.23450   4
  -2  -2  18 0.76059 1.43844   2
  -1  -2  18 -0.6716 1.25031   2
  -1  -2  18 -0.8596 1.20205   4
   0   2 -18 2.34118 1.39156   2
   0  -2  18 0.43754 1.27194   4
   0  -2  18 0.37137 1.15338   3
  -1   2 -18 2.39627 1.35297   2
   1  -2  18 4.24902 1.61151   4
   1  -2  18 4.87895 1.54819   3
   2  -2  18 1.42582 1.46849   3
   3  -2  18 0.31433 1.63905   3
  -5  -1  18 14.2902 2.22526   4
  -5  -1  18 13.6627 2.47419   2
  -4  -1  18 0.55995 1.34467   4
  -4  -1  18 -1.9060 1.41834   2
  -3  -1  18 10.9830 2.08990   4
  -3  -1  18 9.66012 1.82248   2
  -2  -1  18 1.84733 1.46036   4
   1   1 -18 8.89525 1.65268   2
  -1  -1  18 12.4111 2.00482   4
   0   1 -18 6.47669 1.72249   2
   0  -1  18 5.03704 1.63035   4
   0  -1  18 6.77696 1.58667   3
  -1   1 -18 0.13152 1.16545   2
   1  -1  18 -0.8768 1.36967   4
   1  -1  18 -0.2470 1.30149   3
  -2   1 -18 0.47340 1.32289   2
   2  -1  18 -0.5983 1.47490   3
   3  -1  18 3.62499 1.64443   3
  -5   0  18 3.36189 1.93014   2
  -5   0  18 2.02237 1.71592   4
  -4   0  18 4.59495 1.82676   2
  -4   0  18 7.69869 1.70944   4
   3   0 -18 3.05270 1.37844   2
  -3   0  18 1.04609 1.47683   4
   2   0 -18 -0.9002 1.27220   2
  -2   0  18 1.13353 1.53104   4
   1   0 -18 -0.8247 0.99008   2
  -1   0  18 -0.4008 1.33099   4
  -1   0  18 -0.1414 0.88422   3
   0   0 -18 -0.1584 1.32735   2
   0   0  18 -0.0440 0.99792   4
   0   0  18 -1.1609 1.24831   3
  -1   0 -18 1.30961 1.46667   2
   1   0  18 -0.2858 1.46783   3
   1   0  18 0.96877 1.59433   4
  -2   0 -18 2.11183 1.46657   2
   2   0  18 1.23889 1.65925   3
   3   0  18 2.23951 1.53927   3
   5  -1 -18 3.82786 1.93994   2
  -5   1  18 4.59977 1.98829   4
   4  -1 -18 1.21909 1.78901   2
  -4   1  18 1.12309 1.65795   4
   3  -1 -18 1.22286 1.24818   2
  -3   1  18 0.19052 1.09746   4
   2  -1 -18 9.82107 2.09750   2
  -2   1  18 10.5988 1.90129   3
  -2   1  18 13.0493 2.07864   4
   1  -1 -18 -0.0508 1.38222   2
  -1   1  18 0.35097 1.34270   3
  -1   1  18 0.90204 1.12015   4
   0  -1 -18 25.0716 2.71783   2
   0   1  18 19.9993 2.51871   3
   0   1  18 27.0227 3.00978   4
  -1  -1 -18 1.12283 1.54448   2
   1   1  18 5.41687 1.94560   3
   1   1  18 1.12069 1.69249   4
  -2  -1 -18 6.11673 1.93088   2
   2   1  18 3.26487 2.02407   3
   5  -2 -18 2.06803 1.90871   2
  -5   2  18 2.44893 1.87229   4
   4  -2 -18 14.4708 2.59803   2
  -4   2  18 22.4747 2.95946   4
   3  -2 -18 36.6847 3.31652   2
  -3   2  18 34.2944 3.03631   3
  -3   2  18 32.6415 3.10071   4
   2  -2 -18 2.89046 1.77647   2
  -2   2  18 3.61592 1.39870   3
  -2   2  18 1.88399 1.74747   4
   1  -2 -18 10.2854 2.16036   2
  -1   2  18 8.87525 2.11987   3
  -1   2  18 4.34060 1.55019   4
   0  -2 -18 2.23043 1.34294   2
   0   2  18 5.15779 1.62240   3
   0   2  18 1.55023 1.37805   4
  -1  -2 -18 0.74827 1.68582   2
   1   2  18 0.38548 1.31919   3
   1   2  18 -0.8232 1.73436   4
   4  -3 -18 37.9003 3.56141   2
  -4   3  18 37.4996 3.59610   4
  -4   3  18 31.3382 3.26467   3
   3  -3 -18 48.7812 3.44648   2
  -3   3  18 39.0713 3.44918   3
  -3   3  18 45.5471 3.33098   4
   2  -3 -18 164.120 6.44741   2
  -2   3  18 168.301 6.25691   3
  -2   3  18 160.069 6.18892   4
   1  -3 -18 3.02218 1.96755   2
  -1   3  18 0.57302 1.39607   4
  -1   3  18 3.88610 2.02693   3
   0   3  18 38.7791 3.52424   3
   0   3  18 34.9151 3.63416   4
   1   6 -19 14.1080 2.56228   1
  -1  -6  19 12.5387 2.34394   2
  -1  -6  19 12.4974 2.69241   5
   0   6 -19 -1.4623 1.61068   1
   0  -6  19 -0.5391 1.78541   5
  -2  -5  19 -0.8148 1.80158   5
  -2  -5  19 1.98420 1.80455   2
  -1  -5  19 5.80473 1.85542   2
  -1  -5  19 8.46511 2.24086   5
   0  -5  19 3.95867 1.72154   2
   0  -5  19 0.85174 1.89942   5
  -3  -4  19 -0.2626 1.28703   2
  -3  -4  19 -1.0077 1.38844   5
  -2  -4  19 0.90541 1.24726   2
  -2  -4  19 -0.5382 1.30575   5
  -1  -4  19 13.2135 2.15867   2
   0  -4  19 7.53841 1.77122   2
   2  -4  19 2.08679 1.63071   3
   3  -4  19 -0.2018 1.75318   3
  -4  -3  19 13.3327 2.46578   2
  -3  -3  19 4.03656 1.77883   2
  -2  -3  19 3.97115 1.47704   2
  -1  -3  19 -0.5395 1.24928   4
  -1  -3  19 -1.8654 1.30883   2
   0   3 -19 -1.7102 1.25442   2
   0  -3  19 -1.0862 1.29011   4
  -1   3 -19 21.2842 2.41728   2
   1  -3  19 29.3143 2.82101   4
   2  -3  19 29.6119 2.88374   3
   3  -3  19 -1.1918 1.15838   3
  -4  -2  19 1.70403 1.84641   2
  -3  -2  19 0.68365 1.27004   2
  -3  -2  19 1.01805 1.50820   4
  -2  -2  19 3.24253 1.72187   2
  -2  -2  19 4.64785 1.69186   4
   1   2 -19 3.73027 1.75953   2
  -1  -2  19 5.79935 1.72815   4
   0   2 -19 -0.2879 1.31435   2
   0  -2  19 -0.9809 1.33909   4
  -1   2 -19 5.25316 1.62360   2
   1  -2  19 2.80717 1.58434   3
   1  -2  19 3.16740 1.63678   4
   2  -2  19 0.85060 1.20097   3
   3  -2  19 -0.5321 1.25885   3
  -5  -1  19 5.48439 2.01935   4
  -4  -1  19 3.65540 1.94487   2
  -4  -1  19 -0.4301 1.52754   4
  -3  -1  19 21.5799 2.77211   2
  -3  -1  19 19.9909 2.38873   4
   2   1 -19 -0.6247 1.42775   2
  -2  -1  19 -0.0571 1.44059   4
   1   1 -19 41.3704 3.18966   2
  -1  -1  19 40.3161 3.15103   4
   0   1 -19 26.9036 2.72504   2
   0  -1  19 30.4037 2.90481   4
   0  -1  19 28.8637 2.66177   3
  -1   1 -19 6.83757 1.81246   2
   1  -1  19 3.83856 1.68233   3
   1  -1  19 6.68036 2.06497   4
   2  -1  19 24.1072 2.84341   3
  -5   0  19 15.6102 2.61946   4
   4   0 -19 8.21808 2.26866   2
  -4   0  19 10.4207 2.28287   4
   3   0 -19 1.68457 1.75308   2
  -3   0  19 -1.4887 0.93082   4
   2   0 -19 -1.2607 1.40690   2
  -2   0  19 -2.3043 1.33220   4
   1   0 -19 3.13096 1.39868   2
  -1   0  19 2.77109 1.65735   4
  -1   0  19 2.00627 1.43045   3
   0   0 -19 23.4631 2.70509   2
   0   0  19 23.6421 2.69949   3
   0   0  19 27.4576 2.84914   4
  -1   0 -19 2.18602 1.63873   2
   1   0  19 1.68405 1.75773   3
   1   0  19 0.61399 1.61155   4
  -2   0 -19 12.8642 2.26898   2
   2   0  19 14.9517 2.30229   3
   4  -1 -19 8.45448 1.98918   2
  -4   1  19 9.89854 2.36547   4
   3  -1 -19 0.54111 1.39734   2
  -3   1  19 -1.5668 1.45135   4
   2  -1 -19 10.7324 2.26398   2
  -2   1  19 8.59355 2.13661   4
  -2   1  19 6.02651 1.80633   3
   1  -1 -19 1.67758 1.71909   2
  -1   1  19 -1.7433 1.48522   3
  -1   1  19 0.70139 1.59539   4
   0  -1 -19 1.95216 1.65361   2
   0   1  19 1.25390 1.29700   3
   0   1  19 3.00697 1.84109   4
  -1  -1 -19 13.6517 2.38043   2
   1   1  19 14.4598 2.66493   4
   1   1  19 10.6736 2.40933   3
   4  -2 -19 5.50977 2.20748   2
  -4   2  19 7.68303 1.98272   4
   3  -2 -19 10.8417 2.20429   2
  -3   2  19 15.7448 2.61201   4
   2  -2 -19 35.1875 3.50005   2
  -2   2  19 40.3397 3.46874   3
  -2   2  19 37.8502 3.50820   4
   1  -2 -19 14.2059 2.50035   2
  -1   2  19 13.6278 2.31459   4
  -1   2  19 13.0756 2.41923   3
   0  -2 -19 23.4405 3.06914   2
   0   2  19 26.0636 3.06394   3
   0   2  19 22.6988 2.90742   4
  -1  -5  20 0.94470 1.88063   5
  -1  -5  20 3.74660 1.86445   2
   0  -5  20 1.31817 1.91781   5
  -2  -4  20 5.12361 1.96190   2
  -1  -4  20 0.65998 1.61570   2
   0  -4  20 3.35260 1.74194   2
  -3  -3  20 4.20732 1.96551   2
  -2  -3  20 4.04376 1.87243   2
  -1  -3  20 -2.2379 1.42750   2
   0   3 -20 1.34087 1.53259   2
   0  -3  20 1.17530 1.58147   4
   2  -3  20 4.61275 1.87519   3
  -3  -2  20 4.15169 1.98659   2
  -3  -2  20 1.61120 1.59401   4
  -2  -2  20 0.20347 1.60099   2
  -2  -2  20 0.90910 1.58375   4
   1   2 -20 15.7611 2.41127   2
  -1  -2  20 15.8447 2.39837   4
   0   2 -20 2.28294 1.66300   2
   0  -2  20 1.09667 1.67234   4
  -1   2 -20 8.33944 2.00918   2
   1  -2  20 10.4466 2.10673   3
   1  -2  20 11.6847 2.27120   4
   2  -2  20 -1.1029 1.59717   3
  -4  -1  20 0.04352 1.42723   2
  -4  -1  20 -0.4806 1.56849   4
   3   1 -20 12.2676 2.22213   2
  -3  -1  20 10.4156 2.30237   4
   2   1 -20 1.96927 1.79289   2
  -2  -1  20 7.02163 1.68508   4
   1   1 -20 -0.3791 1.63567   2
  -1  -1  20 4.06199 1.50902   4
   0   1 -20 1.95715 1.69992   2
   0  -1  20 1.77781 1.39234   4
   0  -1  20 1.53756 1.53882   3
  -1   1 -20 -0.2080 1.58224   2
   1  -1  20 -1.5817 1.55386   3
   1  -1  20 -0.6466 1.22247   4
   3   0 -20 3.42019 2.03714   2
  -3   0  20 -1.1239 1.66879   4
   2   0 -20 4.58200 1.61150   2
  -2   0  20 4.30542 1.61900   4
   1   0 -20 1.56737 1.36994   2
  -1   0  20 0.43033 1.24872   4
  -1   0  20 3.56622 1.68169   3
   0   0 -20 3.14752 1.77038   2
   0   0  20 7.49778 2.19467   4
   0   0  20 0.45988 1.69539   3
   1   0  20 1.71639 1.81512   4
   1   0  20 -0.3355 1.80817   3
   3  -1 -20 -1.5961 1.75650   2
  -3   1  20 1.65050 1.45420   4
   2  -1 -20 10.9064 2.48087   2
  -2   1  20 14.2917 2.59326   4
   1  -1 -20 14.9747 2.62750   2
  -1   1  20 15.3405 2.63423   4
  -1   1  20 11.6595 2.33833   3
   1   3 -21 -0.9708 1.61164   2
   0   3 -21 1.42282 1.72456   2
   0  -3  21 4.04752 1.85501   4
   2   2 -21 -0.8913 1.84901   2
  -2  -2  21 1.14860 1.74530   4
   1   2 -21 0.94734 1.72421   2
  -1  -2  21 0.71046 1.69051   4
   0   2 -21 1.65301 1.78809   2
   0  -2  21 1.16384 1.78725   4
   2   1 -21 10.6750 2.42738   2
  -2  -1  21 11.5893 2.34925   4
   1   1 -21 -1.3567 1.67529   2
  -1  -1  21 0.26047 1.32947   4
   0  -1  21 4.71932 2.00880   3
   0   0   0    0.00    0.00   0
;
_shelx_hkl_checksum              89937
_olex2_submission_special_instructions 'No special instructions were received'
loop_
_space_group_symop_operation_xyz
'x, y, z'
'-x, -y, -z'
loop_
_atom_site_label
_atom_site_type_symbol
_atom_site_fract_x
_atom_site_fract_y
_atom_site_fract_z
_atom_site_U_iso_or_equiv
_atom_site_adp_type
_atom_site_occupancy
_atom_site_site_symmetry_order
_atom_site_calc_flag
_atom_site_refinement_flags_posn
C1 C 0.2446(4) 0.2033(3) 1.00234(15) 0.0585(6) Uani 1 1 d .
H1 H 0.2440 0.0902 1.0097 0.070 Uiso 1 1 calc R
C2 C 0.2893(4) 0.3454(3) 1.07502(15) 0.0582(6) Uani 1 1 d .
H2 H 0.3190 0.3266 1.1283 0.070 Uiso 1 1 calc R
C3 C 0.2885(3) 0.5100(3) 1.06605(13) 0.0521(6) Uani 1 1 d .
H3 H 0.3168 0.6062 1.1134 0.063 Uiso 1 1 calc R
C4 C 0.2446(3) 0.5362(3) 0.98479(12) 0.0403(5) Uani 1 1 d .
C5 C 0.2415(3) 0.7035(3) 0.97001(14) 0.0510(6) Uani 1 1 d .
H5 H 0.2684 0.8033 1.0156 0.061 Uiso 1 1 calc R
C6 C 0.1998(3) 0.7215(3) 0.89015(14) 0.0503(6) Uani 1 1 d .
H6 H 0.1990 0.8333 0.8814 0.060 Uiso 1 1 calc R
C7 C 0.1579(3) 0.5715(3) 0.82054(13) 0.0428(5) Uani 1 1 d .
H7 H 0.1273 0.5839 0.7660 0.051 Uiso 1 1 calc R
C8 C 0.1621(3) 0.4084(2) 0.83301(12) 0.0371(5) Uani 1 1 d .
C9 C 0.2039(3) 0.3845(2) 0.91521(12) 0.0362(5) Uani 1 1 d .
C10 C -0.3795(3) 0.0199(3) 0.77082(15) 0.0539(6) Uani 1 1 d .
H10 H -0.4882 0.0510 0.7873 0.065 Uiso 1 1 calc R
C11 C -0.4000(3) -0.1584(3) 0.74191(14) 0.0580(6) Uani 1 1 d .
H11 H -0.5210 -0.2470 0.7378 0.070 Uiso 1 1 calc R
C12 C -0.2381(4) -0.2061(3) 0.71870(13) 0.0514(6) Uani 1 1 d .
H12 H -0.2483 -0.3272 0.6985 0.062 Uiso 1 1 calc R
C13 C -0.0626(3) -0.0718(2) 0.72603(11) 0.0378(5) Uani 1 1 d .
C14 C -0.0515(3) 0.1087(2) 0.75374(12) 0.0365(4) Uani 1 1 d .
C15 C 0.2535(3) 0.2654(3) 0.70509(13) 0.0435(5) Uani 1 1 d .
C16 C 0.1593(3) -0.0705(3) 0.63396(12) 0.0385(5) Uani 1 1 d .
C17 C 0.2216(3) 0.1096(3) 0.63069(12) 0.0392(5) Uani 1 1 d .
C18 C 0.2761(3) 0.1473(3) 0.55588(13) 0.0457(5) Uani 1 1 d .
H18 H 0.3191 0.2673 0.5523 0.055 Uiso 1 1 calc R
C19 C 0.2684(3) 0.0132(3) 0.48742(13) 0.0475(5) Uani 1 1 d .
H19 H 0.3029 0.0410 0.4375 0.057 Uiso 1 1 calc R
C20 C 0.2086(3) -0.1646(3) 0.49364(13) 0.0479(5) Uani 1 1 d .
C21 C 0.1540(3) -0.2093(3) 0.56627(13) 0.0451(5) Uani 1 1 d .
H21 H 0.1147 -0.3294 0.5699 0.054 Uiso 1 1 calc R
Cl1 Cl 0.19872(10) -0.33558(9) 0.40693(4) 0.0741(3) Uani 1 1 d .
N1 N -0.2080(3) 0.1544(2) 0.77670(12) 0.0494(5) Uani 1 1 d .
N2 N 0.1256(2) 0.2541(2) 0.76203(10) 0.0384(4) Uani 1 1 d .
N3 N 0.2034(3) 0.2174(2) 0.92457(11) 0.0475(5) Uani 1 1 d .
O1 O 0.1035(2) -0.11834(18) 0.70701(8) 0.0451(4) Uani 1 1 d .
O2 O 0.3939(2) 0.4027(2) 0.71330(11) 0.0683(5) Uani 1 1 d .
loop_
_atom_site_aniso_label
_atom_site_aniso_U_11
_atom_site_aniso_U_22
_atom_site_aniso_U_33
_atom_site_aniso_U_23
_atom_site_aniso_U_13
_atom_site_aniso_U_12
C1 0.0795(17) 0.0436(13) 0.0573(15) 0.0178(11) 0.0086(12) 0.0242(12)
C2 0.0733(16) 0.0620(15) 0.0461(13) 0.0180(11) 0.0107(11) 0.0286(13)
C3 0.0627(14) 0.0519(13) 0.0406(12) 0.0005(10) 0.0101(10) 0.0234(11)
C4 0.0414(11) 0.0356(11) 0.0424(11) 0.0025(8) 0.0105(9) 0.0139(8)
C5 0.0653(14) 0.0332(11) 0.0522(13) -0.0023(9) 0.0088(11) 0.0213(10)
C6 0.0634(14) 0.0327(11) 0.0569(14) 0.0093(10) 0.0090(11) 0.0200(10)
C7 0.0459(12) 0.0357(11) 0.0460(12) 0.0100(9) 0.0072(9) 0.0122(9)
C8 0.0345(10) 0.0283(10) 0.0414(11) 0.0016(8) 0.0058(8) 0.0042(8)
C9 0.0335(10) 0.0306(10) 0.0418(11) 0.0052(8) 0.0081(8) 0.0082(8)
C10 0.0382(11) 0.0613(15) 0.0606(14) 0.0204(11) 0.0127(10) 0.0080(10)
C11 0.0501(13) 0.0549(15) 0.0532(14) 0.0171(11) 0.0044(11) -0.0083(11)
C12 0.0762(15) 0.0282(10) 0.0380(11) 0.0078(9) 0.0050(11) 0.0004(10)
C13 0.0478(11) 0.0340(10) 0.0304(10) 0.0096(8) 0.0057(8) 0.0101(9)
C14 0.0371(10) 0.0336(10) 0.0330(10) 0.0064(8) 0.0031(8) 0.0046(8)
C15 0.0430(11) 0.0355(11) 0.0469(12) 0.0061(9) 0.0080(9) 0.0073(9)
C16 0.0408(10) 0.0414(11) 0.0342(10) 0.0085(8) 0.0047(8) 0.0152(9)
C17 0.0354(10) 0.0387(11) 0.0415(11) 0.0076(8) 0.0055(8) 0.0108(8)
C18 0.0406(11) 0.0437(12) 0.0522(13) 0.0133(10) 0.0127(10) 0.0097(9)
C19 0.0424(12) 0.0594(14) 0.0405(11) 0.0130(10) 0.0119(9) 0.0135(10)
C20 0.0404(11) 0.0540(13) 0.0406(12) -0.0031(10) 0.0050(9) 0.0129(10)
C21 0.0490(12) 0.0378(11) 0.0459(12) 0.0057(9) 0.0069(10) 0.0136(9)
Cl1 0.0830(5) 0.0703(5) 0.0515(4) -0.0133(3) 0.0187(3) 0.0148(4)
N1 0.0429(10) 0.0476(11) 0.0573(11) 0.0140(9) 0.0129(8) 0.0114(8)
N2 0.0392(9) 0.0284(8) 0.0406(9) 0.0018(7) 0.0079(7) 0.0044(7)
N3 0.0589(11) 0.0307(9) 0.0513(11) 0.0087(8) 0.0062(8) 0.0140(8)
O1 0.0605(9) 0.0417(8) 0.0394(8) 0.0139(6) 0.0114(7) 0.0220(7)
O2 0.0591(10) 0.0431(9) 0.0822(12) -0.0054(8) 0.0324(9) -0.0078(8)
loop_
_atom_type_symbol
_atom_type_description
_atom_type_scat_dispersion_real
_atom_type_scat_dispersion_imag
_atom_type_scat_source
C C 0.0033 0.0016 'International Tables Vol C Tables 4.2.6.8 and 6.1.1.4'
H H 0.0000 0.0000 'International Tables Vol C Tables 4.2.6.8 and 6.1.1.4'
Cl Cl 0.1484 0.1585 'International Tables Vol C Tables 4.2.6.8 and 6.1.1.4'
N N 0.0061 0.0033 'International Tables Vol C Tables 4.2.6.8 and 6.1.1.4'
O O 0.0106 0.0060 'International Tables Vol C Tables 4.2.6.8 and 6.1.1.4'
loop_
_geom_angle_atom_site_label_1
_geom_angle_atom_site_label_2
_geom_angle_atom_site_label_3
_geom_angle
N3 C1 C2 125.1(2)
C3 C2 C1 118.6(2)
C2 C3 C4 119.9(2)
C3 C4 C9 117.28(19)
C5 C4 C3 123.38(19)
C5 C4 C9 119.33(19)
C6 C5 C4 120.93(19)
C5 C6 C7 120.26(19)
C8 C7 C6 120.0(2)
C7 C8 C9 121.22(17)
C7 C8 N2 120.78(18)
C9 C8 N2 117.99(17)
C8 C9 C4 118.23(17)
N3 C9 C4 122.70(18)
N3 C9 C8 119.07(16)
N1 C10 C11 123.0(2)
C10 C11 C12 118.9(2)
C13 C12 C11 118.8(2)
C12 C13 C14 119.91(19)
C12 C13 O1 119.28(18)
O1 C13 C14 120.80(17)
C13 C14 N2 122.61(17)
N1 C14 C13 121.18(17)
N1 C14 N2 116.18(16)
N2 C15 C17 120.24(17)
O2 C15 C17 118.63(18)
O2 C15 N2 121.12(19)
C17 C16 O1 120.71(16)
C21 C16 C17 121.92(18)
C21 C16 O1 117.36(17)
C16 C17 C15 123.93(17)
C16 C17 C18 117.54(18)
C18 C17 C15 118.21(18)
C19 C18 C17 121.90(19)
C18 C19 C20 118.82(19)
C19 C20 Cl1 119.04(17)
C21 C20 C19 121.65(19)
C21 C20 Cl1 119.30(17)
C20 C21 C16 118.15(19)
C14 N1 C10 118.22(19)
C14 N2 C8 116.14(15)
C15 N2 C8 118.31(15)
C15 N2 C14 125.32(16)
C1 N3 C9 116.49(18)
C13 O1 C16 111.71(14)
loop_
_geom_bond_atom_site_label_1
_geom_bond_atom_site_label_2
_geom_bond_distance
C1 C2 1.401(3)
C1 N3 1.314(3)
C2 C3 1.347(3)
C3 C4 1.408(3)
C4 C5 1.405(3)
C4 C9 1.417(3)
C5 C6 1.358(3)
C6 C7 1.407(3)
C7 C8 1.361(3)
C8 C9 1.413(3)
C8 N2 1.448(2)
C9 N3 1.366(2)
C10 C11 1.358(3)
C10 N1 1.354(3)
C11 C12 1.384(3)
C12 C13 1.368(3)
C13 C14 1.389(3)
C13 O1 1.389(2)
C14 N1 1.339(3)
C14 N2 1.419(2)
C15 C17 1.496(3)
C15 N2 1.372(3)
C15 O2 1.223(2)
C16 C17 1.385(3)
C16 C21 1.385(3)
C16 O1 1.392(2)
C17 C18 1.389(3)
C18 C19 1.366(3)
C19 C20 1.381(3)
C20 C21 1.374(3)
C20 Cl1 1.735(2)
